MODEL 1
REMARK VINA RESULT:      -6.3      0.000      0.000
REMARK  Name = NuBBE_1012
REMARK  3 active torsions:
REMARK  status: ('A' for Active; 'I' for Inactive)
REMARK    1  A    between atoms: O_1  and  C_2
REMARK    2  A    between atoms: C_5  and  O_15
REMARK    3  A    between atoms: C_11  and  O_13
REMARK                            x       y       z     vdW  Elec       q    Type
REMARK                         _______ _______ _______ _____ _____    ______ ____
ROOT
ATOM      1  C   LIG A   1     -12.130   7.995 129.972  0.00  0.00    +0.123 A 
ATOM      2  C   LIG A   1     -11.149   6.997 130.111  0.00  0.00    +0.030 A 
ATOM      3  C   LIG A   1     -10.317   6.709 128.996  0.00  0.00    -0.007 A 
ATOM      4  C   LIG A   1      -9.185   5.702 129.140  0.00  0.00    +0.176 C 
ATOM      5  C   LIG A   1      -9.572   4.546 130.017  0.00  0.00    +0.183 C 
ATOM      6  C   LIG A   1     -10.459   4.829 131.191  0.00  0.00    +0.183 C 
ATOM      7  C   LIG A   1     -10.951   6.231 131.407  0.00  0.00    +0.180 C 
ATOM      8  O   LIG A   1     -10.955   4.143 130.028  0.00  0.00    -0.362 OA
ATOM      9  C   LIG A   1     -10.530   7.384 127.783  0.00  0.00    +0.007 A 
ATOM     10  C   LIG A   1     -11.550   8.328 127.660  0.00  0.00    +0.004 A 
ATOM     11  C   LIG A   1     -12.340   8.641 128.761  0.00  0.00    +0.046 A 
ENDROOT
BRANCH   1  12
ATOM     12  O   LIG A   1     -12.934   8.381 131.011  0.00  0.00    -0.506 OA
ATOM     13  H   LIG A   1     -13.402   7.591 131.349  0.00  0.00    +0.292 HD
ENDBRANCH   1  12
BRANCH   7  14
ATOM     14  O   LIG A   1     -12.178   6.164 132.135  0.00  0.00    -0.384 OA
ATOM     15  H   LIG A   1     -12.342   5.209 132.270  0.00  0.00    +0.210 HD
ENDBRANCH   7  14
BRANCH   4  16
ATOM     16  O   LIG A   1      -8.748   5.212 127.879  0.00  0.00    -0.385 OA
ATOM     17  H   LIG A   1      -7.916   5.665 127.667  0.00  0.00    +0.210 HD
ENDBRANCH   4  16
TORSDOF 3
ENDMDL
MODEL 2
REMARK VINA RESULT:      -6.3      1.185      3.339
REMARK  Name = NuBBE_1012
REMARK  3 active torsions:
REMARK  status: ('A' for Active; 'I' for Inactive)
REMARK    1  A    between atoms: O_1  and  C_2
REMARK    2  A    between atoms: C_5  and  O_15
REMARK    3  A    between atoms: C_11  and  O_13
REMARK                            x       y       z     vdW  Elec       q    Type
REMARK                         _______ _______ _______ _____ _____    ______ ____
ROOT
ATOM      1  C   LIG A   1     -10.573   7.042 127.834  0.00  0.00    +0.123 A 
ATOM      2  C   LIG A   1     -10.750   6.543 129.137  0.00  0.00    +0.030 A 
ATOM      3  C   LIG A   1     -11.774   7.109 129.942  0.00  0.00    -0.007 A 
ATOM      4  C   LIG A   1     -12.055   6.529 131.322  0.00  0.00    +0.176 C 
ATOM      5  C   LIG A   1     -10.794   6.108 132.020  0.00  0.00    +0.183 C 
ATOM      6  C   LIG A   1      -9.698   5.519 131.183  0.00  0.00    +0.183 C 
ATOM      7  C   LIG A   1      -9.893   5.422 129.698  0.00  0.00    +0.180 C 
ATOM      8  O   LIG A   1      -9.589   6.844 131.735  0.00  0.00    -0.362 OA
ATOM      9  C   LIG A   1     -12.537   8.175 129.441  0.00  0.00    +0.007 A 
ATOM     10  C   LIG A   1     -12.298   8.687 128.165  0.00  0.00    +0.004 A 
ATOM     11  C   LIG A   1     -11.323   8.110 127.359  0.00  0.00    +0.046 A 
ENDROOT
BRANCH   1  12
ATOM     12  O   LIG A   1      -9.653   6.516 126.967  0.00  0.00    -0.506 OA
ATOM     13  H   LIG A   1     -10.107   6.307 126.126  0.00  0.00    +0.292 HD
ENDBRANCH   1  12
BRANCH   7  14
ATOM     14  O   LIG A   1      -8.605   5.427 129.080  0.00  0.00    -0.384 OA
ATOM     15  H   LIG A   1      -8.674   4.787 128.343  0.00  0.00    +0.210 HD
ENDBRANCH   7  14
BRANCH   4  16
ATOM     16  O   LIG A   1     -12.768   7.442 132.145  0.00  0.00    -0.385 OA
ATOM     17  H   LIG A   1     -12.400   8.325 131.982  0.00  0.00    +0.210 HD
ENDBRANCH   4  16
TORSDOF 3
ENDMDL
MODEL 3
REMARK VINA RESULT:      -6.2      1.974      3.443
REMARK  Name = NuBBE_1012
REMARK  3 active torsions:
REMARK  status: ('A' for Active; 'I' for Inactive)
REMARK    1  A    between atoms: O_1  and  C_2
REMARK    2  A    between atoms: C_5  and  O_15
REMARK    3  A    between atoms: C_11  and  O_13
REMARK                            x       y       z     vdW  Elec       q    Type
REMARK                         _______ _______ _______ _____ _____    ______ ____
ROOT
ATOM      1  C   LIG A   1     -11.929   6.631 129.095  0.00  0.00    +0.123 A 
ATOM      2  C   LIG A   1     -10.844   6.207 129.884  0.00  0.00    +0.030 A 
ATOM      3  C   LIG A   1     -10.928   6.376 131.292  0.00  0.00    -0.007 A 
ATOM      4  C   LIG A   1      -9.814   5.843 132.182  0.00  0.00    +0.176 C 
ATOM      5  C   LIG A   1      -8.461   6.020 131.554  0.00  0.00    +0.183 C 
ATOM      6  C   LIG A   1      -8.357   5.856 130.067  0.00  0.00    +0.183 C 
ATOM      7  C   LIG A   1      -9.603   5.572 129.281  0.00  0.00    +0.180 C 
ATOM      8  O   LIG A   1      -8.265   7.152 130.685  0.00  0.00    -0.362 OA
ATOM      9  C   LIG A   1     -12.054   7.004 131.846  0.00  0.00    +0.007 A 
ATOM     10  C   LIG A   1     -13.088   7.466 131.032  0.00  0.00    +0.004 A 
ATOM     11  C   LIG A   1     -13.028   7.266 129.657  0.00  0.00    +0.046 A 
ENDROOT
BRANCH   1  12
ATOM     12  O   LIG A   1     -11.962   6.451 127.738  0.00  0.00    -0.506 OA
ATOM     13  H   LIG A   1     -11.613   7.258 127.311  0.00  0.00    +0.292 HD
ENDBRANCH   1  12
BRANCH   7  14
ATOM     14  O   LIG A   1      -9.404   6.044 127.947  0.00  0.00    -0.384 OA
ATOM     15  H   LIG A   1      -9.846   6.916 127.917  0.00  0.00    +0.210 HD
ENDBRANCH   7  14
BRANCH   4  16
ATOM     16  O   LIG A   1      -9.821   6.456 133.464  0.00  0.00    -0.385 OA
ATOM     17  H   LIG A   1     -10.108   5.784 134.103  0.00  0.00    +0.210 HD
ENDBRANCH   4  16
TORSDOF 3
ENDMDL
MODEL 4
REMARK VINA RESULT:      -6.0      1.473      4.454
REMARK  Name = NuBBE_1012
REMARK  3 active torsions:
REMARK  status: ('A' for Active; 'I' for Inactive)
REMARK    1  A    between atoms: O_1  and  C_2
REMARK    2  A    between atoms: C_5  and  O_15
REMARK    3  A    between atoms: C_11  and  O_13
REMARK                            x       y       z     vdW  Elec       q    Type
REMARK                         _______ _______ _______ _____ _____    ______ ____
ROOT
ATOM      1  C   LIG A   1      -8.940   5.929 130.337  0.00  0.00    +0.123 A 
ATOM      2  C   LIG A   1     -10.140   6.579 129.999  0.00  0.00    +0.030 A 
ATOM      3  C   LIG A   1     -11.112   6.773 131.017  0.00  0.00    -0.007 A 
ATOM      4  C   LIG A   1     -12.381   7.556 130.708  0.00  0.00    +0.176 C 
ATOM      5  C   LIG A   1     -12.891   7.272 129.324  0.00  0.00    +0.183 C 
ATOM      6  C   LIG A   1     -11.879   7.053 128.240  0.00  0.00    +0.183 C 
ATOM      7  C   LIG A   1     -10.421   7.082 128.593  0.00  0.00    +0.180 C 
ATOM      8  O   LIG A   1     -12.652   5.963 128.773  0.00  0.00    -0.362 OA
ATOM      9  C   LIG A   1     -10.873   6.269 132.305  0.00  0.00    +0.007 A 
ATOM     10  C   LIG A   1      -9.697   5.577 132.594  0.00  0.00    +0.004 A 
ATOM     11  C   LIG A   1      -8.726   5.420 131.611  0.00  0.00    +0.046 A 
ENDROOT
BRANCH   1  12
ATOM     12  O   LIG A   1      -7.923   5.754 129.437  0.00  0.00    -0.506 OA
ATOM     13  H   LIG A   1      -8.303   5.403 128.607  0.00  0.00    +0.292 HD
ENDBRANCH   1  12
BRANCH   7  14
ATOM     14  O   LIG A   1      -9.716   6.291 127.635  0.00  0.00    -0.384 OA
ATOM     15  H   LIG A   1      -9.964   6.664 126.765  0.00  0.00    +0.210 HD
ENDBRANCH   7  14
BRANCH   4  16
ATOM     16  O   LIG A   1     -13.409   7.292 131.653  0.00  0.00    -0.385 OA
ATOM     17  H   LIG A   1     -14.178   6.967 131.158  0.00  0.00    +0.210 HD
ENDBRANCH   4  16
TORSDOF 3
ENDMDL
MODEL 5
REMARK VINA RESULT:      -5.9      1.633      4.144
REMARK  Name = NuBBE_1012
REMARK  3 active torsions:
REMARK  status: ('A' for Active; 'I' for Inactive)
REMARK    1  A    between atoms: O_1  and  C_2
REMARK    2  A    between atoms: C_5  and  O_15
REMARK    3  A    between atoms: C_11  and  O_13
REMARK                            x       y       z     vdW  Elec       q    Type
REMARK                         _______ _______ _______ _____ _____    ______ ____
ROOT
ATOM      1  C   LIG A   1     -10.505   6.334 130.709  0.00  0.00    +0.123 A 
ATOM      2  C   LIG A   1     -10.815   7.053 129.541  0.00  0.00    +0.030 A 
ATOM      3  C   LIG A   1     -11.972   7.876 129.542  0.00  0.00    -0.007 A 
ATOM      4  C   LIG A   1     -12.285   8.740 128.328  0.00  0.00    +0.176 C 
ATOM      5  C   LIG A   1     -11.947   8.041 127.042  0.00  0.00    +0.183 C 
ATOM      6  C   LIG A   1     -10.735   7.159 127.026  0.00  0.00    +0.183 C 
ATOM      7  C   LIG A   1      -9.951   6.981 128.293  0.00  0.00    +0.180 C 
ATOM      8  O   LIG A   1     -12.064   6.606 127.005  0.00  0.00    -0.362 OA
ATOM      9  C   LIG A   1     -12.796   7.908 130.679  0.00  0.00    +0.007 A 
ATOM     10  C   LIG A   1     -12.493   7.138 131.802  0.00  0.00    +0.004 A 
ATOM     11  C   LIG A   1     -11.339   6.362 131.819  0.00  0.00    +0.046 A 
ENDROOT
BRANCH   1  12
ATOM     12  O   LIG A   1      -9.377   5.565 130.820  0.00  0.00    -0.506 OA
ATOM     13  H   LIG A   1      -8.598   6.155 130.786  0.00  0.00    +0.292 HD
ENDBRANCH   1  12
BRANCH   7  14
ATOM     14  O   LIG A   1      -9.280   5.722 128.228  0.00  0.00    -0.384 OA
ATOM     15  H   LIG A   1      -9.969   5.056 128.423  0.00  0.00    +0.210 HD
ENDBRANCH   7  14
BRANCH   4  16
ATOM     16  O   LIG A   1     -13.647   9.144 128.301  0.00  0.00    -0.385 OA
ATOM     17  H   LIG A   1     -14.125   8.508 127.746  0.00  0.00    +0.210 HD
ENDBRANCH   4  16
TORSDOF 3
ENDMDL
MODEL 6
REMARK VINA RESULT:      -5.8      1.827      3.635
REMARK  Name = NuBBE_1012
REMARK  3 active torsions:
REMARK  status: ('A' for Active; 'I' for Inactive)
REMARK    1  A    between atoms: O_1  and  C_2
REMARK    2  A    between atoms: C_5  and  O_15
REMARK    3  A    between atoms: C_11  and  O_13
REMARK                            x       y       z     vdW  Elec       q    Type
REMARK                         _______ _______ _______ _____ _____    ______ ____
ROOT
ATOM      1  C   LIG A   1     -10.685   6.417 131.655  0.00  0.00    +0.123 A 
ATOM      2  C   LIG A   1     -11.329   6.985 130.542  0.00  0.00    +0.030 A 
ATOM      3  C   LIG A   1     -10.528   7.489 129.484  0.00  0.00    -0.007 A 
ATOM      4  C   LIG A   1     -11.193   8.025 128.223  0.00  0.00    +0.176 C 
ATOM      5  C   LIG A   1     -12.460   8.770 128.532  0.00  0.00    +0.183 C 
ATOM      6  C   LIG A   1     -13.312   8.259 129.654  0.00  0.00    +0.183 C 
ATOM      7  C   LIG A   1     -12.842   7.068 130.437  0.00  0.00    +0.180 C 
ATOM      8  O   LIG A   1     -12.541   9.467 129.791  0.00  0.00    -0.362 OA
ATOM      9  C   LIG A   1      -9.129   7.455 129.599  0.00  0.00    +0.007 A 
ATOM     10  C   LIG A   1      -8.520   6.937 130.743  0.00  0.00    +0.004 A 
ATOM     11  C   LIG A   1      -9.301   6.406 131.764  0.00  0.00    +0.046 A 
ENDROOT
BRANCH   1  12
ATOM     12  O   LIG A   1     -11.377   5.851 132.693  0.00  0.00    -0.506 OA
ATOM     13  H   LIG A   1     -10.761   5.725 133.442  0.00  0.00    +0.292 HD
ENDBRANCH   1  12
BRANCH   7  14
ATOM     14  O   LIG A   1     -13.426   7.133 131.739  0.00  0.00    -0.384 OA
ATOM     15  H   LIG A   1     -13.389   8.079 131.988  0.00  0.00    +0.210 HD
ENDBRANCH   7  14
BRANCH   4  16
ATOM     16  O   LIG A   1     -10.321   8.866 127.480  0.00  0.00    -0.385 OA
ATOM     17  H   LIG A   1      -9.547   9.043 128.038  0.00  0.00    +0.210 HD
ENDBRANCH   4  16
TORSDOF 3
ENDMDL
MODEL 7
REMARK VINA RESULT:      -5.3      1.796      2.105
REMARK  Name = NuBBE_1012
REMARK  3 active torsions:
REMARK  status: ('A' for Active; 'I' for Inactive)
REMARK    1  A    between atoms: O_1  and  C_2
REMARK    2  A    between atoms: C_5  and  O_15
REMARK    3  A    between atoms: C_11  and  O_13
REMARK                            x       y       z     vdW  Elec       q    Type
REMARK                         _______ _______ _______ _____ _____    ______ ____
ROOT
ATOM      1  C   LIG A   1     -11.925   6.590 128.910  0.00  0.00    +0.123 A 
ATOM      2  C   LIG A   1     -10.874   6.256 129.782  0.00  0.00    +0.030 A 
ATOM      3  C   LIG A   1      -9.757   7.131 129.857  0.00  0.00    -0.007 A 
ATOM      4  C   LIG A   1      -8.645   6.849 130.858  0.00  0.00    +0.176 C 
ATOM      5  C   LIG A   1      -8.368   5.379 130.989  0.00  0.00    +0.183 C 
ATOM      6  C   LIG A   1      -9.533   4.441 130.900  0.00  0.00    +0.183 C 
ATOM      7  C   LIG A   1     -10.900   5.005 130.642  0.00  0.00    +0.180 C 
ATOM      8  O   LIG A   1      -8.577   4.549 129.830  0.00  0.00    -0.362 OA
ATOM      9  C   LIG A   1      -9.710   8.264 129.030  0.00  0.00    +0.007 A 
ATOM     10  C   LIG A   1     -10.743   8.537 128.133  0.00  0.00    +0.004 A 
ATOM     11  C   LIG A   1     -11.856   7.705 128.085  0.00  0.00    +0.046 A 
ENDROOT
BRANCH   1  12
ATOM     12  O   LIG A   1     -13.067   5.839 128.818  0.00  0.00    -0.506 OA
ATOM     13  H   LIG A   1     -13.813   6.437 128.611  0.00  0.00    +0.292 HD
ENDBRANCH   1  12
BRANCH   7  14
ATOM     14  O   LIG A   1     -11.688   3.991 130.015  0.00  0.00    -0.384 OA
ATOM     15  H   LIG A   1     -12.496   4.450 129.708  0.00  0.00    +0.210 HD
ENDBRANCH   7  14
BRANCH   4  16
ATOM     16  O   LIG A   1      -7.442   7.527 130.519  0.00  0.00    -0.385 OA
ATOM     17  H   LIG A   1      -7.352   7.487 129.553  0.00  0.00    +0.210 HD
ENDBRANCH   4  16
TORSDOF 3
ENDMDL
MODEL 8
REMARK VINA RESULT:      -5.3      9.770     10.799
REMARK  Name = NuBBE_1012
REMARK  3 active torsions:
REMARK  status: ('A' for Active; 'I' for Inactive)
REMARK    1  A    between atoms: O_1  and  C_2
REMARK    2  A    between atoms: C_5  and  O_15
REMARK    3  A    between atoms: C_11  and  O_13
REMARK                            x       y       z     vdW  Elec       q    Type
REMARK                         _______ _______ _______ _____ _____    ______ ____
ROOT
ATOM      1  C   LIG A   1      -7.176  -2.425 128.067  0.00  0.00    +0.123 A 
ATOM      2  C   LIG A   1      -7.467  -2.076 126.736  0.00  0.00    +0.030 A 
ATOM      3  C   LIG A   1      -8.606  -2.660 126.120  0.00  0.00    -0.007 A 
ATOM      4  C   LIG A   1      -9.004  -2.234 124.713  0.00  0.00    +0.176 C 
ATOM      5  C   LIG A   1      -7.805  -1.993 123.841  0.00  0.00    +0.183 C 
ATOM      6  C   LIG A   1      -6.591  -1.388 124.478  0.00  0.00    +0.183 C 
ATOM      7  C   LIG A   1      -6.613  -1.097 125.950  0.00  0.00    +0.180 C 
ATOM      8  O   LIG A   1      -6.621  -2.774 124.093  0.00  0.00    -0.362 OA
ATOM      9  C   LIG A   1      -9.370  -3.600 126.830  0.00  0.00    +0.007 A 
ATOM     10  C   LIG A   1      -9.021  -3.969 128.129  0.00  0.00    +0.004 A 
ATOM     11  C   LIG A   1      -7.931  -3.369 128.750  0.00  0.00    +0.046 A 
ENDROOT
BRANCH   1  12
ATOM     12  O   LIG A   1      -6.136  -1.865 128.761  0.00  0.00    -0.506 OA
ATOM     13  H   LIG A   1      -5.342  -1.881 128.191  0.00  0.00    +0.292 HD
ENDBRANCH   1  12
BRANCH   7  14
ATOM     14  O   LIG A   1      -5.267  -1.120 126.428  0.00  0.00    -0.384 OA
ATOM     15  H   LIG A   1      -4.892  -1.959 126.093  0.00  0.00    +0.210 HD
ENDBRANCH   7  14
BRANCH   4  16
ATOM     16  O   LIG A   1      -9.856  -3.187 124.092  0.00  0.00    -0.385 OA
ATOM     17  H   LIG A   1     -10.260  -2.753 123.324  0.00  0.00    +0.210 HD
ENDBRANCH   4  16
TORSDOF 3
ENDMDL
MODEL 9
REMARK VINA RESULT:      -5.2      7.382      9.735
REMARK  Name = NuBBE_1012
REMARK  3 active torsions:
REMARK  status: ('A' for Active; 'I' for Inactive)
REMARK    1  A    between atoms: O_1  and  C_2
REMARK    2  A    between atoms: C_5  and  O_15
REMARK    3  A    between atoms: C_11  and  O_13
REMARK                            x       y       z     vdW  Elec       q    Type
REMARK                         _______ _______ _______ _____ _____    ______ ____
ROOT
ATOM      1  C   LIG A   1      -9.315  -2.394 124.564  0.00  0.00    +0.123 A 
ATOM      2  C   LIG A   1      -8.901  -1.051 124.508  0.00  0.00    +0.030 A 
ATOM      3  C   LIG A   1      -8.234  -0.504 125.637  0.00  0.00    -0.007 A 
ATOM      4  C   LIG A   1      -7.689   0.916 125.575  0.00  0.00    +0.176 C 
ATOM      5  C   LIG A   1      -8.601   1.834 124.813  0.00  0.00    +0.183 C 
ATOM      6  C   LIG A   1      -9.322   1.270 123.626  0.00  0.00    +0.183 C 
ATOM      7  C   LIG A   1      -9.136  -0.180 123.287  0.00  0.00    +0.180 C 
ATOM      8  O   LIG A   1     -10.015   1.562 124.853  0.00  0.00    -0.362 OA
ATOM      9  C   LIG A   1      -8.055  -1.294 126.784  0.00  0.00    +0.007 A 
ATOM     10  C   LIG A   1      -8.530  -2.605 126.829  0.00  0.00    +0.004 A 
ATOM     11  C   LIG A   1      -9.148  -3.157 125.712  0.00  0.00    +0.046 A 
ENDROOT
BRANCH   1  12
ATOM     12  O   LIG A   1      -9.909  -3.022 123.501  0.00  0.00    -0.506 OA
ATOM     13  H   LIG A   1      -9.481  -3.893 123.380  0.00  0.00    +0.292 HD
ENDBRANCH   1  12
BRANCH   7  14
ATOM     14  O   LIG A   1     -10.296  -0.623 122.579  0.00  0.00    -0.384 OA
ATOM     15  H   LIG A   1     -10.483   0.083 121.929  0.00  0.00    +0.210 HD
ENDBRANCH   7  14
BRANCH   4  16
ATOM     16  O   LIG A   1      -7.457   1.452 126.871  0.00  0.00    -0.385 OA
ATOM     17  H   LIG A   1      -8.237   1.977 127.109  0.00  0.00    +0.210 HD
ENDBRANCH   4  16
TORSDOF 3
ENDMDL
