MODEL 1
REMARK VINA RESULT:      -9.1      0.000      0.000
REMARK  Name = NuBBE_1335
REMARK  12 active torsions:
REMARK  status: ('A' for Active; 'I' for Inactive)
REMARK    1  A    between atoms: C_1  and  C_2
REMARK    2  A    between atoms: C_2  and  C_3
REMARK    3  A    between atoms: C_6  and  C_7
REMARK    4  A    between atoms: C_8  and  C_9
REMARK    5  A    between atoms: C_9  and  O_10
REMARK    6  A    between atoms: O_10  and  C_11
REMARK    7  A    between atoms: C_16  and  C_17
REMARK    8  A    between atoms: C_19  and  O_21
REMARK    9  A    between atoms: O_21  and  C_22
REMARK   10  A    between atoms: C_22  and  C_23
REMARK   11  A    between atoms: C_26  and  C_27
REMARK   12  A    between atoms: C_34  and  C_36
REMARK                            x       y       z     vdW  Elec       q    Type
REMARK                         _______ _______ _______ _____ _____    ______ ____
ROOT
ATOM      1  C   LIG A   1      -5.092  -3.678 123.983  0.00  0.00    +0.056 C 
ATOM      2  C   LIG A   1      -6.215  -2.653 124.227  0.00  0.00    +0.113 C 
ATOM      3  C   LIG A   1      -6.313  -1.797 122.952  0.00  0.00    +0.056 C 
ATOM      4  O   LIG A   1      -7.445  -3.375 124.405  0.00  0.00    -0.458 OA
ATOM      5  C   LIG A   1      -8.241  -2.774 125.341  0.00  0.00    +0.319 C 
ATOM      6  C   LIG A   1      -7.573  -1.518 125.911  0.00  0.00    +0.100 C 
ATOM      7  C   LIG A   1      -6.098  -1.819 125.535  0.00  0.00    +0.060 C 
ATOM      8  C   LIG A   1      -5.290  -2.577 126.620  0.00  0.00    +0.083 C 
ATOM      9  C   LIG A   1      -5.650  -2.351 128.077  0.00  0.00    +0.143 C 
ATOM     10  C   LIG A   1      -7.131  -2.306 128.423  0.00  0.00    +0.066 C 
ATOM     11  C   LIG A   1      -7.636  -3.758 128.169  0.00  0.00    +0.022 C 
ATOM     12  C   LIG A   1      -7.816  -1.279 127.455  0.00  0.00    +0.067 C 
ATOM     13  C   LIG A   1      -7.413   0.175 127.878  0.00  0.00    +0.183 C 
ATOM     14  C   LIG A   1      -7.945   0.474 129.286  0.00  0.00    +0.058 C 
ATOM     15  C   LIG A   1      -7.380  -0.436 130.395  0.00  0.00    +0.045 C 
ATOM     16  C   LIG A   1      -5.944   0.007 130.780  0.00  0.00    +0.018 C 
ATOM     17  C   LIG A   1      -7.410  -1.910 129.921  0.00  0.00    +0.129 C 
ATOM     18  O   LIG A   1      -8.546  -2.653 130.416  0.00  0.00    -0.351 OA
ATOM     19  C   LIG A   1      -7.296  -2.901 131.068  0.00  0.00    +0.260 C 
ATOM     20  C   LIG A   1      -7.272  -2.460 132.486  0.00  0.00    +0.340 C 
ATOM     21  O   LIG A   1      -7.737  -1.204 132.752  0.00  0.00    -0.454 OA
ATOM     22  C   LIG A   1      -8.277  -0.354 131.704  0.00  0.00    +0.218 C 
ATOM     23  O   LIG A   1      -6.830  -3.189 133.355  0.00  0.00    -0.248 OA
ATOM     24  O   LIG A   1      -4.775  -2.369 128.942  0.00  0.00    -0.297 OA
ATOM     25  O   LIG A   1      -9.344  -3.195 125.656  0.00  0.00    -0.250 OA
ENDROOT
BRANCH  22  26
ATOM     26  C   LIG A   1      -8.486   1.033 132.256  0.00  0.00    +0.031 A 
ATOM     27  C   LIG A   1      -7.617   1.766 133.042  0.00  0.00    +0.202 A 
ATOM     28  O   LIG A   1      -8.156   2.962 133.384  0.00  0.00    -0.471 OA
ATOM     29  C   LIG A   1      -9.396   3.005 132.841  0.00  0.00    +0.195 A 
ATOM     30  C   LIG A   1      -9.656   1.845 132.150  0.00  0.00    +0.048 A 
ENDBRANCH  22  26
BRANCH   6  31
ATOM     31  C   LIG A   1      -8.219  -0.363 125.114  0.00  0.00    -0.001 C 
ATOM     32  C   LIG A   1      -9.476   0.093 125.321  0.00  0.00    +0.088 C 
BRANCH  32  33
ATOM     33  C   LIG A   1     -10.014   1.299 124.650  0.00  0.00    +0.331 C 
ATOM     34  O   LIG A   1     -10.870   1.332 123.782  0.00  0.00    -0.246 OA
BRANCH  33  35
ATOM     35  O   LIG A   1      -9.293   2.345 125.156  0.00  0.00    -0.465 OA
ATOM     36  C   LIG A   1      -8.526   3.094 124.210  0.00  0.00    +0.280 C 
ENDBRANCH  33  35
ENDBRANCH  32  33
ENDBRANCH   6  31
BRANCH  13  37
ATOM     37  O   LIG A   1      -5.978   0.277 127.853  0.00  0.00    -0.461 OA
BRANCH  37  38
ATOM     38  C   LIG A   1      -5.371   1.449 127.537  0.00  0.00    +0.304 C 
ATOM     39  C   LIG A   1      -5.524   1.722 126.066  0.00  0.00    +0.136 C 
ATOM     40  O   LIG A   1      -4.880   2.225 128.340  0.00  0.00    -0.251 OA
ENDBRANCH  37  38
ENDBRANCH  13  37
TORSDOF 6
ENDMDL
MODEL 2
REMARK VINA RESULT:      -8.6      2.579      6.314
REMARK  Name = NuBBE_1335
REMARK  12 active torsions:
REMARK  status: ('A' for Active; 'I' for Inactive)
REMARK    1  A    between atoms: C_1  and  C_2
REMARK    2  A    between atoms: C_2  and  C_3
REMARK    3  A    between atoms: C_6  and  C_7
REMARK    4  A    between atoms: C_8  and  C_9
REMARK    5  A    between atoms: C_9  and  O_10
REMARK    6  A    between atoms: O_10  and  C_11
REMARK    7  A    between atoms: C_16  and  C_17
REMARK    8  A    between atoms: C_19  and  O_21
REMARK    9  A    between atoms: O_21  and  C_22
REMARK   10  A    between atoms: C_22  and  C_23
REMARK   11  A    between atoms: C_26  and  C_27
REMARK   12  A    between atoms: C_34  and  C_36
REMARK                            x       y       z     vdW  Elec       q    Type
REMARK                         _______ _______ _______ _____ _____    ______ ____
ROOT
ATOM      1  C   LIG A   1      -9.737  -2.895 125.545  0.00  0.00    +0.056 C 
ATOM      2  C   LIG A   1      -8.478  -2.817 126.428  0.00  0.00    +0.113 C 
ATOM      3  C   LIG A   1      -8.536  -4.022 127.384  0.00  0.00    +0.056 C 
ATOM      4  O   LIG A   1      -7.329  -2.948 125.574  0.00  0.00    -0.458 OA
ATOM      5  C   LIG A   1      -6.299  -2.157 126.006  0.00  0.00    +0.319 C 
ATOM      6  C   LIG A   1      -6.692  -1.374 127.263  0.00  0.00    +0.100 C 
ATOM      7  C   LIG A   1      -8.237  -1.458 127.145  0.00  0.00    +0.060 C 
ATOM      8  C   LIG A   1      -8.896  -0.286 126.374  0.00  0.00    +0.083 C 
ATOM      9  C   LIG A   1      -8.231   1.078 126.428  0.00  0.00    +0.143 C 
ATOM     10  C   LIG A   1      -6.716   1.112 126.295  0.00  0.00    +0.066 C 
ATOM     11  C   LIG A   1      -6.442   0.658 124.830  0.00  0.00    +0.022 C 
ATOM     12  C   LIG A   1      -6.122   0.099 127.334  0.00  0.00    +0.067 C 
ATOM     13  C   LIG A   1      -6.263   0.697 128.775  0.00  0.00    +0.183 C 
ATOM     14  C   LIG A   1      -5.432   1.982 128.889  0.00  0.00    +0.058 C 
ATOM     15  C   LIG A   1      -5.868   3.117 127.941  0.00  0.00    +0.045 C 
ATOM     16  C   LIG A   1      -7.139   3.820 128.486  0.00  0.00    +0.018 C 
ATOM     17  C   LIG A   1      -6.103   2.545 126.521  0.00  0.00    +0.129 C 
ATOM     18  O   LIG A   1      -4.984   2.741 125.627  0.00  0.00    -0.351 OA
ATOM     19  C   LIG A   1      -6.101   3.618 125.445  0.00  0.00    +0.260 C 
ATOM     20  C   LIG A   1      -5.793   5.038 125.753  0.00  0.00    +0.340 C 
ATOM     21  O   LIG A   1      -5.142   5.290 126.928  0.00  0.00    -0.454 OA
ATOM     22  C   LIG A   1      -4.726   4.215 127.813  0.00  0.00    +0.218 C 
ATOM     23  O   LIG A   1      -6.135   5.926 124.995  0.00  0.00    -0.248 OA
ATOM     24  O   LIG A   1      -8.915   2.102 126.417  0.00  0.00    -0.297 OA
ATOM     25  O   LIG A   1      -5.212  -2.108 125.450  0.00  0.00    -0.250 OA
ENDROOT
BRANCH  22  26
ATOM     26  C   LIG A   1      -4.253   4.808 129.116  0.00  0.00    +0.031 A 
ATOM     27  C   LIG A   1      -4.844   5.827 129.840  0.00  0.00    +0.202 A 
ATOM     28  O   LIG A   1      -4.118   6.125 130.946  0.00  0.00    -0.471 OA
ATOM     29  C   LIG A   1      -3.032   5.315 130.935  0.00  0.00    +0.195 A 
ATOM     30  C   LIG A   1      -3.057   4.497 129.831  0.00  0.00    +0.048 A 
ENDBRANCH  22  26
BRANCH   6  31
ATOM     31  C   LIG A   1      -6.087  -2.205 128.417  0.00  0.00    -0.001 C 
ATOM     32  C   LIG A   1      -4.780  -2.539 128.509  0.00  0.00    +0.088 C 
BRANCH  32  33
ATOM     33  C   LIG A   1      -4.201  -3.202 129.700  0.00  0.00    +0.331 C 
ATOM     34  O   LIG A   1      -3.029  -3.489 129.881  0.00  0.00    -0.246 OA
BRANCH  33  35
ATOM     35  O   LIG A   1      -5.267  -3.488 130.508  0.00  0.00    -0.465 OA
ATOM     36  C   LIG A   1      -5.394  -4.851 130.919  0.00  0.00    +0.280 C 
ENDBRANCH  33  35
ENDBRANCH  32  33
ENDBRANCH   6  31
BRANCH  13  37
ATOM     37  O   LIG A   1      -7.653   0.976 129.020  0.00  0.00    -0.461 OA
BRANCH  37  38
ATOM     38  C   LIG A   1      -8.171   0.876 130.270  0.00  0.00    +0.304 C 
ATOM     39  C   LIG A   1      -8.090  -0.550 130.743  0.00  0.00    +0.136 C 
ATOM     40  O   LIG A   1      -8.537   1.815 130.958  0.00  0.00    -0.251 OA
ENDBRANCH  37  38
ENDBRANCH  13  37
TORSDOF 6
ENDMDL
MODEL 3
REMARK VINA RESULT:      -8.3      4.015      8.605
REMARK  Name = NuBBE_1335
REMARK  12 active torsions:
REMARK  status: ('A' for Active; 'I' for Inactive)
REMARK    1  A    between atoms: C_1  and  C_2
REMARK    2  A    between atoms: C_2  and  C_3
REMARK    3  A    between atoms: C_6  and  C_7
REMARK    4  A    between atoms: C_8  and  C_9
REMARK    5  A    between atoms: C_9  and  O_10
REMARK    6  A    between atoms: O_10  and  C_11
REMARK    7  A    between atoms: C_16  and  C_17
REMARK    8  A    between atoms: C_19  and  O_21
REMARK    9  A    between atoms: O_21  and  C_22
REMARK   10  A    between atoms: C_22  and  C_23
REMARK   11  A    between atoms: C_26  and  C_27
REMARK   12  A    between atoms: C_34  and  C_36
REMARK                            x       y       z     vdW  Elec       q    Type
REMARK                         _______ _______ _______ _____ _____    ______ ____
ROOT
ATOM      1  C   LIG A   1      -5.948   3.353 134.864  0.00  0.00    +0.056 C 
ATOM      2  C   LIG A   1      -6.697   4.159 133.787  0.00  0.00    +0.113 C 
ATOM      3  C   LIG A   1      -8.123   4.385 134.319  0.00  0.00    +0.056 C 
ATOM      4  O   LIG A   1      -6.040   5.430 133.648  0.00  0.00    -0.458 OA
ATOM      5  C   LIG A   1      -6.039   5.847 132.344  0.00  0.00    +0.319 C 
ATOM      6  C   LIG A   1      -6.737   4.827 131.437  0.00  0.00    +0.100 C 
ATOM      7  C   LIG A   1      -6.650   3.573 132.347  0.00  0.00    +0.060 C 
ATOM      8  C   LIG A   1      -5.388   2.698 132.132  0.00  0.00    +0.083 C 
ATOM      9  C   LIG A   1      -4.769   2.651 130.746  0.00  0.00    +0.143 C 
ATOM     10  C   LIG A   1      -4.662   3.969 129.994  0.00  0.00    +0.066 C 
ATOM     11  C   LIG A   1      -3.620   4.797 130.803  0.00  0.00    +0.022 C 
ATOM     12  C   LIG A   1      -6.077   4.646 130.012  0.00  0.00    +0.067 C 
ATOM     13  C   LIG A   1      -7.030   3.874 129.036  0.00  0.00    +0.183 C 
ATOM     14  C   LIG A   1      -6.505   3.987 127.598  0.00  0.00    +0.058 C 
ATOM     15  C   LIG A   1      -5.112   3.367 127.370  0.00  0.00    +0.045 C 
ATOM     16  C   LIG A   1      -5.215   1.822 127.273  0.00  0.00    +0.018 C 
ATOM     17  C   LIG A   1      -4.159   3.800 128.512  0.00  0.00    +0.129 C 
ATOM     18  O   LIG A   1      -3.304   4.912 128.160  0.00  0.00    -0.351 OA
ATOM     19  C   LIG A   1      -2.692   3.617 128.157  0.00  0.00    +0.260 C 
ATOM     20  C   LIG A   1      -2.261   3.171 126.807  0.00  0.00    +0.340 C 
ATOM     21  O   LIG A   1      -3.167   3.302 125.793  0.00  0.00    -0.454 OA
ATOM     22  C   LIG A   1      -4.476   3.895 126.013  0.00  0.00    +0.218 C 
ATOM     23  O   LIG A   1      -1.157   2.690 126.636  0.00  0.00    -0.248 OA
ATOM     24  O   LIG A   1      -4.241   1.617 130.339  0.00  0.00    -0.297 OA
ATOM     25  O   LIG A   1      -5.551   6.905 131.977  0.00  0.00    -0.250 OA
ENDROOT
BRANCH  22  26
ATOM     26  C   LIG A   1      -5.321   3.687 124.781  0.00  0.00    +0.031 A 
ATOM     27  C   LIG A   1      -5.382   4.489 123.657  0.00  0.00    +0.202 A 
ATOM     28  O   LIG A   1      -6.282   4.011 122.763  0.00  0.00    -0.471 OA
ATOM     29  C   LIG A   1      -6.835   2.903 123.314  0.00  0.00    +0.195 A 
ATOM     30  C   LIG A   1      -6.293   2.665 124.555  0.00  0.00    +0.048 A 
ENDBRANCH  22  26
BRANCH   6  31
ATOM     31  C   LIG A   1      -8.160   5.401 131.265  0.00  0.00    -0.001 C 
ATOM     32  C   LIG A   1      -8.429   6.638 130.786  0.00  0.00    +0.088 C 
BRANCH  32  33
ATOM     33  C   LIG A   1      -9.802   7.105 130.487  0.00  0.00    +0.331 C 
ATOM     34  O   LIG A   1     -10.165   7.729 129.504  0.00  0.00    -0.246 OA
BRANCH  33  35
ATOM     35  O   LIG A   1     -10.548   6.755 131.579  0.00  0.00    -0.465 OA
ATOM     36  C   LIG A   1     -11.955   6.633 131.364  0.00  0.00    +0.280 C 
ENDBRANCH  33  35
ENDBRANCH  32  33
ENDBRANCH   6  31
BRANCH  13  37
ATOM     37  O   LIG A   1      -7.080   2.495 129.443  0.00  0.00    -0.461 OA
BRANCH  37  38
ATOM     38  C   LIG A   1      -8.259   1.822 129.470  0.00  0.00    +0.304 C 
ATOM     39  C   LIG A   1      -8.127   0.597 130.332  0.00  0.00    +0.136 C 
ATOM     40  O   LIG A   1      -9.302   2.211 128.973  0.00  0.00    -0.251 OA
ENDBRANCH  37  38
ENDBRANCH  13  37
TORSDOF 6
ENDMDL
MODEL 4
REMARK VINA RESULT:      -8.2      2.371      4.570
REMARK  Name = NuBBE_1335
REMARK  12 active torsions:
REMARK  status: ('A' for Active; 'I' for Inactive)
REMARK    1  A    between atoms: C_1  and  C_2
REMARK    2  A    between atoms: C_2  and  C_3
REMARK    3  A    between atoms: C_6  and  C_7
REMARK    4  A    between atoms: C_8  and  C_9
REMARK    5  A    between atoms: C_9  and  O_10
REMARK    6  A    between atoms: O_10  and  C_11
REMARK    7  A    between atoms: C_16  and  C_17
REMARK    8  A    between atoms: C_19  and  O_21
REMARK    9  A    between atoms: O_21  and  C_22
REMARK   10  A    between atoms: C_22  and  C_23
REMARK   11  A    between atoms: C_26  and  C_27
REMARK   12  A    between atoms: C_34  and  C_36
REMARK                            x       y       z     vdW  Elec       q    Type
REMARK                         _______ _______ _______ _____ _____    ______ ____
ROOT
ATOM      1  C   LIG A   1      -3.992  -2.375 129.314  0.00  0.00    +0.056 C 
ATOM      2  C   LIG A   1      -5.289  -1.922 128.618  0.00  0.00    +0.113 C 
ATOM      3  C   LIG A   1      -5.165  -2.340 127.142  0.00  0.00    +0.056 C 
ATOM      4  O   LIG A   1      -6.385  -2.632 129.218  0.00  0.00    -0.458 OA
ATOM      5  C   LIG A   1      -7.498  -1.839 129.308  0.00  0.00    +0.319 C 
ATOM      6  C   LIG A   1      -7.228  -0.441 128.743  0.00  0.00    +0.100 C 
ATOM      7  C   LIG A   1      -5.678  -0.429 128.817  0.00  0.00    +0.060 C 
ATOM      8  C   LIG A   1      -5.093   0.139 130.136  0.00  0.00    +0.083 C 
ATOM      9  C   LIG A   1      -5.877   1.211 130.871  0.00  0.00    +0.143 C 
ATOM     10  C   LIG A   1      -7.382   1.017 130.973  0.00  0.00    +0.066 C 
ATOM     11  C   LIG A   1      -7.554  -0.224 131.899  0.00  0.00    +0.022 C 
ATOM     12  C   LIG A   1      -7.928   0.740 129.528  0.00  0.00    +0.067 C 
ATOM     13  C   LIG A   1      -7.900   2.071 128.703  0.00  0.00    +0.183 C 
ATOM     14  C   LIG A   1      -8.844   3.099 129.340  0.00  0.00    +0.058 C 
ATOM     15  C   LIG A   1      -8.470   3.512 130.778  0.00  0.00    +0.045 C 
ATOM     16  C   LIG A   1      -7.290   4.518 130.763  0.00  0.00    +0.018 C 
ATOM     17  C   LIG A   1      -8.128   2.250 131.607  0.00  0.00    +0.129 C 
ATOM     18  O   LIG A   1      -9.221   1.785 132.431  0.00  0.00    -0.351 OA
ATOM     19  C   LIG A   1      -8.179   2.498 133.106  0.00  0.00    +0.260 C 
ATOM     20  C   LIG A   1      -8.623   3.797 133.672  0.00  0.00    +0.340 C 
ATOM     21  O   LIG A   1      -9.342   4.618 132.850  0.00  0.00    -0.454 OA
ATOM     22  C   LIG A   1      -9.698   4.219 131.499  0.00  0.00    +0.218 C 
ATOM     23  O   LIG A   1      -8.329   4.111 134.811  0.00  0.00    -0.248 OA
ATOM     24  O   LIG A   1      -5.286   2.099 131.484  0.00  0.00    -0.297 OA
ATOM     25  O   LIG A   1      -8.561  -2.224 129.770  0.00  0.00    -0.250 OA
ENDROOT
BRANCH  22  26
ATOM     26  C   LIG A   1     -10.275   5.407 130.772  0.00  0.00    +0.031 A 
ATOM     27  C   LIG A   1     -11.471   5.474 130.083  0.00  0.00    +0.202 A 
ATOM     28  O   LIG A   1     -11.646   6.696 129.523  0.00  0.00    -0.471 OA
ATOM     29  C   LIG A   1     -10.547   7.429 129.825  0.00  0.00    +0.195 A 
ATOM     30  C   LIG A   1      -9.669   6.686 130.577  0.00  0.00    +0.048 A 
ENDBRANCH  22  26
BRANCH   6  31
ATOM     31  C   LIG A   1      -7.805  -0.505 127.311  0.00  0.00    -0.001 C 
ATOM     32  C   LIG A   1      -8.536  -1.537 126.831  0.00  0.00    +0.088 C 
BRANCH  32  33
ATOM     33  C   LIG A   1      -9.205  -1.503 125.510  0.00  0.00    +0.331 C 
ATOM     34  O   LIG A   1      -9.406  -0.520 124.816  0.00  0.00    -0.246 OA
BRANCH  33  35
ATOM     35  O   LIG A   1      -9.611  -2.789 125.279  0.00  0.00    -0.465 OA
ATOM     36  C   LIG A   1      -9.347  -3.305 123.973  0.00  0.00    +0.280 C 
ENDBRANCH  33  35
ENDBRANCH  32  33
ENDBRANCH   6  31
BRANCH  13  37
ATOM     37  O   LIG A   1      -6.551   2.571 128.689  0.00  0.00    -0.461 OA
BRANCH  37  38
ATOM     38  C   LIG A   1      -6.087   3.288 127.634  0.00  0.00    +0.304 C 
ATOM     39  C   LIG A   1      -5.466   2.363 126.623  0.00  0.00    +0.136 C 
ATOM     40  O   LIG A   1      -6.255   4.484 127.468  0.00  0.00    -0.251 OA
ENDBRANCH  37  38
ENDBRANCH  13  37
TORSDOF 6
ENDMDL
MODEL 5
REMARK VINA RESULT:      -8.0      2.598      8.002
REMARK  Name = NuBBE_1335
REMARK  12 active torsions:
REMARK  status: ('A' for Active; 'I' for Inactive)
REMARK    1  A    between atoms: C_1  and  C_2
REMARK    2  A    between atoms: C_2  and  C_3
REMARK    3  A    between atoms: C_6  and  C_7
REMARK    4  A    between atoms: C_8  and  C_9
REMARK    5  A    between atoms: C_9  and  O_10
REMARK    6  A    between atoms: O_10  and  C_11
REMARK    7  A    between atoms: C_16  and  C_17
REMARK    8  A    between atoms: C_19  and  O_21
REMARK    9  A    between atoms: O_21  and  C_22
REMARK   10  A    between atoms: C_22  and  C_23
REMARK   11  A    between atoms: C_26  and  C_27
REMARK   12  A    between atoms: C_34  and  C_36
REMARK                            x       y       z     vdW  Elec       q    Type
REMARK                         _______ _______ _______ _____ _____    ______ ____
ROOT
ATOM      1  C   LIG A   1      -4.748   6.268 130.080  0.00  0.00    +0.056 C 
ATOM      2  C   LIG A   1      -5.817   5.195 130.359  0.00  0.00    +0.113 C 
ATOM      3  C   LIG A   1      -5.637   4.766 131.825  0.00  0.00    +0.056 C 
ATOM      4  O   LIG A   1      -7.109   5.805 130.201  0.00  0.00    -0.458 OA
ATOM      5  C   LIG A   1      -8.004   4.932 129.646  0.00  0.00    +0.319 C 
ATOM      6  C   LIG A   1      -7.350   3.576 129.361  0.00  0.00    +0.100 C 
ATOM      7  C   LIG A   1      -5.859   4.006 129.358  0.00  0.00    +0.060 C 
ATOM      8  C   LIG A   1      -5.302   4.412 127.969  0.00  0.00    +0.083 C 
ATOM      9  C   LIG A   1      -5.884   3.747 126.734  0.00  0.00    +0.143 C 
ATOM     10  C   LIG A   1      -7.394   3.570 126.693  0.00  0.00    +0.066 C 
ATOM     11  C   LIG A   1      -7.955   5.021 126.593  0.00  0.00    +0.022 C 
ATOM     12  C   LIG A   1      -7.830   2.873 128.029  0.00  0.00    +0.067 C 
ATOM     13  C   LIG A   1      -7.398   1.368 127.989  0.00  0.00    +0.183 C 
ATOM     14  C   LIG A   1      -8.134   0.644 126.854  0.00  0.00    +0.058 C 
ATOM     15  C   LIG A   1      -7.831   1.185 125.442  0.00  0.00    +0.045 C 
ATOM     16  C   LIG A   1      -6.451   0.674 124.951  0.00  0.00    +0.018 C 
ATOM     17  C   LIG A   1      -7.889   2.732 125.456  0.00  0.00    +0.129 C 
ATOM     18  O   LIG A   1      -9.144   3.267 124.978  0.00  0.00    -0.351 OA
ATOM     19  C   LIG A   1      -8.042   3.329 124.066  0.00  0.00    +0.260 C 
ATOM     20  C   LIG A   1      -8.223   2.478 122.862  0.00  0.00    +0.340 C 
ATOM     21  O   LIG A   1      -8.633   1.191 123.069  0.00  0.00    -0.454 OA
ATOM     22  C   LIG A   1      -8.926   0.691 124.401  0.00  0.00    +0.218 C 
ATOM     23  O   LIG A   1      -7.988   2.916 121.751  0.00  0.00    -0.248 OA
ATOM     24  O   LIG A   1      -5.168   3.518 125.759  0.00  0.00    -0.297 OA
ATOM     25  O   LIG A   1      -9.172   5.216 129.426  0.00  0.00    -0.250 OA
ENDROOT
BRANCH  22  26
ATOM     26  C   LIG A   1      -9.122  -0.803 124.332  0.00  0.00    +0.031 A 
ATOM     27  C   LIG A   1      -9.462  -1.656 125.364  0.00  0.00    +0.202 A 
ATOM     28  O   LIG A   1      -9.513  -2.942 124.940  0.00  0.00    -0.471 OA
ATOM     29  C   LIG A   1      -9.180  -2.938 123.626  0.00  0.00    +0.195 A 
ATOM     30  C   LIG A   1      -8.918  -1.656 123.204  0.00  0.00    +0.048 A 
ENDBRANCH  22  26
BRANCH   6  31
ATOM     31  C   LIG A   1      -7.768   2.706 130.568  0.00  0.00    -0.001 C 
ATOM     32  C   LIG A   1      -8.980   2.766 131.166  0.00  0.00    +0.088 C 
BRANCH  32  33
ATOM     33  C   LIG A   1      -9.406   1.816 132.219  0.00  0.00    +0.331 C 
ATOM     34  O   LIG A   1     -10.127   0.842 132.077  0.00  0.00    -0.246 OA
BRANCH  33  35
ATOM     35  O   LIG A   1      -8.884   2.310 133.383  0.00  0.00    -0.465 OA
ATOM     36  C   LIG A   1      -9.217   3.665 133.694  0.00  0.00    +0.280 C 
ENDBRANCH  33  35
ENDBRANCH  32  33
ENDBRANCH   6  31
BRANCH  13  37
ATOM     37  O   LIG A   1      -5.975   1.307 127.782  0.00  0.00    -0.461 OA
BRANCH  37  38
ATOM     38  C   LIG A   1      -5.233   0.323 128.351  0.00  0.00    +0.304 C 
ATOM     39  C   LIG A   1      -4.498   0.864 129.546  0.00  0.00    +0.136 C 
ATOM     40  O   LIG A   1      -5.251  -0.852 128.021  0.00  0.00    -0.251 OA
ENDBRANCH  37  38
ENDBRANCH  13  37
TORSDOF 6
ENDMDL
MODEL 6
REMARK VINA RESULT:      -8.0      2.849      7.056
REMARK  Name = NuBBE_1335
REMARK  12 active torsions:
REMARK  status: ('A' for Active; 'I' for Inactive)
REMARK    1  A    between atoms: C_1  and  C_2
REMARK    2  A    between atoms: C_2  and  C_3
REMARK    3  A    between atoms: C_6  and  C_7
REMARK    4  A    between atoms: C_8  and  C_9
REMARK    5  A    between atoms: C_9  and  O_10
REMARK    6  A    between atoms: O_10  and  C_11
REMARK    7  A    between atoms: C_16  and  C_17
REMARK    8  A    between atoms: C_19  and  O_21
REMARK    9  A    between atoms: O_21  and  C_22
REMARK   10  A    between atoms: C_22  and  C_23
REMARK   11  A    between atoms: C_26  and  C_27
REMARK   12  A    between atoms: C_34  and  C_36
REMARK                            x       y       z     vdW  Elec       q    Type
REMARK                         _______ _______ _______ _____ _____    ______ ____
ROOT
ATOM      1  C   LIG A   1      -5.926   5.800 133.933  0.00  0.00    +0.056 C 
ATOM      2  C   LIG A   1      -5.659   5.428 132.463  0.00  0.00    +0.113 C 
ATOM      3  C   LIG A   1      -5.860   6.712 131.640  0.00  0.00    +0.056 C 
ATOM      4  O   LIG A   1      -4.288   5.008 132.354  0.00  0.00    -0.458 OA
ATOM      5  C   LIG A   1      -4.154   3.986 131.454  0.00  0.00    +0.319 C 
ATOM      6  C   LIG A   1      -5.507   3.603 130.845  0.00  0.00    +0.100 C 
ATOM      7  C   LIG A   1      -6.451   4.204 131.920  0.00  0.00    +0.060 C 
ATOM      8  C   LIG A   1      -6.842   3.230 133.061  0.00  0.00    +0.083 C 
ATOM      9  C   LIG A   1      -6.927   1.747 132.747  0.00  0.00    +0.143 C 
ATOM     10  C   LIG A   1      -5.826   1.162 131.876  0.00  0.00    +0.066 C 
ATOM     11  C   LIG A   1      -4.543   1.250 132.756  0.00  0.00    +0.022 C 
ATOM     12  C   LIG A   1      -5.708   2.055 130.592  0.00  0.00    +0.067 C 
ATOM     13  C   LIG A   1      -6.938   1.784 129.660  0.00  0.00    +0.183 C 
ATOM     14  C   LIG A   1      -6.920   0.325 129.185  0.00  0.00    +0.058 C 
ATOM     15  C   LIG A   1      -7.033  -0.721 130.313  0.00  0.00    +0.045 C 
ATOM     16  C   LIG A   1      -8.502  -0.836 130.799  0.00  0.00    +0.018 C 
ATOM     17  C   LIG A   1      -6.082  -0.338 131.473  0.00  0.00    +0.129 C 
ATOM     18  O   LIG A   1      -4.827  -1.055 131.451  0.00  0.00    -0.351 OA
ATOM     19  C   LIG A   1      -5.794  -1.501 132.408  0.00  0.00    +0.260 C 
ATOM     20  C   LIG A   1      -6.304  -2.870 132.138  0.00  0.00    +0.340 C 
ATOM     21  O   LIG A   1      -6.699  -3.142 130.859  0.00  0.00    -0.454 OA
ATOM     22  C   LIG A   1      -6.581  -2.155 129.799  0.00  0.00    +0.218 C 
ATOM     23  O   LIG A   1      -6.382  -3.691 133.033  0.00  0.00    -0.248 OA
ATOM     24  O   LIG A   1      -7.762   1.041 133.312  0.00  0.00    -0.297 OA
ATOM     25  O   LIG A   1      -3.081   3.469 131.180  0.00  0.00    -0.250 OA
ENDROOT
BRANCH  22  26
ATOM     26  C   LIG A   1      -7.305  -2.660 128.576  0.00  0.00    +0.031 A 
ATOM     27  C   LIG A   1      -7.014  -2.386 127.253  0.00  0.00    +0.202 A 
ATOM     28  O   LIG A   1      -7.904  -2.984 126.423  0.00  0.00    -0.471 OA
ATOM     29  C   LIG A   1      -8.800  -3.633 127.205  0.00  0.00    +0.195 A 
ATOM     30  C   LIG A   1      -8.489  -3.458 128.533  0.00  0.00    +0.048 A 
ENDBRANCH  22  26
BRANCH   6  31
ATOM     31  C   LIG A   1      -5.521   4.342 129.488  0.00  0.00    -0.001 C 
ATOM     32  C   LIG A   1      -4.433   4.509 128.701  0.00  0.00    +0.088 C 
BRANCH  32  33
ATOM     33  C   LIG A   1      -4.506   5.083 127.339  0.00  0.00    +0.331 C 
ATOM     34  O   LIG A   1      -4.691   4.476 126.297  0.00  0.00    -0.246 OA
BRANCH  33  35
ATOM     35  O   LIG A   1      -4.244   6.417 127.495  0.00  0.00    -0.465 OA
ATOM     36  C   LIG A   1      -3.002   6.742 128.125  0.00  0.00    +0.280 C 
ENDBRANCH  33  35
ENDBRANCH  32  33
ENDBRANCH   6  31
BRANCH  13  37
ATOM     37  O   LIG A   1      -8.141   2.054 130.403  0.00  0.00    -0.461 OA
BRANCH  37  38
ATOM     38  C   LIG A   1      -9.120   2.832 129.877  0.00  0.00    +0.304 C 
ATOM     39  C   LIG A   1     -10.184   3.082 130.911  0.00  0.00    +0.136 C 
ATOM     40  O   LIG A   1      -9.090   3.353 128.774  0.00  0.00    -0.251 OA
ENDBRANCH  37  38
ENDBRANCH  13  37
TORSDOF 6
ENDMDL
MODEL 7
REMARK VINA RESULT:      -7.7      1.736      7.785
REMARK  Name = NuBBE_1335
REMARK  12 active torsions:
REMARK  status: ('A' for Active; 'I' for Inactive)
REMARK    1  A    between atoms: C_1  and  C_2
REMARK    2  A    between atoms: C_2  and  C_3
REMARK    3  A    between atoms: C_6  and  C_7
REMARK    4  A    between atoms: C_8  and  C_9
REMARK    5  A    between atoms: C_9  and  O_10
REMARK    6  A    between atoms: O_10  and  C_11
REMARK    7  A    between atoms: C_16  and  C_17
REMARK    8  A    between atoms: C_19  and  O_21
REMARK    9  A    between atoms: O_21  and  C_22
REMARK   10  A    between atoms: C_22  and  C_23
REMARK   11  A    between atoms: C_26  and  C_27
REMARK   12  A    between atoms: C_34  and  C_36
REMARK                            x       y       z     vdW  Elec       q    Type
REMARK                         _______ _______ _______ _____ _____    ______ ____
ROOT
ATOM      1  C   LIG A   1      -5.380   2.652 133.753  0.00  0.00    +0.056 C 
ATOM      2  C   LIG A   1      -6.280   1.448 133.422  0.00  0.00    +0.113 C 
ATOM      3  C   LIG A   1      -6.077   0.423 134.551  0.00  0.00    +0.056 C 
ATOM      4  O   LIG A   1      -7.645   1.898 133.433  0.00  0.00    -0.458 OA
ATOM      5  C   LIG A   1      -8.381   1.270 132.465  0.00  0.00    +0.319 C 
ATOM      6  C   LIG A   1      -7.521   0.285 131.667  0.00  0.00    +0.100 C 
ATOM      7  C   LIG A   1      -6.113   0.850 131.995  0.00  0.00    +0.060 C 
ATOM      8  C   LIG A   1      -5.587   1.910 130.994  0.00  0.00    +0.083 C 
ATOM      9  C   LIG A   1      -6.026   1.815 129.544  0.00  0.00    +0.143 C 
ATOM     10  C   LIG A   1      -7.490   1.492 129.286  0.00  0.00    +0.066 C 
ATOM     11  C   LIG A   1      -8.263   2.746 129.793  0.00  0.00    +0.022 C 
ATOM     12  C   LIG A   1      -7.851   0.214 130.122  0.00  0.00    +0.067 C 
ATOM     13  C   LIG A   1      -7.194  -1.041 129.455  0.00  0.00    +0.183 C 
ATOM     14  C   LIG A   1      -7.780  -1.253 128.052  0.00  0.00    +0.058 C 
ATOM     15  C   LIG A   1      -7.524  -0.095 127.066  0.00  0.00    +0.045 C 
ATOM     16  C   LIG A   1      -6.069  -0.151 126.531  0.00  0.00    +0.018 C 
ATOM     17  C   LIG A   1      -7.818   1.255 127.765  0.00  0.00    +0.129 C 
ATOM     18  O   LIG A   1      -9.126   1.790 127.461  0.00  0.00    -0.351 OA
ATOM     19  C   LIG A   1      -8.022   2.396 126.781  0.00  0.00    +0.260 C 
ATOM     20  C   LIG A   1      -8.038   2.172 125.312  0.00  0.00    +0.340 C 
ATOM     21  O   LIG A   1      -8.253   0.893 124.883  0.00  0.00    -0.454 OA
ATOM     22  C   LIG A   1      -8.502  -0.191 125.817  0.00  0.00    +0.218 C 
ATOM     23  O   LIG A   1      -7.842   3.094 124.542  0.00  0.00    -0.248 OA
ATOM     24  O   LIG A   1      -5.258   2.146 128.641  0.00  0.00    -0.297 OA
ATOM     25  O   LIG A   1      -9.572   1.477 132.288  0.00  0.00    -0.250 OA
ENDROOT
BRANCH  22  26
ATOM     26  C   LIG A   1      -8.466  -1.500 125.070  0.00  0.00    +0.031 A 
ATOM     27  C   LIG A   1      -7.751  -1.796 123.925  0.00  0.00    +0.202 A 
ATOM     28  O   LIG A   1      -7.991  -3.065 123.511  0.00  0.00    -0.471 OA
ATOM     29  C   LIG A   1      -8.889  -3.598 124.376  0.00  0.00    +0.195 A 
ATOM     30  C   LIG A   1      -9.224  -2.680 125.343  0.00  0.00    +0.048 A 
ENDBRANCH  22  26
BRANCH   6  31
ATOM     31  C   LIG A   1      -7.833  -1.083 132.313  0.00  0.00    -0.001 C 
ATOM     32  C   LIG A   1      -6.907  -2.036 132.562  0.00  0.00    +0.088 C 
BRANCH  32  33
ATOM     33  C   LIG A   1      -7.207  -3.272 133.320  0.00  0.00    +0.331 C 
ATOM     34  O   LIG A   1      -8.271  -3.574 133.836  0.00  0.00    -0.246 OA
BRANCH  33  35
ATOM     35  O   LIG A   1      -6.023  -3.955 133.381  0.00  0.00    -0.465 OA
ATOM     36  C   LIG A   1      -5.579  -4.551 132.160  0.00  0.00    +0.280 C 
ENDBRANCH  33  35
ENDBRANCH  32  33
ENDBRANCH   6  31
BRANCH  13  37
ATOM     37  O   LIG A   1      -5.773  -0.825 129.376  0.00  0.00    -0.461 OA
BRANCH  37  38
ATOM     38  C   LIG A   1      -4.906  -1.862 129.501  0.00  0.00    +0.304 C 
ATOM     39  C   LIG A   1      -3.783  -1.479 130.425  0.00  0.00    +0.136 C 
ATOM     40  O   LIG A   1      -5.071  -2.977 129.034  0.00  0.00    -0.251 OA
ENDBRANCH  37  38
ENDBRANCH  13  37
TORSDOF 6
ENDMDL
MODEL 8
REMARK VINA RESULT:      -7.7      3.127      6.331
REMARK  Name = NuBBE_1335
REMARK  12 active torsions:
REMARK  status: ('A' for Active; 'I' for Inactive)
REMARK    1  A    between atoms: C_1  and  C_2
REMARK    2  A    between atoms: C_2  and  C_3
REMARK    3  A    between atoms: C_6  and  C_7
REMARK    4  A    between atoms: C_8  and  C_9
REMARK    5  A    between atoms: C_9  and  O_10
REMARK    6  A    between atoms: O_10  and  C_11
REMARK    7  A    between atoms: C_16  and  C_17
REMARK    8  A    between atoms: C_19  and  O_21
REMARK    9  A    between atoms: O_21  and  C_22
REMARK   10  A    between atoms: C_22  and  C_23
REMARK   11  A    between atoms: C_26  and  C_27
REMARK   12  A    between atoms: C_34  and  C_36
REMARK                            x       y       z     vdW  Elec       q    Type
REMARK                         _______ _______ _______ _____ _____    ______ ____
ROOT
ATOM      1  C   LIG A   1      -8.883   1.455 123.977  0.00  0.00    +0.056 C 
ATOM      2  C   LIG A   1      -8.358   0.702 125.213  0.00  0.00    +0.113 C 
ATOM      3  C   LIG A   1      -9.401  -0.379 125.545  0.00  0.00    +0.056 C 
ATOM      4  O   LIG A   1      -7.120   0.066 124.852  0.00  0.00    -0.458 OA
ATOM      5  C   LIG A   1      -6.232   0.085 125.893  0.00  0.00    +0.319 C 
ATOM      6  C   LIG A   1      -6.832   0.781 127.120  0.00  0.00    +0.100 C 
ATOM      7  C   LIG A   1      -7.963   1.588 126.429  0.00  0.00    +0.060 C 
ATOM      8  C   LIG A   1      -7.564   3.018 125.982  0.00  0.00    +0.083 C 
ATOM      9  C   LIG A   1      -6.512   3.759 126.789  0.00  0.00    +0.143 C 
ATOM     10  C   LIG A   1      -5.297   2.961 127.236  0.00  0.00    +0.066 C 
ATOM     11  C   LIG A   1      -4.540   2.628 125.916  0.00  0.00    +0.022 C 
ATOM     12  C   LIG A   1      -5.814   1.662 127.948  0.00  0.00    +0.067 C 
ATOM     13  C   LIG A   1      -6.398   2.042 129.352  0.00  0.00    +0.183 C 
ATOM     14  C   LIG A   1      -5.287   2.618 130.239  0.00  0.00    +0.058 C 
ATOM     15  C   LIG A   1      -4.646   3.916 129.708  0.00  0.00    +0.045 C 
ATOM     16  C   LIG A   1      -5.574   5.129 129.981  0.00  0.00    +0.018 C 
ATOM     17  C   LIG A   1      -4.344   3.764 128.197  0.00  0.00    +0.129 C 
ATOM     18  O   LIG A   1      -2.968   3.420 127.916  0.00  0.00    -0.351 OA
ATOM     19  C   LIG A   1      -3.337   4.785 127.692  0.00  0.00    +0.260 C 
ATOM     20  C   LIG A   1      -2.658   5.738 128.608  0.00  0.00    +0.340 C 
ATOM     21  O   LIG A   1      -2.662   5.427 129.938  0.00  0.00    -0.454 OA
ATOM     22  C   LIG A   1      -3.259   4.198 130.431  0.00  0.00    +0.218 C 
ATOM     23  O   LIG A   1      -2.149   6.756 128.177  0.00  0.00    -0.248 OA
ATOM     24  O   LIG A   1      -6.582   4.980 126.923  0.00  0.00    -0.297 OA
ATOM     25  O   LIG A   1      -5.115  -0.407 125.832  0.00  0.00    -0.250 OA
ENDROOT
BRANCH  22  26
ATOM     26  C   LIG A   1      -3.316   4.250 131.937  0.00  0.00    +0.031 A 
ATOM     27  C   LIG A   1      -3.440   5.371 132.736  0.00  0.00    +0.202 A 
ATOM     28  O   LIG A   1      -3.419   5.039 134.051  0.00  0.00    -0.471 OA
ATOM     29  C   LIG A   1      -3.256   3.695 134.116  0.00  0.00    +0.195 A 
ATOM     30  C   LIG A   1      -3.174   3.162 132.852  0.00  0.00    +0.048 A 
ENDBRANCH  22  26
BRANCH   6  31
ATOM     31  C   LIG A   1      -7.321  -0.388 128.003  0.00  0.00    -0.001 C 
ATOM     32  C   LIG A   1      -6.526  -1.387 128.451  0.00  0.00    +0.088 C 
BRANCH  32  33
ATOM     33  C   LIG A   1      -6.986  -2.408 129.420  0.00  0.00    +0.331 C 
ATOM     34  O   LIG A   1      -8.141  -2.671 129.714  0.00  0.00    -0.246 OA
BRANCH  33  35
ATOM     35  O   LIG A   1      -5.844  -2.929 129.964  0.00  0.00    -0.465 OA
ATOM     36  C   LIG A   1      -5.916  -4.295 130.382  0.00  0.00    +0.280 C 
ENDBRANCH  33  35
ENDBRANCH  32  33
ENDBRANCH   6  31
BRANCH  13  37
ATOM     37  O   LIG A   1      -7.443   3.013 129.163  0.00  0.00    -0.461 OA
BRANCH  37  38
ATOM     38  C   LIG A   1      -8.677   2.815 129.692  0.00  0.00    +0.304 C 
ATOM     39  C   LIG A   1      -8.657   1.615 130.600  0.00  0.00    +0.136 C 
ATOM     40  O   LIG A   1      -9.631   3.563 129.553  0.00  0.00    -0.251 OA
ENDBRANCH  37  38
ENDBRANCH  13  37
TORSDOF 6
ENDMDL
MODEL 9
REMARK VINA RESULT:      -7.5      2.453      5.523
REMARK  Name = NuBBE_1335
REMARK  12 active torsions:
REMARK  status: ('A' for Active; 'I' for Inactive)
REMARK    1  A    between atoms: C_1  and  C_2
REMARK    2  A    between atoms: C_2  and  C_3
REMARK    3  A    between atoms: C_6  and  C_7
REMARK    4  A    between atoms: C_8  and  C_9
REMARK    5  A    between atoms: C_9  and  O_10
REMARK    6  A    between atoms: O_10  and  C_11
REMARK    7  A    between atoms: C_16  and  C_17
REMARK    8  A    between atoms: C_19  and  O_21
REMARK    9  A    between atoms: O_21  and  C_22
REMARK   10  A    between atoms: C_22  and  C_23
REMARK   11  A    between atoms: C_26  and  C_27
REMARK   12  A    between atoms: C_34  and  C_36
REMARK                            x       y       z     vdW  Elec       q    Type
REMARK                         _______ _______ _______ _____ _____    ______ ____
ROOT
ATOM      1  C   LIG A   1      -3.763  -3.586 131.783  0.00  0.00    +0.056 C 
ATOM      2  C   LIG A   1      -5.217  -3.361 131.332  0.00  0.00    +0.113 C 
ATOM      3  C   LIG A   1      -5.525  -4.442 130.281  0.00  0.00    +0.056 C 
ATOM      4  O   LIG A   1      -6.071  -3.556 132.472  0.00  0.00    -0.458 OA
ATOM      5  C   LIG A   1      -7.126  -2.685 132.455  0.00  0.00    +0.319 C 
ATOM      6  C   LIG A   1      -7.069  -1.770 131.227  0.00  0.00    +0.100 C 
ATOM      7  C   LIG A   1      -5.567  -1.918 130.867  0.00  0.00    +0.060 C 
ATOM      8  C   LIG A   1      -4.633  -0.869 131.524  0.00  0.00    +0.083 C 
ATOM      9  C   LIG A   1      -5.190   0.512 131.816  0.00  0.00    +0.143 C 
ATOM     10  C   LIG A   1      -6.593   0.580 132.401  0.00  0.00    +0.066 C 
ATOM     11  C   LIG A   1      -6.454  -0.038 133.824  0.00  0.00    +0.022 C 
ATOM     12  C   LIG A   1      -7.534  -0.281 131.486  0.00  0.00    +0.067 C 
ATOM     13  C   LIG A   1      -7.783   0.482 130.141  0.00  0.00    +0.183 C 
ATOM     14  C   LIG A   1      -8.522   1.798 130.417  0.00  0.00    +0.058 C 
ATOM     15  C   LIG A   1      -7.750   2.795 131.305  0.00  0.00    +0.045 C 
ATOM     16  C   LIG A   1      -6.652   3.517 130.481  0.00  0.00    +0.018 C 
ATOM     17  C   LIG A   1      -7.148   2.049 132.520  0.00  0.00    +0.129 C 
ATOM     18  O   LIG A   1      -7.938   2.172 133.724  0.00  0.00    -0.351 OA
ATOM     19  C   LIG A   1      -6.760   2.984 133.654  0.00  0.00    +0.260 C 
ATOM     20  C   LIG A   1      -7.049   4.440 133.604  0.00  0.00    +0.340 C 
ATOM     21  O   LIG A   1      -7.998   4.853 132.712  0.00  0.00    -0.454 OA
ATOM     22  C   LIG A   1      -8.727   3.907 131.885  0.00  0.00    +0.218 C 
ATOM     23  O   LIG A   1      -6.440   5.218 134.314  0.00  0.00    -0.248 OA
ATOM     24  O   LIG A   1      -4.466   1.504 131.729  0.00  0.00    -0.297 OA
ATOM     25  O   LIG A   1      -7.996  -2.667 133.313  0.00  0.00    -0.250 OA
ENDROOT
BRANCH  22  26
ATOM     26  C   LIG A   1      -9.521   4.668 130.853  0.00  0.00    +0.031 A 
ATOM     27  C   LIG A   1     -10.813   4.418 130.433  0.00  0.00    +0.202 A 
ATOM     28  O   LIG A   1     -11.189   5.286 129.461  0.00  0.00    -0.471 OA
ATOM     29  C   LIG A   1     -10.129   6.097 129.225  0.00  0.00    +0.195 A 
ATOM     30  C   LIG A   1      -9.076   5.755 130.040  0.00  0.00    +0.048 A 
ENDBRANCH  22  26
BRANCH   6  31
ATOM     31  C   LIG A   1      -8.041  -2.434 130.228  0.00  0.00    -0.001 C 
ATOM     32  C   LIG A   1      -7.748  -2.679 128.930  0.00  0.00    +0.088 C 
BRANCH  32  33
ATOM     33  C   LIG A   1      -8.638  -3.454 128.036  0.00  0.00    +0.331 C 
ATOM     34  O   LIG A   1      -9.526  -4.220 128.372  0.00  0.00    -0.246 OA
BRANCH  33  35
ATOM     35  O   LIG A   1      -8.197  -3.187 126.769  0.00  0.00    -0.465 OA
ATOM     36  C   LIG A   1      -8.623  -1.944 126.206  0.00  0.00    +0.280 C 
ENDBRANCH  33  35
ENDBRANCH  32  33
ENDBRANCH   6  31
BRANCH  13  37
ATOM     37  O   LIG A   1      -6.511   0.742 129.521  0.00  0.00    -0.461 OA
BRANCH  37  38
ATOM     38  C   LIG A   1      -6.310   0.469 128.207  0.00  0.00    +0.304 C 
ATOM     39  C   LIG A   1      -7.206   1.336 127.364  0.00  0.00    +0.136 C 
ATOM     40  O   LIG A   1      -5.451  -0.275 127.766  0.00  0.00    -0.251 OA
ENDBRANCH  37  38
ENDBRANCH  13  37
TORSDOF 6
ENDMDL
