MODEL 1
REMARK VINA RESULT:      -8.9      0.000      0.000
REMARK  Name = NuBBE_1004
REMARK  10 active torsions:
REMARK  status: ('A' for Active; 'I' for Inactive)
REMARK    1  A    between atoms: C_1  and  C_2
REMARK    2  A    between atoms: C_2  and  C_3
REMARK    3  A    between atoms: C_2  and  C_33
REMARK    4  A    between atoms: C_3  and  C_5
REMARK    5  A    between atoms: C_3  and  C_32
REMARK    6  A    between atoms: C_6  and  C_7
REMARK    7  A    between atoms: C_7  and  C_9
REMARK    8  A    between atoms: C_7  and  C_31
REMARK    9  A    between atoms: C_21  and  C_28
REMARK   10  A    between atoms: C_25  and  C_26
REMARK                            x       y       z     vdW  Elec       q    Type
REMARK                         _______ _______ _______ _____ _____    ______ ____
ROOT
ATOM      1  C   LIG A   1      -7.043  -1.283 128.200  0.00  0.00    +0.006 C 
ATOM      2  C   LIG A   1      -5.663  -1.654 127.604  0.00  0.00    +0.009 C 
ATOM      3  C   LIG A   1      -5.437  -0.685 126.457  0.00  0.00    +0.032 C 
ATOM      4  C   LIG A   1      -5.957   0.580 127.071  0.00  0.00    -0.060 C 
ATOM      5  C   LIG A   1      -5.346   1.780 127.093  0.00  0.00    -0.044 C 
ATOM      6  C   LIG A   1      -4.159   2.049 126.306  0.00  0.00    +0.004 C 
ATOM      7  C   LIG A   1      -3.299   3.029 126.597  0.00  0.00    +0.004 C 
ATOM      8  C   LIG A   1      -3.440   3.893 127.754  0.00  0.00    -0.038 C 
ATOM      9  C   LIG A   1      -2.554   4.885 127.942  0.00  0.00    +0.050 C 
ATOM     10  C   LIG A   1      -2.665   5.812 129.093  0.00  0.00    +0.156 C 
ATOM     11  C   LIG A   1      -3.917   5.779 129.939  0.00  0.00    +0.080 C 
ATOM     12  C   LIG A   1      -5.055   5.009 129.274  0.00  0.00    +0.019 C 
ATOM     13  C   LIG A   1      -4.613   3.629 128.714  0.00  0.00    +0.000 C 
ATOM     14  C   LIG A   1      -5.823   2.951 127.958  0.00  0.00    +0.029 C 
ATOM     15  C   LIG A   1      -7.007   2.587 128.901  0.00  0.00    +0.010 C 
ATOM     16  C   LIG A   1      -7.140   1.086 129.189  0.00  0.00    +0.012 C 
ATOM     17  C   LIG A   1      -7.199   0.255 127.889  0.00  0.00    -0.007 C 
ATOM     18  C   LIG A   1      -8.424   0.695 127.072  0.00  0.00    +0.016 C 
ATOM     19  C   LIG A   1      -4.113   2.718 129.863  0.00  0.00    +0.016 C 
ATOM     20  O   LIG A   1      -1.735   6.565 129.345  0.00  0.00    -0.293 OA
ENDROOT
BRANCH   1  21
ATOM     21  C   LIG A   1      -8.125  -2.340 127.813  0.00  0.00    +0.012 C 
ATOM     22  C   LIG A   1      -8.412  -3.446 128.836  0.00  0.00    +0.012 C 
BRANCH  21  24
ATOM     23  C   LIG A   1      -8.504  -2.467 125.309  0.00  0.00    -0.027 C 
ATOM     24  C   LIG A   1      -7.905  -2.919 126.428  0.00  0.00    -0.027 C 
BRANCH  23  25
ATOM     25  C   LIG A   1      -8.252  -3.042 123.922  0.00  0.00    +0.011 C 
ATOM     26  C   LIG A   1      -9.601  -3.289 123.233  0.00  0.00    +0.012 C 
BRANCH  25  28
ATOM     27  C   LIG A   1      -5.823  -2.474 123.260  0.00  0.00    +0.008 C 
ATOM     28  C   LIG A   1      -7.310  -2.130 123.080  0.00  0.00    -0.011 C 
ATOM     29  C   LIG A   1      -7.507  -0.645 123.415  0.00  0.00    +0.008 C 
ENDBRANCH  25  28
ENDBRANCH  23  25
ENDBRANCH  21  24
ENDBRANCH   1  21
TORSDOF 4
ENDMDL
MODEL 2
REMARK VINA RESULT:      -7.9      5.410      7.928
REMARK  Name = NuBBE_1004
REMARK  10 active torsions:
REMARK  status: ('A' for Active; 'I' for Inactive)
REMARK    1  A    between atoms: C_1  and  C_2
REMARK    2  A    between atoms: C_2  and  C_3
REMARK    3  A    between atoms: C_2  and  C_33
REMARK    4  A    between atoms: C_3  and  C_5
REMARK    5  A    between atoms: C_3  and  C_32
REMARK    6  A    between atoms: C_6  and  C_7
REMARK    7  A    between atoms: C_7  and  C_9
REMARK    8  A    between atoms: C_7  and  C_31
REMARK    9  A    between atoms: C_21  and  C_28
REMARK   10  A    between atoms: C_25  and  C_26
REMARK                            x       y       z     vdW  Elec       q    Type
REMARK                         _______ _______ _______ _____ _____    ______ ____
ROOT
ATOM      1  C   LIG A   1      -7.510  -2.006 129.564  0.00  0.00    +0.006 C 
ATOM      2  C   LIG A   1      -7.536  -3.539 129.351  0.00  0.00    +0.009 C 
ATOM      3  C   LIG A   1      -6.265  -4.064 129.994  0.00  0.00    +0.032 C 
ATOM      4  C   LIG A   1      -6.228  -3.224 131.236  0.00  0.00    -0.060 C 
ATOM      5  C   LIG A   1      -6.041  -3.654 132.499  0.00  0.00    -0.044 C 
ATOM      6  C   LIG A   1      -5.624  -5.011 132.792  0.00  0.00    +0.004 C 
ATOM      7  C   LIG A   1      -5.828  -5.595 133.976  0.00  0.00    +0.004 C 
ATOM      8  C   LIG A   1      -6.526  -4.950 135.072  0.00  0.00    -0.038 C 
ATOM      9  C   LIG A   1      -6.643  -5.595 136.244  0.00  0.00    +0.050 C 
ATOM     10  C   LIG A   1      -7.323  -4.972 137.404  0.00  0.00    +0.156 C 
ATOM     11  C   LIG A   1      -7.693  -3.509 137.334  0.00  0.00    +0.080 C 
ATOM     12  C   LIG A   1      -7.001  -2.782 136.185  0.00  0.00    +0.019 C 
ATOM     13  C   LIG A   1      -7.099  -3.543 134.833  0.00  0.00    +0.000 C 
ATOM     14  C   LIG A   1      -6.272  -2.772 133.730  0.00  0.00    +0.029 C 
ATOM     15  C   LIG A   1      -6.860  -1.370 133.391  0.00  0.00    +0.010 C 
ATOM     16  C   LIG A   1      -7.573  -1.302 132.035  0.00  0.00    +0.012 C 
ATOM     17  C   LIG A   1      -6.674  -1.812 130.887  0.00  0.00    -0.007 C 
ATOM     18  C   LIG A   1      -5.416  -0.931 130.811  0.00  0.00    +0.016 C 
ATOM     19  C   LIG A   1      -8.581  -3.681 134.402  0.00  0.00    +0.016 C 
ATOM     20  O   LIG A   1      -7.590  -5.660 138.380  0.00  0.00    -0.293 OA
ENDROOT
BRANCH   1  21
ATOM     21  C   LIG A   1      -7.177  -1.259 128.234  0.00  0.00    +0.012 C 
ATOM     22  C   LIG A   1      -7.923   0.055 127.970  0.00  0.00    +0.012 C 
BRANCH  21  24
ATOM     23  C   LIG A   1      -6.358  -2.131 125.998  0.00  0.00    -0.027 C 
ATOM     24  C   LIG A   1      -7.231  -2.172 127.024  0.00  0.00    -0.027 C 
BRANCH  23  25
ATOM     25  C   LIG A   1      -6.411  -3.073 124.803  0.00  0.00    +0.011 C 
ATOM     26  C   LIG A   1      -7.819  -3.027 124.195  0.00  0.00    +0.012 C 
BRANCH  25  28
ATOM     27  C   LIG A   1      -5.862  -2.233 122.425  0.00  0.00    +0.008 C 
ATOM     28  C   LIG A   1      -5.300  -2.747 123.760  0.00  0.00    -0.011 C 
ATOM     29  C   LIG A   1      -4.414  -3.967 123.473  0.00  0.00    +0.008 C 
ENDBRANCH  25  28
ENDBRANCH  23  25
ENDBRANCH  21  24
ENDBRANCH   1  21
TORSDOF 4
ENDMDL
MODEL 3
REMARK VINA RESULT:      -7.9      4.715      8.494
REMARK  Name = NuBBE_1004
REMARK  10 active torsions:
REMARK  status: ('A' for Active; 'I' for Inactive)
REMARK    1  A    between atoms: C_1  and  C_2
REMARK    2  A    between atoms: C_2  and  C_3
REMARK    3  A    between atoms: C_2  and  C_33
REMARK    4  A    between atoms: C_3  and  C_5
REMARK    5  A    between atoms: C_3  and  C_32
REMARK    6  A    between atoms: C_6  and  C_7
REMARK    7  A    between atoms: C_7  and  C_9
REMARK    8  A    between atoms: C_7  and  C_31
REMARK    9  A    between atoms: C_21  and  C_28
REMARK   10  A    between atoms: C_25  and  C_26
REMARK                            x       y       z     vdW  Elec       q    Type
REMARK                         _______ _______ _______ _____ _____    ______ ____
ROOT
ATOM      1  C   LIG A   1      -4.629  -1.888 131.386  0.00  0.00    +0.006 C 
ATOM      2  C   LIG A   1      -4.848  -3.413 131.233  0.00  0.00    +0.009 C 
ATOM      3  C   LIG A   1      -6.352  -3.616 131.262  0.00  0.00    +0.032 C 
ATOM      4  C   LIG A   1      -6.795  -2.451 130.429  0.00  0.00    -0.060 C 
ATOM      5  C   LIG A   1      -7.660  -2.475 129.396  0.00  0.00    -0.044 C 
ATOM      6  C   LIG A   1      -8.458  -3.646 129.095  0.00  0.00    +0.004 C 
ATOM      7  C   LIG A   1      -8.989  -3.875 127.890  0.00  0.00    +0.004 C 
ATOM      8  C   LIG A   1      -8.782  -3.001 126.751  0.00  0.00    -0.038 C 
ATOM      9  C   LIG A   1      -9.395  -3.284 125.589  0.00  0.00    +0.050 C 
ATOM     10  C   LIG A   1      -9.239  -2.411 124.402  0.00  0.00    +0.156 C 
ATOM     11  C   LIG A   1      -8.563  -1.069 124.565  0.00  0.00    +0.080 C 
ATOM     12  C   LIG A   1      -8.431  -0.652 126.027  0.00  0.00    +0.019 C 
ATOM     13  C   LIG A   1      -7.866  -1.780 126.936  0.00  0.00    +0.000 C 
ATOM     14  C   LIG A   1      -7.860  -1.296 128.439  0.00  0.00    +0.029 C 
ATOM     15  C   LIG A   1      -6.884  -0.110 128.698  0.00  0.00    +0.010 C 
ATOM     16  C   LIG A   1      -5.610  -0.503 129.457  0.00  0.00    +0.012 C 
ATOM     17  C   LIG A   1      -5.932  -1.246 130.772  0.00  0.00    -0.007 C 
ATOM     18  C   LIG A   1      -6.761  -0.320 131.677  0.00  0.00    +0.016 C 
ATOM     19  C   LIG A   1      -6.435  -2.165 126.485  0.00  0.00    +0.016 C 
ATOM     20  O   LIG A   1      -9.639  -2.804 123.315  0.00  0.00    -0.293 OA
ENDROOT
BRANCH   1  21
ATOM     21  C   LIG A   1      -4.100  -1.536 132.813  0.00  0.00    +0.012 C 
ATOM     22  C   LIG A   1      -2.583  -1.374 132.970  0.00  0.00    +0.012 C 
BRANCH  21  24
ATOM     23  C   LIG A   1      -5.641  -2.095 134.747  0.00  0.00    -0.027 C 
ATOM     24  C   LIG A   1      -4.668  -2.446 133.885  0.00  0.00    -0.027 C 
BRANCH  23  25
ATOM     25  C   LIG A   1      -6.219  -3.030 135.801  0.00  0.00    +0.011 C 
ATOM     26  C   LIG A   1      -6.726  -2.194 136.983  0.00  0.00    +0.012 C 
BRANCH  25  28
ATOM     27  C   LIG A   1      -6.753  -5.222 134.548  0.00  0.00    +0.008 C 
ATOM     28  C   LIG A   1      -7.323  -3.958 135.209  0.00  0.00    -0.011 C 
ATOM     29  C   LIG A   1      -8.191  -3.223 134.178  0.00  0.00    +0.008 C 
ENDBRANCH  25  28
ENDBRANCH  23  25
ENDBRANCH  21  24
ENDBRANCH   1  21
TORSDOF 4
ENDMDL
MODEL 4
REMARK VINA RESULT:      -7.7      1.085      2.316
REMARK  Name = NuBBE_1004
REMARK  10 active torsions:
REMARK  status: ('A' for Active; 'I' for Inactive)
REMARK    1  A    between atoms: C_1  and  C_2
REMARK    2  A    between atoms: C_2  and  C_3
REMARK    3  A    between atoms: C_2  and  C_33
REMARK    4  A    between atoms: C_3  and  C_5
REMARK    5  A    between atoms: C_3  and  C_32
REMARK    6  A    between atoms: C_6  and  C_7
REMARK    7  A    between atoms: C_7  and  C_9
REMARK    8  A    between atoms: C_7  and  C_31
REMARK    9  A    between atoms: C_21  and  C_28
REMARK   10  A    between atoms: C_25  and  C_26
REMARK                            x       y       z     vdW  Elec       q    Type
REMARK                         _______ _______ _______ _____ _____    ______ ____
ROOT
ATOM      1  C   LIG A   1      -7.723  -1.077 128.462  0.00  0.00    +0.006 C 
ATOM      2  C   LIG A   1      -7.952  -0.649 129.932  0.00  0.00    +0.009 C 
ATOM      3  C   LIG A   1      -6.579  -0.652 130.580  0.00  0.00    +0.032 C 
ATOM      4  C   LIG A   1      -5.763  -0.050 129.476  0.00  0.00    -0.060 C 
ATOM      5  C   LIG A   1      -4.880   0.962 129.581  0.00  0.00    -0.044 C 
ATOM      6  C   LIG A   1      -4.444   1.467 130.867  0.00  0.00    +0.004 C 
ATOM      7  C   LIG A   1      -3.930   2.689 131.034  0.00  0.00    +0.004 C 
ATOM      8  C   LIG A   1      -3.799   3.650 129.955  0.00  0.00    -0.038 C 
ATOM      9  C   LIG A   1      -3.225   4.839 130.204  0.00  0.00    +0.050 C 
ATOM     10  C   LIG A   1      -3.042   5.848 129.133  0.00  0.00    +0.156 C 
ATOM     11  C   LIG A   1      -3.302   5.446 127.700  0.00  0.00    +0.080 C 
ATOM     12  C   LIG A   1      -3.397   3.934 127.522  0.00  0.00    +0.019 C 
ATOM     13  C   LIG A   1      -4.325   3.252 128.566  0.00  0.00    +0.000 C 
ATOM     14  C   LIG A   1      -4.282   1.685 128.369  0.00  0.00    +0.029 C 
ATOM     15  C   LIG A   1      -4.880   1.222 127.009  0.00  0.00    +0.010 C 
ATOM     16  C   LIG A   1      -6.258   0.557 127.125  0.00  0.00    +0.012 C 
ATOM     17  C   LIG A   1      -6.252  -0.602 128.145  0.00  0.00    -0.007 C 
ATOM     18  C   LIG A   1      -5.246  -1.668 127.682  0.00  0.00    +0.016 C 
ATOM     19  C   LIG A   1      -5.774   3.778 128.419  0.00  0.00    +0.016 C 
ATOM     20  O   LIG A   1      -2.708   6.984 129.435  0.00  0.00    -0.293 OA
ENDROOT
BRANCH   1  21
ATOM     21  C   LIG A   1      -8.212  -2.540 128.219  0.00  0.00    +0.012 C 
ATOM     22  C   LIG A   1      -7.822  -3.585 129.271  0.00  0.00    +0.012 C 
BRANCH  21  24
ATOM     23  C   LIG A   1      -8.459  -2.533 125.695  0.00  0.00    -0.027 C 
ATOM     24  C   LIG A   1      -7.905  -3.031 126.818  0.00  0.00    -0.027 C 
BRANCH  23  25
ATOM     25  C   LIG A   1      -8.119  -3.020 124.294  0.00  0.00    +0.011 C 
ATOM     26  C   LIG A   1      -9.418  -3.176 123.493  0.00  0.00    +0.012 C 
BRANCH  25  28
ATOM     27  C   LIG A   1      -5.638  -2.379 123.987  0.00  0.00    +0.008 C 
ATOM     28  C   LIG A   1      -7.092  -2.083 123.588  0.00  0.00    -0.011 C 
ATOM     29  C   LIG A   1      -7.381  -0.603 123.876  0.00  0.00    +0.008 C 
ENDBRANCH  25  28
ENDBRANCH  23  25
ENDBRANCH  21  24
ENDBRANCH   1  21
TORSDOF 4
ENDMDL
MODEL 5
REMARK VINA RESULT:      -7.7      3.738      6.489
REMARK  Name = NuBBE_1004
REMARK  10 active torsions:
REMARK  status: ('A' for Active; 'I' for Inactive)
REMARK    1  A    between atoms: C_1  and  C_2
REMARK    2  A    between atoms: C_2  and  C_3
REMARK    3  A    between atoms: C_2  and  C_33
REMARK    4  A    between atoms: C_3  and  C_5
REMARK    5  A    between atoms: C_3  and  C_32
REMARK    6  A    between atoms: C_6  and  C_7
REMARK    7  A    between atoms: C_7  and  C_9
REMARK    8  A    between atoms: C_7  and  C_31
REMARK    9  A    between atoms: C_21  and  C_28
REMARK   10  A    between atoms: C_25  and  C_26
REMARK                            x       y       z     vdW  Elec       q    Type
REMARK                         _______ _______ _______ _____ _____    ______ ____
ROOT
ATOM      1  C   LIG A   1      -7.619  -2.685 126.065  0.00  0.00    +0.006 C 
ATOM      2  C   LIG A   1      -6.120  -2.845 125.712  0.00  0.00    +0.009 C 
ATOM      3  C   LIG A   1      -5.384  -1.841 126.581  0.00  0.00    +0.032 C 
ATOM      4  C   LIG A   1      -6.135  -2.003 127.869  0.00  0.00    -0.060 C 
ATOM      5  C   LIG A   1      -5.608  -2.180 129.096  0.00  0.00    -0.044 C 
ATOM      6  C   LIG A   1      -4.191  -2.015 129.352  0.00  0.00    +0.004 C 
ATOM      7  C   LIG A   1      -3.571  -2.569 130.398  0.00  0.00    +0.004 C 
ATOM      8  C   LIG A   1      -4.241  -3.427 131.357  0.00  0.00    -0.038 C 
ATOM      9  C   LIG A   1      -3.549  -3.901 132.406  0.00  0.00    +0.050 C 
ATOM     10  C   LIG A   1      -4.190  -4.761 133.430  0.00  0.00    +0.156 C 
ATOM     11  C   LIG A   1      -5.692  -4.921 133.410  0.00  0.00    +0.080 C 
ATOM     12  C   LIG A   1      -6.382  -3.889 132.525  0.00  0.00    +0.019 C 
ATOM     13  C   LIG A   1      -5.726  -3.750 131.122  0.00  0.00    +0.000 C 
ATOM     14  C   LIG A   1      -6.438  -2.593 130.316  0.00  0.00    +0.029 C 
ATOM     15  C   LIG A   1      -7.926  -2.906 129.980  0.00  0.00    +0.010 C 
ATOM     16  C   LIG A   1      -8.175  -3.256 128.508  0.00  0.00    +0.012 C 
ATOM     17  C   LIG A   1      -7.614  -2.176 127.558  0.00  0.00    -0.007 C 
ATOM     18  C   LIG A   1      -8.313  -0.840 127.856  0.00  0.00    +0.016 C 
ATOM     19  C   LIG A   1      -5.823  -5.089 130.349  0.00  0.00    +0.016 C 
ATOM     20  O   LIG A   1      -3.490  -5.336 134.250  0.00  0.00    -0.293 OA
ENDROOT
BRANCH   1  21
ATOM     21  C   LIG A   1      -8.391  -1.952 124.922  0.00  0.00    +0.012 C 
ATOM     22  C   LIG A   1      -9.037  -2.833 123.846  0.00  0.00    +0.012 C 
BRANCH  21  24
ATOM     23  C   LIG A   1      -7.683   0.467 124.643  0.00  0.00    -0.027 C 
ATOM     24  C   LIG A   1      -7.581  -0.831 124.299  0.00  0.00    -0.027 C 
BRANCH  23  25
ATOM     25  C   LIG A   1      -6.844   1.577 124.026  0.00  0.00    +0.011 C 
ATOM     26  C   LIG A   1      -7.682   2.305 122.967  0.00  0.00    +0.012 C 
BRANCH  25  28
ATOM     27  C   LIG A   1      -5.549   3.757 124.508  0.00  0.00    +0.008 C 
ATOM     28  C   LIG A   1      -6.279   2.546 125.109  0.00  0.00    -0.011 C 
ATOM     29  C   LIG A   1      -5.318   1.829 126.068  0.00  0.00    +0.008 C 
ENDBRANCH  25  28
ENDBRANCH  23  25
ENDBRANCH  21  24
ENDBRANCH   1  21
TORSDOF 4
ENDMDL
MODEL 6
REMARK VINA RESULT:      -7.7      3.692      6.344
REMARK  Name = NuBBE_1004
REMARK  10 active torsions:
REMARK  status: ('A' for Active; 'I' for Inactive)
REMARK    1  A    between atoms: C_1  and  C_2
REMARK    2  A    between atoms: C_2  and  C_3
REMARK    3  A    between atoms: C_2  and  C_33
REMARK    4  A    between atoms: C_3  and  C_5
REMARK    5  A    between atoms: C_3  and  C_32
REMARK    6  A    between atoms: C_6  and  C_7
REMARK    7  A    between atoms: C_7  and  C_9
REMARK    8  A    between atoms: C_7  and  C_31
REMARK    9  A    between atoms: C_21  and  C_28
REMARK   10  A    between atoms: C_25  and  C_26
REMARK                            x       y       z     vdW  Elec       q    Type
REMARK                         _______ _______ _______ _____ _____    ______ ____
ROOT
ATOM      1  C   LIG A   1      -6.572  -0.325 125.391  0.00  0.00    +0.006 C 
ATOM      2  C   LIG A   1      -6.239   1.032 126.060  0.00  0.00    +0.009 C 
ATOM      3  C   LIG A   1      -7.426   1.351 126.952  0.00  0.00    +0.032 C 
ATOM      4  C   LIG A   1      -7.704  -0.007 127.522  0.00  0.00    -0.060 C 
ATOM      5  C   LIG A   1      -7.888  -0.318 128.820  0.00  0.00    -0.044 C 
ATOM      6  C   LIG A   1      -8.056   0.702 129.835  0.00  0.00    +0.004 C 
ATOM      7  C   LIG A   1      -7.823   0.484 131.133  0.00  0.00    +0.004 C 
ATOM      8  C   LIG A   1      -7.334  -0.780 131.651  0.00  0.00    -0.038 C 
ATOM      9  C   LIG A   1      -7.173  -0.926 132.976  0.00  0.00    +0.050 C 
ATOM     10  C   LIG A   1      -6.702  -2.203 133.562  0.00  0.00    +0.156 C 
ATOM     11  C   LIG A   1      -6.614  -3.424 132.675  0.00  0.00    +0.080 C 
ATOM     12  C   LIG A   1      -7.356  -3.245 131.354  0.00  0.00    +0.019 C 
ATOM     13  C   LIG A   1      -7.026  -1.902 130.645  0.00  0.00    +0.000 C 
ATOM     14  C   LIG A   1      -7.911  -1.758 129.344  0.00  0.00    +0.029 C 
ATOM     15  C   LIG A   1      -7.580  -2.823 128.257  0.00  0.00    +0.010 C 
ATOM     16  C   LIG A   1      -6.806  -2.269 127.054  0.00  0.00    +0.012 C 
ATOM     17  C   LIG A   1      -7.514  -1.048 126.428  0.00  0.00    -0.007 C 
ATOM     18  C   LIG A   1      -8.909  -1.476 125.943  0.00  0.00    +0.016 C 
ATOM     19  C   LIG A   1      -5.520  -1.841 130.286  0.00  0.00    +0.016 C 
ATOM     20  O   LIG A   1      -6.374  -2.235 134.739  0.00  0.00    -0.293 OA
ENDROOT
BRANCH   1  21
ATOM     21  C   LIG A   1      -6.953  -0.132 123.889  0.00  0.00    +0.012 C 
ATOM     22  C   LIG A   1      -6.588  -1.272 122.929  0.00  0.00    +0.012 C 
BRANCH  21  24
ATOM     23  C   LIG A   1      -7.339   2.213 123.005  0.00  0.00    -0.027 C 
ATOM     24  C   LIG A   1      -6.506   1.209 123.342  0.00  0.00    -0.027 C 
BRANCH  23  25
ATOM     25  C   LIG A   1      -6.872   3.564 122.482  0.00  0.00    +0.011 C 
ATOM     26  C   LIG A   1      -5.861   4.158 123.472  0.00  0.00    +0.012 C 
BRANCH  25  28
ATOM     27  C   LIG A   1      -4.926   4.129 120.884  0.00  0.00    +0.008 C 
ATOM     28  C   LIG A   1      -6.300   3.458 121.036  0.00  0.00    -0.011 C 
ATOM     29  C   LIG A   1      -7.255   4.071 120.001  0.00  0.00    +0.008 C 
ENDBRANCH  25  28
ENDBRANCH  23  25
ENDBRANCH  21  24
ENDBRANCH   1  21
TORSDOF 4
ENDMDL
MODEL 7
REMARK VINA RESULT:      -7.6      4.499      5.852
REMARK  Name = NuBBE_1004
REMARK  10 active torsions:
REMARK  status: ('A' for Active; 'I' for Inactive)
REMARK    1  A    between atoms: C_1  and  C_2
REMARK    2  A    between atoms: C_2  and  C_3
REMARK    3  A    between atoms: C_2  and  C_33
REMARK    4  A    between atoms: C_3  and  C_5
REMARK    5  A    between atoms: C_3  and  C_32
REMARK    6  A    between atoms: C_6  and  C_7
REMARK    7  A    between atoms: C_7  and  C_9
REMARK    8  A    between atoms: C_7  and  C_31
REMARK    9  A    between atoms: C_21  and  C_28
REMARK   10  A    between atoms: C_25  and  C_26
REMARK                            x       y       z     vdW  Elec       q    Type
REMARK                         _______ _______ _______ _____ _____    ______ ____
ROOT
ATOM      1  C   LIG A   1      -7.014  -3.074 128.931  0.00  0.00    +0.006 C 
ATOM      2  C   LIG A   1      -5.729  -2.492 128.294  0.00  0.00    +0.009 C 
ATOM      3  C   LIG A   1      -5.503  -1.154 128.975  0.00  0.00    +0.032 C 
ATOM      4  C   LIG A   1      -5.848  -1.513 130.389  0.00  0.00    -0.060 C 
ATOM      5  C   LIG A   1      -5.124  -1.242 131.493  0.00  0.00    -0.044 C 
ATOM      6  C   LIG A   1      -3.984  -0.349 131.460  0.00  0.00    +0.004 C 
ATOM      7  C   LIG A   1      -3.012  -0.374 132.377  0.00  0.00    +0.004 C 
ATOM      8  C   LIG A   1      -2.976  -1.326 133.471  0.00  0.00    -0.038 C 
ATOM      9  C   LIG A   1      -1.986  -1.247 134.376  0.00  0.00    +0.050 C 
ATOM     10  C   LIG A   1      -1.916  -2.178 135.527  0.00  0.00    +0.156 C 
ATOM     11  C   LIG A   1      -3.094  -3.081 135.808  0.00  0.00    +0.080 C 
ATOM     12  C   LIG A   1      -4.349  -2.663 135.049  0.00  0.00    +0.019 C 
ATOM     13  C   LIG A   1      -4.089  -2.386 133.542  0.00  0.00    +0.000 C 
ATOM     14  C   LIG A   1      -5.416  -1.864 132.862  0.00  0.00    +0.029 C 
ATOM     15  C   LIG A   1      -6.550  -2.930 132.835  0.00  0.00    +0.010 C 
ATOM     16  C   LIG A   1      -6.803  -3.539 131.450  0.00  0.00    +0.012 C 
ATOM     17  C   LIG A   1      -7.046  -2.451 130.380  0.00  0.00    -0.007 C 
ATOM     18  C   LIG A   1      -8.285  -1.632 130.775  0.00  0.00    +0.016 C 
ATOM     19  C   LIG A   1      -3.589  -3.672 132.838  0.00  0.00    +0.016 C 
ATOM     20  O   LIG A   1      -0.901  -2.209 136.208  0.00  0.00    -0.293 OA
ENDROOT
BRANCH   1  21
ATOM     21  C   LIG A   1      -8.221  -2.985 127.944  0.00  0.00    +0.012 C 
ATOM     22  C   LIG A   1      -9.317  -4.048 128.090  0.00  0.00    +0.012 C 
BRANCH  21  24
ATOM     23  C   LIG A   1      -8.225  -3.621 125.490  0.00  0.00    -0.027 C 
ATOM     24  C   LIG A   1      -7.782  -2.846 126.499  0.00  0.00    -0.027 C 
BRANCH  23  25
ATOM     25  C   LIG A   1      -7.795  -3.451 124.039  0.00  0.00    +0.011 C 
ATOM     26  C   LIG A   1      -8.948  -2.820 123.249  0.00  0.00    +0.012 C 
BRANCH  25  28
ATOM     27  C   LIG A   1      -6.400  -1.794 122.635  0.00  0.00    +0.008 C 
ATOM     28  C   LIG A   1      -6.472  -2.635 123.919  0.00  0.00    -0.011 C 
ATOM     29  C   LIG A   1      -5.236  -3.544 123.972  0.00  0.00    +0.008 C 
ENDBRANCH  25  28
ENDBRANCH  23  25
ENDBRANCH  21  24
ENDBRANCH   1  21
TORSDOF 4
ENDMDL
MODEL 8
REMARK VINA RESULT:      -7.6      2.598      5.116
REMARK  Name = NuBBE_1004
REMARK  10 active torsions:
REMARK  status: ('A' for Active; 'I' for Inactive)
REMARK    1  A    between atoms: C_1  and  C_2
REMARK    2  A    between atoms: C_2  and  C_3
REMARK    3  A    between atoms: C_2  and  C_33
REMARK    4  A    between atoms: C_3  and  C_5
REMARK    5  A    between atoms: C_3  and  C_32
REMARK    6  A    between atoms: C_6  and  C_7
REMARK    7  A    between atoms: C_7  and  C_9
REMARK    8  A    between atoms: C_7  and  C_31
REMARK    9  A    between atoms: C_21  and  C_28
REMARK   10  A    between atoms: C_25  and  C_26
REMARK                            x       y       z     vdW  Elec       q    Type
REMARK                         _______ _______ _______ _____ _____    ______ ____
ROOT
ATOM      1  C   LIG A   1      -5.180   4.063 126.696  0.00  0.00    +0.006 C 
ATOM      2  C   LIG A   1      -6.066   3.296 127.708  0.00  0.00    +0.009 C 
ATOM      3  C   LIG A   1      -5.101   2.606 128.656  0.00  0.00    +0.032 C 
ATOM      4  C   LIG A   1      -4.082   3.691 128.836  0.00  0.00    -0.060 C 
ATOM      5  C   LIG A   1      -3.579   4.145 130.000  0.00  0.00    -0.044 C 
ATOM      6  C   LIG A   1      -3.819   3.462 131.255  0.00  0.00    +0.004 C 
ATOM      7  C   LIG A   1      -3.716   4.065 132.444  0.00  0.00    +0.004 C 
ATOM      8  C   LIG A   1      -3.401   5.472 132.596  0.00  0.00    -0.038 C 
ATOM      9  C   LIG A   1      -3.270   5.983 133.832  0.00  0.00    +0.050 C 
ATOM     10  C   LIG A   1      -2.923   7.408 134.046  0.00  0.00    +0.156 C 
ATOM     11  C   LIG A   1      -2.493   8.241 132.860  0.00  0.00    +0.080 C 
ATOM     12  C   LIG A   1      -2.150   7.392 131.640  0.00  0.00    +0.019 C 
ATOM     13  C   LIG A   1      -3.225   6.315 131.322  0.00  0.00    +0.000 C 
ATOM     14  C   LIG A   1      -2.740   5.422 130.112  0.00  0.00    +0.029 C 
ATOM     15  C   LIG A   1      -2.625   6.213 128.776  0.00  0.00    +0.010 C 
ATOM     16  C   LIG A   1      -3.737   5.900 127.766  0.00  0.00    +0.012 C 
ATOM     17  C   LIG A   1      -3.862   4.384 127.499  0.00  0.00    -0.007 C 
ATOM     18  C   LIG A   1      -2.534   3.871 126.920  0.00  0.00    +0.016 C 
ATOM     19  C   LIG A   1      -4.579   6.991 130.989  0.00  0.00    +0.016 C 
ATOM     20  O   LIG A   1      -3.014   7.883 135.169  0.00  0.00    -0.293 OA
ENDROOT
BRANCH   1  21
ATOM     21  C   LIG A   1      -5.174   3.355 125.304  0.00  0.00    +0.012 C 
ATOM     22  C   LIG A   1      -5.494   4.224 124.082  0.00  0.00    +0.012 C 
BRANCH  21  24
ATOM     23  C   LIG A   1      -6.682   1.620 124.235  0.00  0.00    -0.027 C 
ATOM     24  C   LIG A   1      -5.992   2.078 125.297  0.00  0.00    -0.027 C 
BRANCH  23  25
ATOM     25  C   LIG A   1      -7.477   0.321 124.236  0.00  0.00    +0.011 C 
ATOM     26  C   LIG A   1      -8.857   0.582 123.616  0.00  0.00    +0.012 C 
BRANCH  25  28
ATOM     27  C   LIG A   1      -7.643  -1.833 122.825  0.00  0.00    +0.008 C 
ATOM     28  C   LIG A   1      -6.709  -0.829 123.517  0.00  0.00    -0.011 C 
ATOM     29  C   LIG A   1      -5.803  -1.600 124.487  0.00  0.00    +0.008 C 
ENDBRANCH  25  28
ENDBRANCH  23  25
ENDBRANCH  21  24
ENDBRANCH   1  21
TORSDOF 4
ENDMDL
MODEL 9
REMARK VINA RESULT:      -7.5      5.022      8.877
REMARK  Name = NuBBE_1004
REMARK  10 active torsions:
REMARK  status: ('A' for Active; 'I' for Inactive)
REMARK    1  A    between atoms: C_1  and  C_2
REMARK    2  A    between atoms: C_2  and  C_3
REMARK    3  A    between atoms: C_2  and  C_33
REMARK    4  A    between atoms: C_3  and  C_5
REMARK    5  A    between atoms: C_3  and  C_32
REMARK    6  A    between atoms: C_6  and  C_7
REMARK    7  A    between atoms: C_7  and  C_9
REMARK    8  A    between atoms: C_7  and  C_31
REMARK    9  A    between atoms: C_21  and  C_28
REMARK   10  A    between atoms: C_25  and  C_26
REMARK                            x       y       z     vdW  Elec       q    Type
REMARK                         _______ _______ _______ _____ _____    ______ ____
ROOT
ATOM      1  C   LIG A   1      -4.684  -1.294 131.340  0.00  0.00    +0.006 C 
ATOM      2  C   LIG A   1      -4.807  -2.837 131.309  0.00  0.00    +0.009 C 
ATOM      3  C   LIG A   1      -6.296  -3.130 131.324  0.00  0.00    +0.032 C 
ATOM      4  C   LIG A   1      -6.787  -2.066 130.389  0.00  0.00    -0.060 C 
ATOM      5  C   LIG A   1      -7.622  -2.228 129.344  0.00  0.00    -0.044 C 
ATOM      6  C   LIG A   1      -8.341  -3.467 129.124  0.00  0.00    +0.004 C 
ATOM      7  C   LIG A   1      -8.826  -3.825 127.931  0.00  0.00    +0.004 C 
ATOM      8  C   LIG A   1      -8.643  -3.035 126.729  0.00  0.00    -0.038 C 
ATOM      9  C   LIG A   1      -9.207  -3.448 125.582  0.00  0.00    +0.050 C 
ATOM     10  C   LIG A   1      -9.074  -2.666 124.330  0.00  0.00    +0.156 C 
ATOM     11  C   LIG A   1      -8.485  -1.277 124.396  0.00  0.00    +0.080 C 
ATOM     12  C   LIG A   1      -8.416  -0.735 125.821  0.00  0.00    +0.019 C 
ATOM     13  C   LIG A   1      -7.806  -1.748 126.831  0.00  0.00    +0.000 C 
ATOM     14  C   LIG A   1      -7.869  -1.144 128.289  0.00  0.00    +0.029 C 
ATOM     15  C   LIG A   1      -6.972   0.116 128.469  0.00  0.00    +0.010 C 
ATOM     16  C   LIG A   1      -5.697  -0.133 129.284  0.00  0.00    +0.012 C 
ATOM     17  C   LIG A   1      -6.007  -0.785 130.649  0.00  0.00    -0.007 C 
ATOM     18  C   LIG A   1      -6.914   0.157 131.457  0.00  0.00    +0.016 C 
ATOM     19  C   LIG A   1      -6.344  -2.079 126.442  0.00  0.00    +0.016 C 
ATOM     20  O   LIG A   1      -9.421  -3.170 123.271  0.00  0.00    -0.293 OA
ENDROOT
BRANCH   1  21
ATOM     21  C   LIG A   1      -4.214  -0.795 132.744  0.00  0.00    +0.012 C 
ATOM     22  C   LIG A   1      -3.474   0.547 132.791  0.00  0.00    +0.012 C 
BRANCH  21  24
ATOM     23  C   LIG A   1      -2.443  -1.615 134.362  0.00  0.00    -0.027 C 
ATOM     24  C   LIG A   1      -3.465  -1.861 133.520  0.00  0.00    -0.027 C 
BRANCH  23  25
ATOM     25  C   LIG A   1      -1.719  -2.694 135.154  0.00  0.00    +0.011 C 
ATOM     26  C   LIG A   1      -1.970  -4.054 134.489  0.00  0.00    +0.012 C 
BRANCH  25  28
ATOM     27  C   LIG A   1       0.326  -1.418 134.231  0.00  0.00    +0.008 C 
ATOM     28  C   LIG A   1      -0.200  -2.378 135.310  0.00  0.00    -0.011 C 
ATOM     29  C   LIG A   1       0.652  -3.654 135.279  0.00  0.00    +0.008 C 
ENDBRANCH  25  28
ENDBRANCH  23  25
ENDBRANCH  21  24
ENDBRANCH   1  21
TORSDOF 4
ENDMDL
