MODEL 1
REMARK VINA RESULT:      -7.3      0.000      0.000
REMARK  Name = NuBBE_81
REMARK  5 active torsions:
REMARK  status: ('A' for Active; 'I' for Inactive)
REMARK    1  A    between atoms: C_2  and  C_8
REMARK    2  A    between atoms: C_8  and  C_9
REMARK    3  A    between atoms: C_9  and  C_10
REMARK    4  A    between atoms: C_10  and  C_11
REMARK    5  A    between atoms: C_11  and  C_12
REMARK                            x       y       z     vdW  Elec       q    Type
REMARK                         _______ _______ _______ _____ _____    ______ ____
ROOT
ATOM      1  C   LIG A   1      -9.975   1.475 122.332  0.00  0.00    +0.005 C 
ENDROOT
BRANCH   1   2
ATOM      2  C   LIG A   1      -9.904   0.005 122.764  0.00  0.00    +0.010 C 
BRANCH   2   3
ATOM      3  C   LIG A   1      -8.764  -0.245 123.757  0.00  0.00    +0.096 C 
BRANCH   3   5
ATOM      4  O   LIG A   1      -9.585  -2.355 124.598  0.00  0.00    -0.276 OA
ATOM      5  C   LIG A   1      -8.642  -1.718 124.140  0.00  0.00    +0.216 C 
ATOM      6  N   LIG A   1      -7.401  -2.292 123.946  0.00  0.00    -0.301 N 
ATOM      7  C   LIG A   1      -7.139  -3.679 124.298  0.00  0.00    +0.107 C 
ATOM      8  C   LIG A   1      -5.624  -3.818 124.201  0.00  0.00    +0.020 C 
ATOM      9  C   LIG A   1      -5.258  -2.800 123.130  0.00  0.00    +0.020 C 
ATOM     10  C   LIG A   1      -6.210  -1.649 123.419  0.00  0.00    +0.107 C 
ENDBRANCH   3   5
ENDBRANCH   2   3
ENDBRANCH   1   2
BRANCH   1  11
ATOM     11  C   LIG A   1      -8.979   2.346 123.109  0.00  0.00    +0.035 C 
BRANCH  11  12
ATOM     12  C   LIG A   1      -7.975   3.040 122.214  0.00  0.00    -0.044 A 
ATOM     13  C   LIG A   1      -6.634   3.209 122.632  0.00  0.00    +0.007 A 
ATOM     14  C   LIG A   1      -5.694   3.844 121.810  0.00  0.00    +0.050 A 
ATOM     15  C   LIG A   1      -6.119   4.303 120.583  0.00  0.00    +0.166 A 
ATOM     16  C   LIG A   1      -7.417   4.146 120.165  0.00  0.00    +0.167 A 
ATOM     17  O   LIG A   1      -7.629   4.664 118.925  0.00  0.00    -0.453 OA
ATOM     18  C   LIG A   1      -6.313   5.170 118.613  0.00  0.00    +0.466 C 
ATOM     19  O   LIG A   1      -5.349   4.943 119.662  0.00  0.00    -0.453 OA
ATOM     20  C   LIG A   1      -8.366   3.523 120.953  0.00  0.00    +0.053 A 
ENDBRANCH  11  12
ENDBRANCH   1  11
TORSDOF 5
ENDMDL
MODEL 2
REMARK VINA RESULT:      -7.0      3.740      7.865
REMARK  Name = NuBBE_81
REMARK  5 active torsions:
REMARK  status: ('A' for Active; 'I' for Inactive)
REMARK    1  A    between atoms: C_2  and  C_8
REMARK    2  A    between atoms: C_8  and  C_9
REMARK    3  A    between atoms: C_9  and  C_10
REMARK    4  A    between atoms: C_10  and  C_11
REMARK    5  A    between atoms: C_11  and  C_12
REMARK                            x       y       z     vdW  Elec       q    Type
REMARK                         _______ _______ _______ _____ _____    ______ ____
ROOT
ATOM      1  C   LIG A   1      -8.651  -3.650 124.749  0.00  0.00    +0.005 C 
ENDROOT
BRANCH   1   2
ATOM      2  C   LIG A   1      -9.437  -3.279 123.485  0.00  0.00    +0.010 C 
BRANCH   2   3
ATOM      3  C   LIG A   1      -8.700  -2.236 122.638  0.00  0.00    +0.096 C 
BRANCH   3   5
ATOM      4  O   LIG A   1     -10.304  -0.433 122.557  0.00  0.00    -0.276 OA
ATOM      5  C   LIG A   1      -9.192  -0.817 122.908  0.00  0.00    +0.216 C 
ATOM      6  N   LIG A   1      -8.309   0.014 123.567  0.00  0.00    -0.301 N 
ATOM      7  C   LIG A   1      -8.639   1.401 123.860  0.00  0.00    +0.107 C 
ATOM      8  C   LIG A   1      -7.323   2.019 124.316  0.00  0.00    +0.020 C 
ATOM      9  C   LIG A   1      -6.592   0.839 124.942  0.00  0.00    +0.020 C 
ATOM     10  C   LIG A   1      -6.971  -0.317 124.028  0.00  0.00    +0.107 C 
ENDBRANCH   3   5
ENDBRANCH   2   3
ENDBRANCH   1   2
BRANCH   1  11
ATOM     11  C   LIG A   1      -9.257  -3.009 126.005  0.00  0.00    +0.035 C 
BRANCH  11  12
ATOM     12  C   LIG A   1      -8.289  -2.956 127.168  0.00  0.00    -0.044 A 
ATOM     13  C   LIG A   1      -8.637  -3.520 128.418  0.00  0.00    +0.007 A 
ATOM     14  C   LIG A   1      -7.749  -3.483 129.501  0.00  0.00    +0.050 A 
ATOM     15  C   LIG A   1      -6.527  -2.876 129.310  0.00  0.00    +0.166 A 
ATOM     16  C   LIG A   1      -6.177  -2.325 128.102  0.00  0.00    +0.167 A 
ATOM     17  O   LIG A   1      -4.931  -1.780 128.122  0.00  0.00    -0.453 OA
ATOM     18  C   LIG A   1      -4.538  -2.049 129.485  0.00  0.00    +0.466 C 
ATOM     19  O   LIG A   1      -5.547  -2.746 130.245  0.00  0.00    -0.453 OA
ATOM     20  C   LIG A   1      -7.032  -2.346 127.017  0.00  0.00    +0.053 A 
ENDBRANCH  11  12
ENDBRANCH   1  11
TORSDOF 5
ENDMDL
MODEL 3
REMARK VINA RESULT:      -6.7      3.204      5.041
REMARK  Name = NuBBE_81
REMARK  5 active torsions:
REMARK  status: ('A' for Active; 'I' for Inactive)
REMARK    1  A    between atoms: C_2  and  C_8
REMARK    2  A    between atoms: C_8  and  C_9
REMARK    3  A    between atoms: C_9  and  C_10
REMARK    4  A    between atoms: C_10  and  C_11
REMARK    5  A    between atoms: C_11  and  C_12
REMARK                            x       y       z     vdW  Elec       q    Type
REMARK                         _______ _______ _______ _____ _____    ______ ____
ROOT
ATOM      1  C   LIG A   1      -7.282  -2.462 128.291  0.00  0.00    +0.005 C 
ENDROOT
BRANCH   1   2
ATOM      2  C   LIG A   1      -8.583  -3.222 128.002  0.00  0.00    +0.010 C 
BRANCH   2   3
ATOM      3  C   LIG A   1      -8.612  -3.787 126.578  0.00  0.00    +0.096 C 
BRANCH   3   5
ATOM      4  O   LIG A   1      -9.927  -2.075 125.497  0.00  0.00    -0.276 OA
ATOM      5  C   LIG A   1      -8.877  -2.708 125.531  0.00  0.00    +0.216 C 
ATOM      6  N   LIG A   1      -7.865  -2.490 124.618  0.00  0.00    -0.301 N 
ATOM      7  C   LIG A   1      -8.000  -1.513 123.548  0.00  0.00    +0.107 C 
ATOM      8  C   LIG A   1      -6.818  -1.790 122.627  0.00  0.00    +0.020 C 
ATOM      9  C   LIG A   1      -5.763  -2.334 123.580  0.00  0.00    +0.020 C 
ATOM     10  C   LIG A   1      -6.584  -3.172 124.549  0.00  0.00    +0.107 C 
ENDBRANCH   3   5
ENDBRANCH   2   3
ENDBRANCH   1   2
BRANCH   1  11
ATOM     11  C   LIG A   1      -7.545  -0.988 128.624  0.00  0.00    +0.035 C 
BRANCH  11  12
ATOM     12  C   LIG A   1      -7.377  -0.072 127.430  0.00  0.00    -0.044 A 
ATOM     13  C   LIG A   1      -6.151  -0.027 126.725  0.00  0.00    +0.007 A 
ATOM     14  C   LIG A   1      -5.985   0.811 125.615  0.00  0.00    +0.050 A 
ATOM     15  C   LIG A   1      -7.053   1.593 125.233  0.00  0.00    +0.166 A 
ATOM     16  C   LIG A   1      -8.249   1.558 125.908  0.00  0.00    +0.167 A 
ATOM     17  O   LIG A   1      -9.172   2.399 125.371  0.00  0.00    -0.453 OA
ATOM     18  C   LIG A   1      -8.417   2.971 124.281  0.00  0.00    +0.466 C 
ATOM     19  O   LIG A   1      -7.071   2.462 124.187  0.00  0.00    -0.453 OA
ATOM     20  C   LIG A   1      -8.442   0.742 127.006  0.00  0.00    +0.053 A 
ENDBRANCH  11  12
ENDBRANCH   1  11
TORSDOF 5
ENDMDL
MODEL 4
REMARK VINA RESULT:      -6.7      1.740      2.340
REMARK  Name = NuBBE_81
REMARK  5 active torsions:
REMARK  status: ('A' for Active; 'I' for Inactive)
REMARK    1  A    between atoms: C_2  and  C_8
REMARK    2  A    between atoms: C_8  and  C_9
REMARK    3  A    between atoms: C_9  and  C_10
REMARK    4  A    between atoms: C_10  and  C_11
REMARK    5  A    between atoms: C_11  and  C_12
REMARK                            x       y       z     vdW  Elec       q    Type
REMARK                         _______ _______ _______ _____ _____    ______ ____
ROOT
ATOM      1  C   LIG A   1      -7.282   3.323 124.857  0.00  0.00    +0.005 C 
ENDROOT
BRANCH   1   2
ATOM      2  C   LIG A   1      -7.441   2.189 125.879  0.00  0.00    +0.010 C 
BRANCH   2   3
ATOM      3  C   LIG A   1      -8.259   1.021 125.316  0.00  0.00    +0.096 C 
BRANCH   3   5
ATOM      4  O   LIG A   1      -7.728  -0.795 126.817  0.00  0.00    -0.276 OA
ATOM      5  C   LIG A   1      -7.660  -0.334 125.681  0.00  0.00    +0.216 C 
ATOM      6  N   LIG A   1      -7.028  -1.011 124.658  0.00  0.00    -0.301 N 
ATOM      7  C   LIG A   1      -6.386  -2.299 124.876  0.00  0.00    +0.107 C 
ATOM      8  C   LIG A   1      -5.585  -2.547 123.603  0.00  0.00    +0.020 C 
ATOM      9  C   LIG A   1      -6.397  -1.816 122.543  0.00  0.00    +0.020 C 
ATOM     10  C   LIG A   1      -6.876  -0.574 123.280  0.00  0.00    +0.107 C 
ENDBRANCH   3   5
ENDBRANCH   2   3
ENDBRANCH   1   2
BRANCH   1  11
ATOM     11  C   LIG A   1      -6.159   3.031 123.853  0.00  0.00    +0.035 C 
BRANCH  11  12
ATOM     12  C   LIG A   1      -6.505   3.445 122.439  0.00  0.00    -0.044 A 
ATOM     13  C   LIG A   1      -5.494   3.878 121.549  0.00  0.00    +0.007 A 
ATOM     14  C   LIG A   1      -5.800   4.258 120.235  0.00  0.00    +0.050 A 
ATOM     15  C   LIG A   1      -7.118   4.200 119.840  0.00  0.00    +0.166 A 
ATOM     16  C   LIG A   1      -8.109   3.782 120.694  0.00  0.00    +0.167 A 
ATOM     17  O   LIG A   1      -9.337   3.795 120.109  0.00  0.00    -0.453 OA
ATOM     18  C   LIG A   1      -9.004   4.274 118.788  0.00  0.00    +0.466 C 
ATOM     19  O   LIG A   1      -7.596   4.532 118.610  0.00  0.00    -0.453 OA
ATOM     20  C   LIG A   1      -7.837   3.401 121.994  0.00  0.00    +0.053 A 
ENDBRANCH  11  12
ENDBRANCH   1  11
TORSDOF 5
ENDMDL
MODEL 5
REMARK VINA RESULT:      -6.6      4.289      6.816
REMARK  Name = NuBBE_81
REMARK  5 active torsions:
REMARK  status: ('A' for Active; 'I' for Inactive)
REMARK    1  A    between atoms: C_2  and  C_8
REMARK    2  A    between atoms: C_8  and  C_9
REMARK    3  A    between atoms: C_9  and  C_10
REMARK    4  A    between atoms: C_10  and  C_11
REMARK    5  A    between atoms: C_11  and  C_12
REMARK                            x       y       z     vdW  Elec       q    Type
REMARK                         _______ _______ _______ _____ _____    ______ ____
ROOT
ATOM      1  C   LIG A   1      -8.453  -3.080 128.859  0.00  0.00    +0.005 C 
ENDROOT
BRANCH   1   2
ATOM      2  C   LIG A   1      -7.242  -3.593 129.649  0.00  0.00    +0.010 C 
BRANCH   2   3
ATOM      3  C   LIG A   1      -5.937  -2.933 129.189  0.00  0.00    +0.096 C 
BRANCH   3   5
ATOM      4  O   LIG A   1      -6.332  -0.676 129.951  0.00  0.00    -0.276 OA
ATOM      5  C   LIG A   1      -6.082  -1.425 129.011  0.00  0.00    +0.216 C 
ATOM      6  N   LIG A   1      -5.922  -0.950 127.724  0.00  0.00    -0.301 N 
ATOM      7  C   LIG A   1      -6.066   0.464 127.409  0.00  0.00    +0.107 C 
ATOM      8  C   LIG A   1      -6.100   0.514 125.886  0.00  0.00    +0.020 C 
ATOM      9  C   LIG A   1      -5.254  -0.688 125.488  0.00  0.00    +0.020 C 
ATOM     10  C   LIG A   1      -5.631  -1.728 126.533  0.00  0.00    +0.107 C 
ENDBRANCH   3   5
ENDBRANCH   2   3
ENDBRANCH   1   2
BRANCH   1  11
ATOM     11  C   LIG A   1      -8.800  -4.006 127.685  0.00  0.00    +0.035 C 
BRANCH  11  12
ATOM     12  C   LIG A   1      -8.731  -3.311 126.342  0.00  0.00    -0.044 A 
ATOM     13  C   LIG A   1      -8.213  -3.984 125.211  0.00  0.00    +0.007 A 
ATOM     14  C   LIG A   1      -8.149  -3.355 123.960  0.00  0.00    +0.050 A 
ATOM     15  C   LIG A   1      -8.604  -2.057 123.870  0.00  0.00    +0.166 A 
ATOM     16  C   LIG A   1      -9.109  -1.393 124.960  0.00  0.00    +0.167 A 
ATOM     17  O   LIG A   1      -9.506  -0.128 124.658  0.00  0.00    -0.453 OA
ATOM     18  C   LIG A   1      -9.187  -0.071 123.251  0.00  0.00    +0.466 C 
ATOM     19  O   LIG A   1      -8.615  -1.294 122.743  0.00  0.00    -0.453 OA
ATOM     20  C   LIG A   1      -9.184  -1.988 126.205  0.00  0.00    +0.053 A 
ENDBRANCH  11  12
ENDBRANCH   1  11
TORSDOF 5
ENDMDL
MODEL 6
REMARK VINA RESULT:      -6.6      9.736     11.089
REMARK  Name = NuBBE_81
REMARK  5 active torsions:
REMARK  status: ('A' for Active; 'I' for Inactive)
REMARK    1  A    between atoms: C_2  and  C_8
REMARK    2  A    between atoms: C_8  and  C_9
REMARK    3  A    between atoms: C_9  and  C_10
REMARK    4  A    between atoms: C_10  and  C_11
REMARK    5  A    between atoms: C_11  and  C_12
REMARK                            x       y       z     vdW  Elec       q    Type
REMARK                         _______ _______ _______ _____ _____    ______ ____
ROOT
ATOM      1  C   LIG A   1      -7.945   6.570 131.472  0.00  0.00    +0.005 C 
ENDROOT
BRANCH   1   2
ATOM      2  C   LIG A   1      -9.187   6.083 132.230  0.00  0.00    +0.010 C 
BRANCH   2   3
ATOM      3  C   LIG A   1     -10.258   5.533 131.280  0.00  0.00    +0.096 C 
BRANCH   3   5
ATOM      4  O   LIG A   1     -12.335   6.579 131.932  0.00  0.00    -0.276 OA
ATOM      5  C   LIG A   1     -11.429   6.496 131.108  0.00  0.00    +0.216 C 
ATOM      6  N   LIG A   1     -11.413   7.268 129.963  0.00  0.00    -0.301 N 
ATOM      7  C   LIG A   1     -12.484   8.205 129.660  0.00  0.00    +0.107 C 
ATOM      8  C   LIG A   1     -12.231   8.620 128.215  0.00  0.00    +0.020 C 
ATOM      9  C   LIG A   1     -10.719   8.500 128.087  0.00  0.00    +0.020 C 
ATOM     10  C   LIG A   1     -10.407   7.262 128.915  0.00  0.00    +0.107 C 
ENDBRANCH   3   5
ENDBRANCH   2   3
ENDBRANCH   1   2
BRANCH   1  11
ATOM     11  C   LIG A   1      -6.650   6.206 132.210  0.00  0.00    +0.035 C 
BRANCH  11  12
ATOM     12  C   LIG A   1      -5.471   6.013 131.279  0.00  0.00    -0.044 A 
ATOM     13  C   LIG A   1      -4.790   4.774 131.231  0.00  0.00    +0.007 A 
ATOM     14  C   LIG A   1      -3.702   4.580 130.369  0.00  0.00    +0.050 A 
ATOM     15  C   LIG A   1      -3.316   5.636 129.573  0.00  0.00    +0.166 A 
ATOM     16  C   LIG A   1      -3.969   6.843 129.611  0.00  0.00    +0.167 A 
ATOM     17  O   LIG A   1      -3.435   7.749 128.747  0.00  0.00    -0.453 OA
ATOM     18  C   LIG A   1      -2.366   6.972 128.165  0.00  0.00    +0.466 C 
ATOM     19  O   LIG A   1      -2.286   5.628 128.684  0.00  0.00    -0.453 OA
ATOM     20  C   LIG A   1      -5.044   7.064 130.450  0.00  0.00    +0.053 A 
ENDBRANCH  11  12
ENDBRANCH   1  11
TORSDOF 5
ENDMDL
MODEL 7
REMARK VINA RESULT:      -6.6      8.952     10.432
REMARK  Name = NuBBE_81
REMARK  5 active torsions:
REMARK  status: ('A' for Active; 'I' for Inactive)
REMARK    1  A    between atoms: C_2  and  C_8
REMARK    2  A    between atoms: C_8  and  C_9
REMARK    3  A    between atoms: C_9  and  C_10
REMARK    4  A    between atoms: C_10  and  C_11
REMARK    5  A    between atoms: C_11  and  C_12
REMARK                            x       y       z     vdW  Elec       q    Type
REMARK                         _______ _______ _______ _____ _____    ______ ____
ROOT
ATOM      1  C   LIG A   1      -5.820   5.471 130.956  0.00  0.00    +0.005 C 
ENDROOT
BRANCH   1   2
ATOM      2  C   LIG A   1      -5.816   5.042 129.482  0.00  0.00    +0.010 C 
BRANCH   2   3
ATOM      3  C   LIG A   1      -6.386   3.631 129.296  0.00  0.00    +0.096 C 
BRANCH   3   5
ATOM      4  O   LIG A   1      -8.637   4.183 128.618  0.00  0.00    -0.276 OA
ATOM      5  C   LIG A   1      -7.907   3.601 129.415  0.00  0.00    +0.216 C 
ATOM      6  N   LIG A   1      -8.416   2.885 130.479  0.00  0.00    -0.301 N 
ATOM      7  C   LIG A   1      -9.848   2.801 130.728  0.00  0.00    +0.107 C 
ATOM      8  C   LIG A   1      -9.958   2.184 132.118  0.00  0.00    +0.020 C 
ATOM      9  C   LIG A   1      -8.708   1.318 132.206  0.00  0.00    +0.020 C 
ATOM     10  C   LIG A   1      -7.663   2.161 131.489  0.00  0.00    +0.107 C 
ENDBRANCH   3   5
ENDBRANCH   2   3
ENDBRANCH   1   2
BRANCH   1  11
ATOM     11  C   LIG A   1      -6.551   6.805 131.158  0.00  0.00    +0.035 C 
BRANCH  11  12
ATOM     12  C   LIG A   1      -8.040   6.637 131.376  0.00  0.00    -0.044 A 
ATOM     13  C   LIG A   1      -8.527   5.965 132.521  0.00  0.00    +0.007 A 
ATOM     14  C   LIG A   1      -9.902   5.809 132.739  0.00  0.00    +0.050 A 
ATOM     15  C   LIG A   1     -10.765   6.327 131.798  0.00  0.00    +0.166 A 
ATOM     16  C   LIG A   1     -10.305   6.982 130.682  0.00  0.00    +0.167 A 
ATOM     17  O   LIG A   1     -11.316   7.419 129.884  0.00  0.00    -0.453 OA
ATOM     18  C   LIG A   1     -12.467   6.960 130.626  0.00  0.00    +0.466 C 
ATOM     19  O   LIG A   1     -12.123   6.266 131.844  0.00  0.00    -0.453 OA
ATOM     20  C   LIG A   1      -8.955   7.151 130.441  0.00  0.00    +0.053 A 
ENDBRANCH  11  12
ENDBRANCH   1  11
TORSDOF 5
ENDMDL
MODEL 8
REMARK VINA RESULT:      -6.6      5.159      9.331
REMARK  Name = NuBBE_81
REMARK  5 active torsions:
REMARK  status: ('A' for Active; 'I' for Inactive)
REMARK    1  A    between atoms: C_2  and  C_8
REMARK    2  A    between atoms: C_8  and  C_9
REMARK    3  A    between atoms: C_9  and  C_10
REMARK    4  A    between atoms: C_10  and  C_11
REMARK    5  A    between atoms: C_11  and  C_12
REMARK                            x       y       z     vdW  Elec       q    Type
REMARK                         _______ _______ _______ _____ _____    ______ ____
ROOT
ATOM      1  C   LIG A   1      -8.812  -3.968 128.212  0.00  0.00    +0.005 C 
ENDROOT
BRANCH   1   2
ATOM      2  C   LIG A   1      -9.024  -3.556 126.750  0.00  0.00    +0.010 C 
BRANCH   2   3
ATOM      3  C   LIG A   1      -8.621  -2.097 126.502  0.00  0.00    +0.096 C 
BRANCH   3   5
ATOM      4  O   LIG A   1      -9.471  -1.286 124.393  0.00  0.00    -0.276 OA
ATOM      5  C   LIG A   1      -8.528  -1.766 125.016  0.00  0.00    +0.216 C 
ATOM      6  N   LIG A   1      -7.321  -2.046 124.408  0.00  0.00    -0.301 N 
ATOM      7  C   LIG A   1      -7.107  -1.808 122.988  0.00  0.00    +0.107 C 
ATOM      8  C   LIG A   1      -5.786  -2.502 122.679  0.00  0.00    +0.020 C 
ATOM      9  C   LIG A   1      -5.036  -2.409 124.001  0.00  0.00    +0.020 C 
ATOM     10  C   LIG A   1      -6.138  -2.615 125.030  0.00  0.00    +0.107 C 
ENDBRANCH   3   5
ENDBRANCH   2   3
ENDBRANCH   1   2
BRANCH   1  11
ATOM     11  C   LIG A   1      -8.293  -2.801 129.063  0.00  0.00    +0.035 C 
BRANCH  11  12
ATOM     12  C   LIG A   1      -6.905  -3.044 129.617  0.00  0.00    -0.044 A 
ATOM     13  C   LIG A   1      -5.761  -2.771 128.832  0.00  0.00    +0.007 A 
ATOM     14  C   LIG A   1      -4.470  -2.985 129.334  0.00  0.00    +0.050 A 
ATOM     15  C   LIG A   1      -4.352  -3.472 130.617  0.00  0.00    +0.166 A 
ATOM     16  C   LIG A   1      -5.455  -3.740 131.390  0.00  0.00    +0.167 A 
ATOM     17  O   LIG A   1      -5.123  -4.209 132.623  0.00  0.00    -0.453 OA
ATOM     18  C   LIG A   1      -3.681  -4.209 132.534  0.00  0.00    +0.466 C 
ATOM     19  O   LIG A   1      -3.186  -3.741 131.263  0.00  0.00    -0.453 OA
ATOM     20  C   LIG A   1      -6.740  -3.540 130.921  0.00  0.00    +0.053 A 
ENDBRANCH  11  12
ENDBRANCH   1  11
TORSDOF 5
ENDMDL
MODEL 9
REMARK VINA RESULT:      -6.6      9.888     11.379
REMARK  Name = NuBBE_81
REMARK  5 active torsions:
REMARK  status: ('A' for Active; 'I' for Inactive)
REMARK    1  A    between atoms: C_2  and  C_8
REMARK    2  A    between atoms: C_8  and  C_9
REMARK    3  A    between atoms: C_9  and  C_10
REMARK    4  A    between atoms: C_10  and  C_11
REMARK    5  A    between atoms: C_11  and  C_12
REMARK                            x       y       z     vdW  Elec       q    Type
REMARK                         _______ _______ _______ _____ _____    ______ ____
ROOT
ATOM      1  C   LIG A   1      -9.342   4.461 132.053  0.00  0.00    +0.005 C 
ENDROOT
BRANCH   1   2
ATOM      2  C   LIG A   1      -7.820   4.649 132.005  0.00  0.00    +0.010 C 
BRANCH   2   3
ATOM      3  C   LIG A   1      -7.403   6.059 132.440  0.00  0.00    +0.096 C 
BRANCH   3   5
ATOM      4  O   LIG A   1      -7.478   7.371 130.415  0.00  0.00    -0.276 OA
ATOM      5  C   LIG A   1      -6.791   6.861 131.296  0.00  0.00    +0.216 C 
ATOM      6  N   LIG A   1      -5.416   6.976 131.305  0.00  0.00    -0.301 N 
ATOM      7  C   LIG A   1      -4.702   7.687 130.255  0.00  0.00    +0.107 C 
ATOM      8  C   LIG A   1      -3.237   7.334 130.482  0.00  0.00    +0.020 C 
ATOM      9  C   LIG A   1      -3.172   7.106 131.986  0.00  0.00    +0.020 C 
ATOM     10  C   LIG A   1      -4.496   6.418 132.282  0.00  0.00    +0.107 C 
ENDBRANCH   3   5
ENDBRANCH   2   3
ENDBRANCH   1   2
BRANCH   1  11
ATOM     11  C   LIG A   1     -10.060   5.747 132.483  0.00  0.00    +0.035 C 
BRANCH  11  12
ATOM     12  C   LIG A   1     -11.011   6.275 131.430  0.00  0.00    -0.044 A 
ATOM     13  C   LIG A   1     -12.183   6.974 131.805  0.00  0.00    +0.007 A 
ATOM     14  C   LIG A   1     -13.068   7.473 130.841  0.00  0.00    +0.050 A 
ATOM     15  C   LIG A   1     -12.761   7.258 129.515  0.00  0.00    +0.166 A 
ATOM     16  C   LIG A   1     -11.627   6.582 129.137  0.00  0.00    +0.167 A 
ATOM     17  O   LIG A   1     -11.509   6.482 127.786  0.00  0.00    -0.453 OA
ATOM     18  C   LIG A   1     -12.703   7.170 127.356  0.00  0.00    +0.466 C 
ATOM     19  O   LIG A   1     -13.503   7.667 128.450  0.00  0.00    -0.453 OA
ATOM     20  C   LIG A   1     -10.737   6.078 130.066  0.00  0.00    +0.053 A 
ENDBRANCH  11  12
ENDBRANCH   1  11
TORSDOF 5
ENDMDL
