MODEL 1
REMARK VINA RESULT:      -6.4      0.000      0.000
REMARK  Name = NuBBE_983
REMARK  9 active torsions:
REMARK  status: ('A' for Active; 'I' for Inactive)
REMARK    1  A    between atoms: C_1  and  C_2
REMARK    2  A    between atoms: C_2  and  C_3
REMARK    3  A    between atoms: C_2  and  O_4
REMARK    4  A    between atoms: C_2  and  C_5
REMARK    5  A    between atoms: C_8  and  O_9
REMARK    6  A    between atoms: O_9  and  C_10
REMARK    7  A    between atoms: C_10  and  C_11
REMARK    8  A    between atoms: C_15  and  C_16
REMARK    9  A    between atoms: C_16  and  O_17
REMARK                            x       y       z     vdW  Elec       q    Type
REMARK                         _______ _______ _______ _____ _____    ______ ____
ROOT
ATOM      1  C   LIG A   1      -5.821  -1.049 126.964  0.00  0.00    +0.024 C 
ATOM      2  C   LIG A   1      -5.860  -2.345 126.090  0.00  0.00    +0.055 C 
ATOM      3  C   LIG A   1      -6.909  -2.626 124.992  0.00  0.00    +0.202 C 
ATOM      4  C   LIG A   1      -5.794  -1.416 128.486  0.00  0.00    +0.007 C 
ATOM      5  C   LIG A   1      -7.081  -1.400 129.326  0.00  0.00    +0.006 C 
ATOM      6  C   LIG A   1      -7.605  -2.710 129.973  0.00  0.00    +0.015 C 
ATOM      7  C   LIG A   1      -8.747  -3.376 129.176  0.00  0.00    +0.006 C 
ATOM      8  C   LIG A   1      -8.355  -3.911 127.794  0.00  0.00    +0.005 C 
ATOM      9  C   LIG A   1      -8.911  -2.995 126.706  0.00  0.00    +0.034 C 
ATOM     10  C   LIG A   1      -8.319  -3.118 125.326  0.00  0.00    -0.037 C 
ATOM     11  C   LIG A   1      -9.121  -3.543 124.325  0.00  0.00    +0.011 C 
ENDROOT
BRANCH   1  13
ATOM     12  C   LIG A   1      -6.417   0.554 125.031  0.00  0.00    +0.041 C 
ATOM     13  C   LIG A   1      -6.608   0.232 126.525  0.00  0.00    +0.064 C 
ATOM     14  C   LIG A   1      -6.172   1.484 127.309  0.00  0.00    +0.041 C 
BRANCH  13  15
ATOM     15  O   LIG A   1      -7.999   0.058 126.741  0.00  0.00    -0.389 OA
ATOM     16  H   LIG A   1      -8.130  -0.447 127.563  0.00  0.00    +0.210 HD
ENDBRANCH  13  15
ENDBRANCH   1  13
BRANCH   3  17
ATOM     17  O   LIG A   1      -6.339  -3.690 124.158  0.00  0.00    -0.457 OA
BRANCH  17  18
ATOM     18  C   LIG A   1      -5.300  -3.365 123.352  0.00  0.00    +0.304 C 
ATOM     19  C   LIG A   1      -4.184  -4.339 123.519  0.00  0.00    +0.136 C 
ATOM     20  O   LIG A   1      -5.274  -2.419 122.569  0.00  0.00    -0.251 OA
ENDBRANCH  17  18
ENDBRANCH   3  17
BRANCH   6  21
ATOM     21  C   LIG A   1      -6.524  -3.706 130.417  0.00  0.00    +0.159 C 
BRANCH  21  22
ATOM     22  O   LIG A   1      -6.426  -3.766 131.838  0.00  0.00    -0.395 OA
ATOM     23  H   LIG A   1      -5.494  -3.920 132.067  0.00  0.00    +0.209 HD
ENDBRANCH  21  22
ENDBRANCH   6  21
TORSDOF 6
ENDMDL
MODEL 2
REMARK VINA RESULT:      -5.9      2.531      6.062
REMARK  Name = NuBBE_983
REMARK  9 active torsions:
REMARK  status: ('A' for Active; 'I' for Inactive)
REMARK    1  A    between atoms: C_1  and  C_2
REMARK    2  A    between atoms: C_2  and  C_3
REMARK    3  A    between atoms: C_2  and  O_4
REMARK    4  A    between atoms: C_2  and  C_5
REMARK    5  A    between atoms: C_8  and  O_9
REMARK    6  A    between atoms: O_9  and  C_10
REMARK    7  A    between atoms: C_10  and  C_11
REMARK    8  A    between atoms: C_15  and  C_16
REMARK    9  A    between atoms: C_16  and  O_17
REMARK                            x       y       z     vdW  Elec       q    Type
REMARK                         _______ _______ _______ _____ _____    ______ ____
ROOT
ATOM      1  C   LIG A   1      -7.465  -1.629 124.685  0.00  0.00    +0.024 C 
ATOM      2  C   LIG A   1      -6.553  -1.120 125.849  0.00  0.00    +0.055 C 
ATOM      3  C   LIG A   1      -7.006  -0.991 127.320  0.00  0.00    +0.202 C 
ATOM      4  C   LIG A   1      -7.473  -0.598 123.505  0.00  0.00    +0.007 C 
ATOM      5  C   LIG A   1      -8.616   0.418 123.352  0.00  0.00    +0.006 C 
ATOM      6  C   LIG A   1      -8.325   1.939 123.450  0.00  0.00    +0.015 C 
ATOM      7  C   LIG A   1      -8.663   2.544 124.829  0.00  0.00    +0.006 C 
ATOM      8  C   LIG A   1      -7.802   2.042 125.993  0.00  0.00    +0.005 C 
ATOM      9  C   LIG A   1      -8.610   1.082 126.861  0.00  0.00    +0.034 C 
ATOM     10  C   LIG A   1      -7.848   0.190 127.807  0.00  0.00    -0.037 C 
ATOM     11  C   LIG A   1      -8.038   0.359 129.134  0.00  0.00    +0.011 C 
ENDROOT
BRANCH   1  13
ATOM     12  C   LIG A   1      -8.586  -3.498 126.067  0.00  0.00    +0.041 C 
ATOM     13  C   LIG A   1      -8.785  -2.414 124.991  0.00  0.00    +0.064 C 
ATOM     14  C   LIG A   1      -9.347  -3.122 123.745  0.00  0.00    +0.041 C 
BRANCH  13  15
ATOM     15  O   LIG A   1      -9.788  -1.531 125.467  0.00  0.00    -0.389 OA
ATOM     16  H   LIG A   1     -10.450  -1.399 124.766  0.00  0.00    +0.210 HD
ENDBRANCH  13  15
ENDBRANCH   1  13
BRANCH   3  17
ATOM     17  O   LIG A   1      -5.774  -0.913 128.112  0.00  0.00    -0.457 OA
BRANCH  17  18
ATOM     18  C   LIG A   1      -5.321  -2.057 128.681  0.00  0.00    +0.304 C 
ATOM     19  C   LIG A   1      -6.461  -2.927 129.087  0.00  0.00    +0.136 C 
ATOM     20  O   LIG A   1      -4.140  -2.360 128.826  0.00  0.00    -0.251 OA
ENDBRANCH  17  18
ENDBRANCH   3  17
BRANCH   6  21
ATOM     21  C   LIG A   1      -6.953   2.385 122.921  0.00  0.00    +0.159 C 
BRANCH  21  22
ATOM     22  O   LIG A   1      -6.874   3.803 122.812  0.00  0.00    -0.395 OA
ATOM     23  H   LIG A   1      -6.721   4.024 121.877  0.00  0.00    +0.209 HD
ENDBRANCH  21  22
ENDBRANCH   6  21
TORSDOF 6
ENDMDL
MODEL 3
REMARK VINA RESULT:      -5.8      3.310      6.354
REMARK  Name = NuBBE_983
REMARK  9 active torsions:
REMARK  status: ('A' for Active; 'I' for Inactive)
REMARK    1  A    between atoms: C_1  and  C_2
REMARK    2  A    between atoms: C_2  and  C_3
REMARK    3  A    between atoms: C_2  and  O_4
REMARK    4  A    between atoms: C_2  and  C_5
REMARK    5  A    between atoms: C_8  and  O_9
REMARK    6  A    between atoms: O_9  and  C_10
REMARK    7  A    between atoms: C_10  and  C_11
REMARK    8  A    between atoms: C_15  and  C_16
REMARK    9  A    between atoms: C_16  and  O_17
REMARK                            x       y       z     vdW  Elec       q    Type
REMARK                         _______ _______ _______ _____ _____    ______ ____
ROOT
ATOM      1  C   LIG A   1      -9.145   1.467 124.496  0.00  0.00    +0.024 C 
ATOM      2  C   LIG A   1      -8.816   1.283 126.014  0.00  0.00    +0.055 C 
ATOM      3  C   LIG A   1      -7.517   1.772 126.691  0.00  0.00    +0.202 C 
ATOM      4  C   LIG A   1      -9.519   0.091 123.847  0.00  0.00    +0.007 C 
ATOM      5  C   LIG A   1      -8.477  -0.718 123.058  0.00  0.00    +0.006 C 
ATOM      6  C   LIG A   1      -8.045  -2.124 123.554  0.00  0.00    +0.015 C 
ATOM      7  C   LIG A   1      -6.705  -2.122 124.320  0.00  0.00    +0.006 C 
ATOM      8  C   LIG A   1      -6.717  -1.371 125.656  0.00  0.00    +0.005 C 
ATOM      9  C   LIG A   1      -5.972  -0.047 125.514  0.00  0.00    +0.034 C 
ATOM     10  C   LIG A   1      -6.202   0.998 126.575  0.00  0.00    -0.037 C 
ATOM     11  C   LIG A   1      -5.157   1.358 127.351  0.00  0.00    +0.011 C 
ENDROOT
BRANCH   1  13
ATOM     12  C   LIG A   1      -8.980   2.700 122.235  0.00  0.00    +0.041 C 
ATOM     13  C   LIG A   1      -8.356   2.506 123.630  0.00  0.00    +0.064 C 
ATOM     14  C   LIG A   1      -6.891   2.088 123.408  0.00  0.00    +0.041 C 
BRANCH  13  15
ATOM     15  O   LIG A   1      -8.345   3.774 124.264  0.00  0.00    -0.389 OA
ATOM     16  H   LIG A   1      -7.607   3.803 124.898  0.00  0.00    +0.210 HD
ENDBRANCH  13  15
ENDBRANCH   1  13
BRANCH   3  17
ATOM     17  O   LIG A   1      -7.801   1.798 128.130  0.00  0.00    -0.457 OA
BRANCH  17  18
ATOM     18  C   LIG A   1      -8.385   2.912 128.634  0.00  0.00    +0.304 C 
ATOM     19  C   LIG A   1      -7.641   4.131 128.208  0.00  0.00    +0.136 C 
ATOM     20  O   LIG A   1      -9.400   2.933 129.325  0.00  0.00    -0.251 OA
ENDBRANCH  17  18
ENDBRANCH   3  17
BRANCH   6  21
ATOM     21  C   LIG A   1      -9.138  -2.940 124.260  0.00  0.00    +0.159 C 
BRANCH  21  22
ATOM     22  O   LIG A   1     -10.126  -3.392 123.337  0.00  0.00    -0.395 OA
ATOM     23  H   LIG A   1     -10.949  -2.908 123.519  0.00  0.00    +0.209 HD
ENDBRANCH  21  22
ENDBRANCH   6  21
TORSDOF 6
ENDMDL
MODEL 4
REMARK VINA RESULT:      -5.7      7.013      9.051
REMARK  Name = NuBBE_983
REMARK  9 active torsions:
REMARK  status: ('A' for Active; 'I' for Inactive)
REMARK    1  A    between atoms: C_1  and  C_2
REMARK    2  A    between atoms: C_2  and  C_3
REMARK    3  A    between atoms: C_2  and  O_4
REMARK    4  A    between atoms: C_2  and  C_5
REMARK    5  A    between atoms: C_8  and  O_9
REMARK    6  A    between atoms: O_9  and  C_10
REMARK    7  A    between atoms: C_10  and  C_11
REMARK    8  A    between atoms: C_15  and  C_16
REMARK    9  A    between atoms: C_16  and  O_17
REMARK                            x       y       z     vdW  Elec       q    Type
REMARK                         _______ _______ _______ _____ _____    ______ ____
ROOT
ATOM      1  C   LIG A   1      -6.504   3.150 130.264  0.00  0.00    +0.024 C 
ATOM      2  C   LIG A   1      -6.110   4.361 129.357  0.00  0.00    +0.055 C 
ATOM      3  C   LIG A   1      -5.069   5.436 129.740  0.00  0.00    +0.202 C 
ATOM      4  C   LIG A   1      -8.056   3.097 130.464  0.00  0.00    +0.007 C 
ATOM      5  C   LIG A   1      -8.710   3.674 131.729  0.00  0.00    +0.006 C 
ATOM      6  C   LIG A   1      -9.699   4.865 131.621  0.00  0.00    +0.015 C 
ATOM      7  C   LIG A   1      -9.058   6.230 131.953  0.00  0.00    +0.006 C 
ATOM      8  C   LIG A   1      -7.979   6.702 130.973  0.00  0.00    +0.005 C 
ATOM      9  C   LIG A   1      -6.600   6.553 131.609  0.00  0.00    +0.034 C 
ATOM     10  C   LIG A   1      -5.404   6.587 130.691  0.00  0.00    -0.037 C 
ATOM     11  C   LIG A   1      -4.527   7.605 130.827  0.00  0.00    +0.011 C 
ENDROOT
BRANCH   1  13
ATOM     12  C   LIG A   1      -4.102   2.636 131.060  0.00  0.00    +0.041 C 
ATOM     13  C   LIG A   1      -5.588   2.719 131.459  0.00  0.00    +0.064 C 
ATOM     14  C   LIG A   1      -5.974   1.339 132.023  0.00  0.00    +0.041 C 
BRANCH  13  15
ATOM     15  O   LIG A   1      -5.685   3.654 132.521  0.00  0.00    -0.389 OA
ATOM     16  H   LIG A   1      -5.887   3.177 133.345  0.00  0.00    +0.210 HD
ENDBRANCH  13  15
ENDBRANCH   1  13
BRANCH   3  17
ATOM     17  O   LIG A   1      -4.696   6.097 128.484  0.00  0.00    -0.457 OA
BRANCH  17  18
ATOM     18  C   LIG A   1      -3.659   5.576 127.786  0.00  0.00    +0.304 C 
ATOM     19  C   LIG A   1      -2.363   6.094 128.309  0.00  0.00    +0.136 C 
ATOM     20  O   LIG A   1      -3.754   4.770 126.864  0.00  0.00    -0.251 OA
ENDBRANCH  17  18
ENDBRANCH   3  17
BRANCH   6  21
ATOM     21  C   LIG A   1     -10.555   4.899 130.345  0.00  0.00    +0.159 C 
BRANCH  21  22
ATOM     22  O   LIG A   1     -11.475   3.812 130.309  0.00  0.00    -0.395 OA
ATOM     23  H   LIG A   1     -10.963   2.988 130.243  0.00  0.00    +0.209 HD
ENDBRANCH  21  22
ENDBRANCH   6  21
TORSDOF 6
ENDMDL
MODEL 5
REMARK VINA RESULT:      -5.7      2.088      4.841
REMARK  Name = NuBBE_983
REMARK  9 active torsions:
REMARK  status: ('A' for Active; 'I' for Inactive)
REMARK    1  A    between atoms: C_1  and  C_2
REMARK    2  A    between atoms: C_2  and  C_3
REMARK    3  A    between atoms: C_2  and  O_4
REMARK    4  A    between atoms: C_2  and  C_5
REMARK    5  A    between atoms: C_8  and  O_9
REMARK    6  A    between atoms: O_9  and  C_10
REMARK    7  A    between atoms: C_10  and  C_11
REMARK    8  A    between atoms: C_15  and  C_16
REMARK    9  A    between atoms: C_16  and  O_17
REMARK                            x       y       z     vdW  Elec       q    Type
REMARK                         _______ _______ _______ _____ _____    ______ ____
ROOT
ATOM      1  C   LIG A   1      -8.252  -0.482 127.880  0.00  0.00    +0.024 C 
ATOM      2  C   LIG A   1      -8.298  -0.658 126.327  0.00  0.00    +0.055 C 
ATOM      3  C   LIG A   1      -7.391  -1.622 125.531  0.00  0.00    +0.202 C 
ATOM      4  C   LIG A   1      -8.079   1.029 128.255  0.00  0.00    +0.007 C 
ATOM      5  C   LIG A   1      -6.696   1.603 128.603  0.00  0.00    +0.006 C 
ATOM      6  C   LIG A   1      -6.067   2.711 127.717  0.00  0.00    +0.015 C 
ATOM      7  C   LIG A   1      -5.022   2.177 126.714  0.00  0.00    +0.006 C 
ATOM      8  C   LIG A   1      -5.574   1.257 125.620  0.00  0.00    +0.005 C 
ATOM      9  C   LIG A   1      -5.181  -0.189 125.911  0.00  0.00    +0.034 C 
ATOM     10  C   LIG A   1      -5.940  -1.275 125.191  0.00  0.00    -0.037 C 
ATOM     11  C   LIG A   1      -5.263  -2.056 124.323  0.00  0.00    +0.011 C 
ENDROOT
BRANCH   1  13
ATOM     12  C   LIG A   1      -8.012  -2.987 128.454  0.00  0.00    +0.041 C 
ATOM     13  C   LIG A   1      -7.554  -1.554 128.784  0.00  0.00    +0.064 C 
ATOM     14  C   LIG A   1      -7.837  -1.330 130.281  0.00  0.00    +0.041 C 
BRANCH  13  15
ATOM     15  O   LIG A   1      -6.148  -1.513 128.606  0.00  0.00    -0.389 OA
ATOM     16  H   LIG A   1      -5.773  -2.376 128.854  0.00  0.00    +0.210 HD
ENDBRANCH  13  15
ENDBRANCH   1  13
BRANCH   3  17
ATOM     17  O   LIG A   1      -8.040  -1.796 124.227  0.00  0.00    -0.457 OA
BRANCH  17  18
ATOM     18  C   LIG A   1      -8.845  -2.874 124.066  0.00  0.00    +0.304 C 
ATOM     19  C   LIG A   1      -8.329  -4.034 124.848  0.00  0.00    +0.136 C 
ATOM     20  O   LIG A   1      -9.872  -2.902 123.394  0.00  0.00    -0.251 OA
ENDBRANCH  17  18
ENDBRANCH   3  17
BRANCH   6  21
ATOM     21  C   LIG A   1      -7.062   3.692 127.080  0.00  0.00    +0.159 C 
BRANCH  21  22
ATOM     22  O   LIG A   1      -7.534   4.643 128.031  0.00  0.00    -0.395 OA
ATOM     23  H   LIG A   1      -8.017   4.160 128.723  0.00  0.00    +0.209 HD
ENDBRANCH  21  22
ENDBRANCH   6  21
TORSDOF 6
ENDMDL
MODEL 6
REMARK VINA RESULT:      -5.7      6.089      8.948
REMARK  Name = NuBBE_983
REMARK  9 active torsions:
REMARK  status: ('A' for Active; 'I' for Inactive)
REMARK    1  A    between atoms: C_1  and  C_2
REMARK    2  A    between atoms: C_2  and  C_3
REMARK    3  A    between atoms: C_2  and  O_4
REMARK    4  A    between atoms: C_2  and  C_5
REMARK    5  A    between atoms: C_8  and  O_9
REMARK    6  A    between atoms: O_9  and  C_10
REMARK    7  A    between atoms: C_10  and  C_11
REMARK    8  A    between atoms: C_15  and  C_16
REMARK    9  A    between atoms: C_16  and  O_17
REMARK                            x       y       z     vdW  Elec       q    Type
REMARK                         _______ _______ _______ _____ _____    ______ ____
ROOT
ATOM      1  C   LIG A   1      -6.942   5.239 132.021  0.00  0.00    +0.024 C 
ATOM      2  C   LIG A   1      -7.463   3.815 132.405  0.00  0.00    +0.055 C 
ATOM      3  C   LIG A   1      -7.308   2.561 131.517  0.00  0.00    +0.202 C 
ATOM      4  C   LIG A   1      -8.097   6.292 132.131  0.00  0.00    +0.007 C 
ATOM      5  C   LIG A   1      -8.880   6.738 130.886  0.00  0.00    +0.006 C 
ATOM      6  C   LIG A   1     -10.403   6.457 130.782  0.00  0.00    +0.015 C 
ATOM      7  C   LIG A   1     -10.744   5.223 129.920  0.00  0.00    +0.006 C 
ATOM      8  C   LIG A   1     -10.273   3.879 130.486  0.00  0.00    +0.005 C 
ATOM      9  C   LIG A   1      -9.068   3.376 129.695  0.00  0.00    +0.034 C 
ATOM     10  C   LIG A   1      -8.227   2.294 130.323  0.00  0.00    -0.037 C 
ATOM     11  C   LIG A   1      -8.180   1.090 129.713  0.00  0.00    +0.011 C 
ENDROOT
BRANCH   1  13
ATOM     12  C   LIG A   1      -4.722   4.411 130.998  0.00  0.00    +0.041 C 
ATOM     13  C   LIG A   1      -5.881   5.419 130.884  0.00  0.00    +0.064 C 
ATOM     14  C   LIG A   1      -5.250   6.825 130.890  0.00  0.00    +0.041 C 
BRANCH  13  15
ATOM     15  O   LIG A   1      -6.479   5.228 129.612  0.00  0.00    -0.389 OA
ATOM     16  H   LIG A   1      -6.660   6.097 129.214  0.00  0.00    +0.210 HD
ENDBRANCH  13  15
ENDBRANCH   1  13
BRANCH   3  17
ATOM     17  O   LIG A   1      -7.521   1.413 132.405  0.00  0.00    -0.457 OA
BRANCH  17  18
ATOM     18  C   LIG A   1      -6.468   0.989 133.145  0.00  0.00    +0.304 C 
ATOM     19  C   LIG A   1      -5.245   0.881 132.300  0.00  0.00    +0.136 C 
ATOM     20  O   LIG A   1      -6.495   0.746 134.349  0.00  0.00    -0.251 OA
ENDBRANCH  17  18
ENDBRANCH   3  17
BRANCH   6  21
ATOM     21  C   LIG A   1     -11.173   6.491 132.111  0.00  0.00    +0.159 C 
BRANCH  21  22
ATOM     22  O   LIG A   1     -12.581   6.446 131.895  0.00  0.00    -0.395 OA
ATOM     23  H   LIG A   1     -12.802   5.564 131.548  0.00  0.00    +0.209 HD
ENDBRANCH  21  22
ENDBRANCH   6  21
TORSDOF 6
ENDMDL
MODEL 7
REMARK VINA RESULT:      -5.6      2.023      4.821
REMARK  Name = NuBBE_983
REMARK  9 active torsions:
REMARK  status: ('A' for Active; 'I' for Inactive)
REMARK    1  A    between atoms: C_1  and  C_2
REMARK    2  A    between atoms: C_2  and  C_3
REMARK    3  A    between atoms: C_2  and  O_4
REMARK    4  A    between atoms: C_2  and  C_5
REMARK    5  A    between atoms: C_8  and  O_9
REMARK    6  A    between atoms: O_9  and  C_10
REMARK    7  A    between atoms: C_10  and  C_11
REMARK    8  A    between atoms: C_15  and  C_16
REMARK    9  A    between atoms: C_16  and  O_17
REMARK                            x       y       z     vdW  Elec       q    Type
REMARK                         _______ _______ _______ _____ _____    ______ ____
ROOT
ATOM      1  C   LIG A   1      -9.020  -1.304 125.442  0.00  0.00    +0.024 C 
ATOM      2  C   LIG A   1      -8.688   0.101 126.045  0.00  0.00    +0.055 C 
ATOM      3  C   LIG A   1      -7.495   0.979 125.606  0.00  0.00    +0.202 C 
ATOM      4  C   LIG A   1      -9.155  -2.371 126.581  0.00  0.00    +0.007 C 
ATOM      5  C   LIG A   1      -7.984  -3.301 126.933  0.00  0.00    +0.006 C 
ATOM      6  C   LIG A   1      -7.336  -3.240 128.342  0.00  0.00    +0.015 C 
ATOM      7  C   LIG A   1      -6.026  -2.424 128.382  0.00  0.00    +0.006 C 
ATOM      8  C   LIG A   1      -6.179  -0.925 128.103  0.00  0.00    +0.005 C 
ATOM      9  C   LIG A   1      -5.657  -0.601 126.706  0.00  0.00    +0.034 C 
ATOM     10  C   LIG A   1      -6.070   0.715 126.098  0.00  0.00    -0.037 C 
ATOM     11  C   LIG A   1      -5.109   1.631 125.850  0.00  0.00    +0.011 C 
ENDROOT
BRANCH   1  13
ATOM     12  C   LIG A   1      -8.585  -0.694 122.972  0.00  0.00    +0.041 C 
ATOM     13  C   LIG A   1      -8.398  -1.751 124.076  0.00  0.00    +0.064 C 
ATOM     14  C   LIG A   1      -9.021  -3.058 123.551  0.00  0.00    +0.041 C 
BRANCH  13  15
ATOM     15  O   LIG A   1      -7.004  -1.970 124.215  0.00  0.00    -0.389 OA
ATOM     16  H   LIG A   1      -6.533  -1.430 123.556  0.00  0.00    +0.210 HD
ENDBRANCH  13  15
ENDBRANCH   1  13
BRANCH   3  17
ATOM     17  O   LIG A   1      -7.801   2.333 126.081  0.00  0.00    -0.457 OA
BRANCH  17  18
ATOM     18  C   LIG A   1      -8.265   3.225 125.173  0.00  0.00    +0.304 C 
ATOM     19  C   LIG A   1      -7.919   2.793 123.789  0.00  0.00    +0.136 C 
ATOM     20  O   LIG A   1      -8.906   4.240 125.435  0.00  0.00    -0.251 OA
ENDBRANCH  17  18
ENDBRANCH   3  17
BRANCH   6  21
ATOM     21  C   LIG A   1      -8.292  -2.894 129.494  0.00  0.00    +0.159 C 
BRANCH  21  22
ATOM     22  O   LIG A   1      -7.632  -2.968 130.755  0.00  0.00    -0.395 OA
ATOM     23  H   LIG A   1      -8.106  -3.616 131.303  0.00  0.00    +0.209 HD
ENDBRANCH  21  22
ENDBRANCH   6  21
TORSDOF 6
ENDMDL
MODEL 8
REMARK VINA RESULT:      -5.6      1.190      1.424
REMARK  Name = NuBBE_983
REMARK  9 active torsions:
REMARK  status: ('A' for Active; 'I' for Inactive)
REMARK    1  A    between atoms: C_1  and  C_2
REMARK    2  A    between atoms: C_2  and  C_3
REMARK    3  A    between atoms: C_2  and  O_4
REMARK    4  A    between atoms: C_2  and  C_5
REMARK    5  A    between atoms: C_8  and  O_9
REMARK    6  A    between atoms: O_9  and  C_10
REMARK    7  A    between atoms: C_10  and  C_11
REMARK    8  A    between atoms: C_15  and  C_16
REMARK    9  A    between atoms: C_16  and  O_17
REMARK                            x       y       z     vdW  Elec       q    Type
REMARK                         _______ _______ _______ _____ _____    ______ ____
ROOT
ATOM      1  C   LIG A   1      -5.499  -0.413 127.868  0.00  0.00    +0.024 C 
ATOM      2  C   LIG A   1      -5.589  -1.679 126.954  0.00  0.00    +0.055 C 
ATOM      3  C   LIG A   1      -6.824  -2.058 126.107  0.00  0.00    +0.202 C 
ATOM      4  C   LIG A   1      -5.079  -0.816 129.322  0.00  0.00    +0.007 C 
ATOM      5  C   LIG A   1      -6.131  -0.984 130.430  0.00  0.00    +0.006 C 
ATOM      6  C   LIG A   1      -6.339  -2.366 131.104  0.00  0.00    +0.015 C 
ATOM      7  C   LIG A   1      -7.549  -3.147 130.549  0.00  0.00    +0.006 C 
ATOM      8  C   LIG A   1      -7.427  -3.590 129.087  0.00  0.00    +0.005 C 
ATOM      9  C   LIG A   1      -8.320  -2.721 128.205  0.00  0.00    +0.034 C 
ATOM     10  C   LIG A   1      -8.053  -2.731 126.722  0.00  0.00    -0.037 C 
ATOM     11  C   LIG A   1      -9.009  -3.224 125.906  0.00  0.00    +0.011 C 
ENDROOT
BRANCH   1  13
ATOM     12  C   LIG A   1      -6.653   1.201 126.217  0.00  0.00    +0.041 C 
ATOM     13  C   LIG A   1      -6.508   0.772 127.689  0.00  0.00    +0.064 C 
ATOM     14  C   LIG A   1      -6.083   2.024 128.478  0.00  0.00    +0.041 C 
BRANCH  13  15
ATOM     15  O   LIG A   1      -7.797   0.398 128.146  0.00  0.00    -0.389 OA
ATOM     16  H   LIG A   1      -7.807  -0.561 128.313  0.00  0.00    +0.210 HD
ENDBRANCH  13  15
ENDBRANCH   1  13
BRANCH   3  17
ATOM     17  O   LIG A   1      -6.343  -3.019 125.108  0.00  0.00    -0.457 OA
BRANCH  17  18
ATOM     18  C   LIG A   1      -5.800  -2.521 123.970  0.00  0.00    +0.304 C 
ATOM     19  C   LIG A   1      -4.694  -3.399 123.491  0.00  0.00    +0.136 C 
ATOM     20  O   LIG A   1      -6.171  -1.505 123.389  0.00  0.00    -0.251 OA
ENDBRANCH  17  18
ENDBRANCH   3  17
BRANCH   6  21
ATOM     21  C   LIG A   1      -5.077  -3.232 131.237  0.00  0.00    +0.159 C 
BRANCH  21  22
ATOM     22  O   LIG A   1      -5.368  -4.480 131.860  0.00  0.00    -0.395 OA
ATOM     23  H   LIG A   1      -5.906  -4.302 132.650  0.00  0.00    +0.209 HD
ENDBRANCH  21  22
ENDBRANCH   6  21
TORSDOF 6
ENDMDL
MODEL 9
REMARK VINA RESULT:      -5.6      6.957     10.141
REMARK  Name = NuBBE_983
REMARK  9 active torsions:
REMARK  status: ('A' for Active; 'I' for Inactive)
REMARK    1  A    between atoms: C_1  and  C_2
REMARK    2  A    between atoms: C_2  and  C_3
REMARK    3  A    between atoms: C_2  and  O_4
REMARK    4  A    between atoms: C_2  and  C_5
REMARK    5  A    between atoms: C_8  and  O_9
REMARK    6  A    between atoms: O_9  and  C_10
REMARK    7  A    between atoms: C_10  and  C_11
REMARK    8  A    between atoms: C_15  and  C_16
REMARK    9  A    between atoms: C_16  and  O_17
REMARK                            x       y       z     vdW  Elec       q    Type
REMARK                         _______ _______ _______ _____ _____    ______ ____
ROOT
ATOM      1  C   LIG A   1      -7.605   6.317 132.159  0.00  0.00    +0.024 C 
ATOM      2  C   LIG A   1      -8.706   6.478 131.060  0.00  0.00    +0.055 C 
ATOM      3  C   LIG A   1     -10.031   5.684 131.030  0.00  0.00    +0.202 C 
ATOM      4  C   LIG A   1      -6.213   6.030 131.501  0.00  0.00    +0.007 C 
ATOM      5  C   LIG A   1      -5.672   4.596 131.391  0.00  0.00    +0.006 C 
ATOM      6  C   LIG A   1      -5.419   3.963 129.996  0.00  0.00    +0.015 C 
ATOM      7  C   LIG A   1      -6.551   3.022 129.533  0.00  0.00    +0.006 C 
ATOM      8  C   LIG A   1      -7.899   3.700 129.267  0.00  0.00    +0.005 C 
ATOM      9  C   LIG A   1      -8.876   3.373 130.393  0.00  0.00    +0.034 C 
ATOM     10  C   LIG A   1     -10.101   4.242 130.524  0.00  0.00    -0.037 C 
ATOM     11  C   LIG A   1     -11.310   3.672 130.327  0.00  0.00    +0.011 C 
ENDROOT
BRANCH   1  13
ATOM     12  C   LIG A   1      -6.803   5.784 134.554  0.00  0.00    +0.041 C 
ATOM     13  C   LIG A   1      -7.937   5.624 133.524  0.00  0.00    +0.064 C 
ATOM     14  C   LIG A   1      -8.184   4.112 133.366  0.00  0.00    +0.041 C 
BRANCH  13  15
ATOM     15  O   LIG A   1      -9.105   6.189 134.095  0.00  0.00    -0.389 OA
ATOM     16  H   LIG A   1      -9.035   7.159 134.063  0.00  0.00    +0.210 HD
ENDBRANCH  13  15
ENDBRANCH   1  13
BRANCH   3  17
ATOM     17  O   LIG A   1     -10.922   6.429 130.133  0.00  0.00    -0.457 OA
BRANCH  17  18
ATOM     18  C   LIG A   1     -11.971   7.081 130.691  0.00  0.00    +0.304 C 
ATOM     19  C   LIG A   1     -12.347   8.267 129.869  0.00  0.00    +0.136 C 
ATOM     20  O   LIG A   1     -12.557   6.742 131.715  0.00  0.00    -0.251 OA
ENDBRANCH  17  18
ENDBRANCH   3  17
BRANCH   6  21
ATOM     21  C   LIG A   1      -4.966   4.940 128.901  0.00  0.00    +0.159 C 
BRANCH  21  22
ATOM     22  O   LIG A   1      -4.589   4.248 127.713  0.00  0.00    -0.395 OA
ATOM     23  H   LIG A   1      -3.999   3.518 127.966  0.00  0.00    +0.209 HD
ENDBRANCH  21  22
ENDBRANCH   6  21
TORSDOF 6
ENDMDL
