MODEL 1
REMARK VINA RESULT:      -6.9      0.000      0.000
REMARK  Name = NuBBE_1841
REMARK  12 active torsions:
REMARK  status: ('A' for Active; 'I' for Inactive)
REMARK    1  A    between atoms: O_1  and  C_2
REMARK    2  A    between atoms: O_1  and  C_3
REMARK    3  A    between atoms: C_8  and  C_10
REMARK    4  A    between atoms: C_10  and  C_11
REMARK    5  A    between atoms: C_14  and  C_19
REMARK    6  A    between atoms: C_16  and  C_18
REMARK    7  A    between atoms: C_21  and  O_22
REMARK    8  A    between atoms: O_22  and  C_23
REMARK    9  A    between atoms: C_24  and  O_29
REMARK   10  A    between atoms: C_25  and  O_27
REMARK   11  A    between atoms: O_27  and  C_28
REMARK   12  A    between atoms: O_29  and  C_30
REMARK                            x       y       z     vdW  Elec       q    Type
REMARK                         _______ _______ _______ _____ _____    ______ ____
ROOT
ATOM      1  C   LIG A   1      -7.432  -1.563 127.337  0.00  0.00    +0.151 C 
ATOM      2  C   LIG A   1      -6.032  -1.560 126.769  0.00  0.00    +0.138 C 
ATOM      3  C   LIG A   1      -5.617  -2.273 125.721  0.00  0.00    +0.095 C 
ATOM      4  C   LIG A   1      -6.577  -3.105 124.968  0.00  0.00    +0.185 C 
ATOM      5  O   LIG A   1      -6.189  -3.807 124.050  0.00  0.00    -0.287 OA
ATOM      6  C   LIG A   1      -8.027  -2.964 125.320  0.00  0.00    +0.002 C 
ATOM      7  C   LIG A   1      -8.396  -2.215 126.378  0.00  0.00    +0.023 C 
ATOM      8  O   LIG A   1      -5.222  -0.572 127.304  0.00  0.00    -0.485 OA
ATOM      9  C   LIG A   1      -6.107   0.272 128.069  0.00  0.00    +0.210 C 
ATOM     10  C   LIG A   1      -7.566  -0.068 127.659  0.00  0.00    +0.074 C 
ATOM     11  C   LIG A   1      -8.159   0.751 126.508  0.00  0.00    +0.015 C 
ENDROOT
BRANCH   9  12
ATOM     12  C   LIG A   1      -5.691   1.720 127.933  0.00  0.00    +0.000 A 
ATOM     13  C   LIG A   1      -4.641   2.088 127.089  0.00  0.00    +0.057 A 
ATOM     14  C   LIG A   1      -4.284   3.429 126.913  0.00  0.00    +0.166 A 
ATOM     15  C   LIG A   1      -4.993   4.446 127.588  0.00  0.00    +0.203 A 
ATOM     16  C   LIG A   1      -6.022   4.084 128.481  0.00  0.00    +0.166 A 
ATOM     17  C   LIG A   1      -6.369   2.728 128.628  0.00  0.00    +0.057 A 
BRANCH  14  18
ATOM     18  O   LIG A   1      -3.256   3.804 126.075  0.00  0.00    -0.491 OA
ATOM     19  C   LIG A   1      -1.962   3.335 126.453  0.00  0.00    +0.277 C 
ENDBRANCH  14  18
BRANCH  16  20
ATOM     20  O   LIG A   1      -6.723   5.068 129.132  0.00  0.00    -0.491 OA
ATOM     21  C   LIG A   1      -7.915   4.648 129.793  0.00  0.00    +0.277 C 
ENDBRANCH  16  20
BRANCH  15  22
ATOM     22  O   LIG A   1      -4.620   5.730 127.263  0.00  0.00    -0.488 OA
ATOM     23  C   LIG A   1      -3.690   6.390 128.110  0.00  0.00    +0.277 C 
ENDBRANCH  15  22
ENDBRANCH   9  12
BRANCH   1  24
ATOM     24  O   LIG A   1      -7.378  -2.328 128.556  0.00  0.00    -0.364 OA
ATOM     25  C   LIG A   1      -8.459  -3.225 128.786  0.00  0.00    +0.195 C 
ENDBRANCH   1  24
BRANCH   6  26
ATOM     26  C   LIG A   1      -9.011  -3.676 124.430  0.00  0.00    +0.065 C 
BRANCH  26  27
ATOM     27  C   LIG A   1      -9.436  -2.893 123.212  0.00  0.00    -0.030 C 
ATOM     28  C   LIG A   1      -9.109  -1.625 122.920  0.00  0.00    +0.004 C 
ENDBRANCH  26  27
ENDBRANCH   6  26
TORSDOF 7
ENDMDL
MODEL 2
REMARK VINA RESULT:      -6.9      0.155      2.432
REMARK  Name = NuBBE_1841
REMARK  12 active torsions:
REMARK  status: ('A' for Active; 'I' for Inactive)
REMARK    1  A    between atoms: O_1  and  C_2
REMARK    2  A    between atoms: O_1  and  C_3
REMARK    3  A    between atoms: C_8  and  C_10
REMARK    4  A    between atoms: C_10  and  C_11
REMARK    5  A    between atoms: C_14  and  C_19
REMARK    6  A    between atoms: C_16  and  C_18
REMARK    7  A    between atoms: C_21  and  O_22
REMARK    8  A    between atoms: O_22  and  C_23
REMARK    9  A    between atoms: C_24  and  O_29
REMARK   10  A    between atoms: C_25  and  O_27
REMARK   11  A    between atoms: O_27  and  C_28
REMARK   12  A    between atoms: O_29  and  C_30
REMARK                            x       y       z     vdW  Elec       q    Type
REMARK                         _______ _______ _______ _____ _____    ______ ____
ROOT
ATOM      1  C   LIG A   1      -7.387  -1.561 127.311  0.00  0.00    +0.151 C 
ATOM      2  C   LIG A   1      -6.001  -1.528 126.710  0.00  0.00    +0.138 C 
ATOM      3  C   LIG A   1      -5.592  -2.246 125.663  0.00  0.00    +0.095 C 
ATOM      4  C   LIG A   1      -6.546  -3.115 124.946  0.00  0.00    +0.185 C 
ATOM      5  O   LIG A   1      -6.161  -3.820 124.029  0.00  0.00    -0.287 OA
ATOM      6  C   LIG A   1      -7.991  -3.009 125.330  0.00  0.00    +0.002 C 
ATOM      7  C   LIG A   1      -8.355  -2.254 126.386  0.00  0.00    +0.023 C 
ATOM      8  O   LIG A   1      -5.207  -0.511 127.211  0.00  0.00    -0.485 OA
ATOM      9  C   LIG A   1      -6.096   0.320 127.985  0.00  0.00    +0.210 C 
ATOM     10  C   LIG A   1      -7.554  -0.065 127.615  0.00  0.00    +0.074 C 
ATOM     11  C   LIG A   1      -8.197   0.720 126.467  0.00  0.00    +0.015 C 
ENDROOT
BRANCH   9  12
ATOM     12  C   LIG A   1      -5.723   1.777 127.818  0.00  0.00    +0.000 A 
ATOM     13  C   LIG A   1      -6.416   2.778 128.503  0.00  0.00    +0.057 A 
ATOM     14  C   LIG A   1      -6.045   4.123 128.399  0.00  0.00    +0.166 A 
ATOM     15  C   LIG A   1      -4.944   4.494 127.596  0.00  0.00    +0.203 A 
ATOM     16  C   LIG A   1      -4.269   3.499 126.860  0.00  0.00    +0.166 A 
ATOM     17  C   LIG A   1      -4.656   2.152 126.994  0.00  0.00    +0.057 A 
BRANCH  14  18
ATOM     18  O   LIG A   1      -6.715   5.117 129.078  0.00  0.00    -0.491 OA
ATOM     19  C   LIG A   1      -7.667   4.662 130.039  0.00  0.00    +0.277 C 
ENDBRANCH  14  18
BRANCH  16  20
ATOM     20  O   LIG A   1      -3.191   3.851 126.086  0.00  0.00    -0.491 OA
ATOM     21  C   LIG A   1      -1.942   3.274 126.461  0.00  0.00    +0.277 C 
ENDBRANCH  16  20
BRANCH  15  22
ATOM     22  O   LIG A   1      -4.610   5.828 127.647  0.00  0.00    -0.488 OA
ATOM     23  C   LIG A   1      -3.512   6.211 128.462  0.00  0.00    +0.277 C 
ENDBRANCH  15  22
ENDBRANCH   9  12
BRANCH   1  24
ATOM     24  O   LIG A   1      -7.284  -2.306 128.540  0.00  0.00    -0.364 OA
ATOM     25  C   LIG A   1      -8.371  -3.170 128.848  0.00  0.00    +0.195 C 
ENDBRANCH   1  24
BRANCH   6  26
ATOM     26  C   LIG A   1      -8.976  -3.761 124.474  0.00  0.00    +0.065 C 
BRANCH  26  27
ATOM     27  C   LIG A   1      -9.460  -3.003 123.262  0.00  0.00    -0.030 C 
ATOM     28  C   LIG A   1      -9.104  -1.762 122.898  0.00  0.00    +0.004 C 
ENDBRANCH  26  27
ENDBRANCH   6  26
TORSDOF 7
ENDMDL
MODEL 3
REMARK VINA RESULT:      -6.7      2.895      4.717
REMARK  Name = NuBBE_1841
REMARK  12 active torsions:
REMARK  status: ('A' for Active; 'I' for Inactive)
REMARK    1  A    between atoms: O_1  and  C_2
REMARK    2  A    between atoms: O_1  and  C_3
REMARK    3  A    between atoms: C_8  and  C_10
REMARK    4  A    between atoms: C_10  and  C_11
REMARK    5  A    between atoms: C_14  and  C_19
REMARK    6  A    between atoms: C_16  and  C_18
REMARK    7  A    between atoms: C_21  and  O_22
REMARK    8  A    between atoms: O_22  and  C_23
REMARK    9  A    between atoms: C_24  and  O_29
REMARK   10  A    between atoms: C_25  and  O_27
REMARK   11  A    between atoms: O_27  and  C_28
REMARK   12  A    between atoms: O_29  and  C_30
REMARK                            x       y       z     vdW  Elec       q    Type
REMARK                         _______ _______ _______ _____ _____    ______ ____
ROOT
ATOM      1  C   LIG A   1      -7.652   0.200 124.685  0.00  0.00    +0.151 C 
ATOM      2  C   LIG A   1      -8.457  -0.737 125.555  0.00  0.00    +0.138 C 
ATOM      3  C   LIG A   1      -8.495  -2.065 125.439  0.00  0.00    +0.095 C 
ATOM      4  C   LIG A   1      -7.648  -2.742 124.436  0.00  0.00    +0.185 C 
ATOM      5  O   LIG A   1      -7.728  -3.949 124.283  0.00  0.00    -0.287 OA
ATOM      6  C   LIG A   1      -6.643  -1.902 123.709  0.00  0.00    +0.002 C 
ATOM      7  C   LIG A   1      -6.634  -0.564 123.877  0.00  0.00    +0.023 C 
ATOM      8  O   LIG A   1      -9.019  -0.118 126.659  0.00  0.00    -0.485 OA
ATOM      9  C   LIG A   1      -8.422   1.194 126.704  0.00  0.00    +0.210 C 
ATOM     10  C   LIG A   1      -7.187   1.191 125.762  0.00  0.00    +0.074 C 
ATOM     11  C   LIG A   1      -5.845   0.813 126.397  0.00  0.00    +0.015 C 
ENDROOT
BRANCH   9  12
ATOM     12  C   LIG A   1      -8.170   1.601 128.139  0.00  0.00    +0.000 A 
ATOM     13  C   LIG A   1      -8.176   2.947 128.515  0.00  0.00    +0.057 A 
ATOM     14  C   LIG A   1      -8.000   3.331 129.849  0.00  0.00    +0.166 A 
ATOM     15  C   LIG A   1      -7.819   2.353 130.850  0.00  0.00    +0.203 A 
ATOM     16  C   LIG A   1      -7.761   0.995 130.477  0.00  0.00    +0.166 A 
ATOM     17  C   LIG A   1      -7.955   0.636 129.130  0.00  0.00    +0.057 A 
BRANCH  14  18
ATOM     18  O   LIG A   1      -8.013   4.655 130.232  0.00  0.00    -0.491 OA
ATOM     19  C   LIG A   1      -9.239   5.345 129.993  0.00  0.00    +0.277 C 
ENDBRANCH  14  18
BRANCH  16  20
ATOM     20  O   LIG A   1      -7.597   0.038 131.447  0.00  0.00    -0.491 OA
ATOM     21  C   LIG A   1      -7.831  -1.308 131.038  0.00  0.00    +0.277 C 
ENDBRANCH  16  20
BRANCH  15  22
ATOM     22  O   LIG A   1      -7.755   2.841 132.136  0.00  0.00    -0.488 OA
ATOM     23  C   LIG A   1      -8.923   2.763 132.939  0.00  0.00    +0.277 C 
ENDBRANCH  15  22
ENDBRANCH   9  12
BRANCH   1  24
ATOM     24  O   LIG A   1      -8.587   0.839 123.796  0.00  0.00    -0.364 OA
ATOM     25  C   LIG A   1      -8.107   1.976 123.087  0.00  0.00    +0.195 C 
ENDBRANCH   1  24
BRANCH   6  26
ATOM     26  C   LIG A   1      -5.665  -2.629 122.825  0.00  0.00    +0.065 C 
BRANCH  26  27
ATOM     27  C   LIG A   1      -4.544  -3.318 123.564  0.00  0.00    -0.030 C 
ATOM     28  C   LIG A   1      -4.273  -4.632 123.566  0.00  0.00    +0.004 C 
ENDBRANCH  26  27
ENDBRANCH   6  26
TORSDOF 7
ENDMDL
MODEL 4
REMARK VINA RESULT:      -6.7      2.689      4.532
REMARK  Name = NuBBE_1841
REMARK  12 active torsions:
REMARK  status: ('A' for Active; 'I' for Inactive)
REMARK    1  A    between atoms: O_1  and  C_2
REMARK    2  A    between atoms: O_1  and  C_3
REMARK    3  A    between atoms: C_8  and  C_10
REMARK    4  A    between atoms: C_10  and  C_11
REMARK    5  A    between atoms: C_14  and  C_19
REMARK    6  A    between atoms: C_16  and  C_18
REMARK    7  A    between atoms: C_21  and  O_22
REMARK    8  A    between atoms: O_22  and  C_23
REMARK    9  A    between atoms: C_24  and  O_29
REMARK   10  A    between atoms: C_25  and  O_27
REMARK   11  A    between atoms: O_27  and  C_28
REMARK   12  A    between atoms: O_29  and  C_30
REMARK                            x       y       z     vdW  Elec       q    Type
REMARK                         _______ _______ _______ _____ _____    ______ ____
ROOT
ATOM      1  C   LIG A   1      -7.448   0.740 124.254  0.00  0.00    +0.151 C 
ATOM      2  C   LIG A   1      -8.521   0.042 125.056  0.00  0.00    +0.138 C 
ATOM      3  C   LIG A   1      -8.817  -1.257 124.992  0.00  0.00    +0.095 C 
ATOM      4  C   LIG A   1      -8.019  -2.154 124.131  0.00  0.00    +0.185 C 
ATOM      5  O   LIG A   1      -8.327  -3.328 124.021  0.00  0.00    -0.287 OA
ATOM      6  C   LIG A   1      -6.787  -1.580 123.501  0.00  0.00    +0.002 C 
ATOM      7  C   LIG A   1      -6.523  -0.262 123.611  0.00  0.00    +0.023 C 
ATOM      8  O   LIG A   1      -9.066   0.832 126.054  0.00  0.00    -0.485 OA
ATOM      9  C   LIG A   1      -8.222   2.000 126.118  0.00  0.00    +0.210 C 
ATOM     10  C   LIG A   1      -6.916   1.689 125.338  0.00  0.00    +0.074 C 
ATOM     11  C   LIG A   1      -5.760   1.096 126.150  0.00  0.00    +0.015 C 
ENDROOT
BRANCH   9  12
ATOM     12  C   LIG A   1      -8.056   2.443 127.555  0.00  0.00    +0.000 A 
ATOM     13  C   LIG A   1      -8.537   1.660 128.607  0.00  0.00    +0.057 A 
ATOM     14  C   LIG A   1      -8.341   2.032 129.941  0.00  0.00    +0.166 A 
ATOM     15  C   LIG A   1      -7.637   3.217 130.250  0.00  0.00    +0.203 A 
ATOM     16  C   LIG A   1      -7.192   4.042 129.197  0.00  0.00    +0.166 A 
ATOM     17  C   LIG A   1      -7.391   3.635 127.864  0.00  0.00    +0.057 A 
BRANCH  14  18
ATOM     18  O   LIG A   1      -8.802   1.263 130.987  0.00  0.00    -0.491 OA
ATOM     19  C   LIG A   1      -8.332  -0.085 131.003  0.00  0.00    +0.277 C 
ENDBRANCH  14  18
BRANCH  16  20
ATOM     20  O   LIG A   1      -6.498   5.189 129.490  0.00  0.00    -0.491 OA
ATOM     21  C   LIG A   1      -5.087   5.130 129.292  0.00  0.00    +0.277 C 
ENDBRANCH  16  20
BRANCH  15  22
ATOM     22  O   LIG A   1      -7.420   3.432 131.592  0.00  0.00    -0.488 OA
ATOM     23  C   LIG A   1      -6.182   3.007 132.145  0.00  0.00    +0.277 C 
ENDBRANCH  15  22
ENDBRANCH   9  12
BRANCH   1  24
ATOM     24  O   LIG A   1      -8.125   1.492 123.229  0.00  0.00    -0.364 OA
ATOM     25  C   LIG A   1      -7.396   2.567 122.648  0.00  0.00    +0.195 C 
ENDBRANCH   1  24
BRANCH   6  26
ATOM     26  C   LIG A   1      -5.886  -2.544 122.776  0.00  0.00    +0.065 C 
BRANCH  26  27
ATOM     27  C   LIG A   1      -4.821  -3.176 123.639  0.00  0.00    -0.030 C 
ATOM     28  C   LIG A   1      -4.404  -4.450 123.593  0.00  0.00    +0.004 C 
ENDBRANCH  26  27
ENDBRANCH   6  26
TORSDOF 7
ENDMDL
MODEL 5
REMARK VINA RESULT:      -6.6      2.684      4.305
REMARK  Name = NuBBE_1841
REMARK  12 active torsions:
REMARK  status: ('A' for Active; 'I' for Inactive)
REMARK    1  A    between atoms: O_1  and  C_2
REMARK    2  A    between atoms: O_1  and  C_3
REMARK    3  A    between atoms: C_8  and  C_10
REMARK    4  A    between atoms: C_10  and  C_11
REMARK    5  A    between atoms: C_14  and  C_19
REMARK    6  A    between atoms: C_16  and  C_18
REMARK    7  A    between atoms: C_21  and  O_22
REMARK    8  A    between atoms: O_22  and  C_23
REMARK    9  A    between atoms: C_24  and  O_29
REMARK   10  A    between atoms: C_25  and  O_27
REMARK   11  A    between atoms: O_27  and  C_28
REMARK   12  A    between atoms: O_29  and  C_30
REMARK                            x       y       z     vdW  Elec       q    Type
REMARK                         _______ _______ _______ _____ _____    ______ ____
ROOT
ATOM      1  C   LIG A   1      -7.662   0.848 124.210  0.00  0.00    +0.151 C 
ATOM      2  C   LIG A   1      -8.630   0.076 125.075  0.00  0.00    +0.138 C 
ATOM      3  C   LIG A   1      -8.877  -1.232 124.988  0.00  0.00    +0.095 C 
ATOM      4  C   LIG A   1      -8.123  -2.062 124.027  0.00  0.00    +0.185 C 
ATOM      5  O   LIG A   1      -8.390  -3.245 123.899  0.00  0.00    -0.287 OA
ATOM      6  C   LIG A   1      -6.977  -1.413 123.313  0.00  0.00    +0.002 C 
ATOM      7  C   LIG A   1      -6.758  -0.090 123.451  0.00  0.00    +0.023 C 
ATOM      8  O   LIG A   1      -9.116   0.805 126.147  0.00  0.00    -0.485 OA
ATOM      9  C   LIG A   1      -8.318   2.007 126.181  0.00  0.00    +0.210 C 
ATOM     10  C   LIG A   1      -7.075   1.781 125.278  0.00  0.00    +0.074 C 
ATOM     11  C   LIG A   1      -5.828   1.212 125.963  0.00  0.00    +0.015 C 
ENDROOT
BRANCH   9  12
ATOM     12  C   LIG A   1      -8.043   2.407 127.614  0.00  0.00    +0.000 A 
ATOM     13  C   LIG A   1      -7.395   3.608 127.912  0.00  0.00    +0.057 A 
ATOM     14  C   LIG A   1      -7.185   4.015 129.234  0.00  0.00    +0.166 A 
ATOM     15  C   LIG A   1      -7.639   3.211 130.303  0.00  0.00    +0.203 A 
ATOM     16  C   LIG A   1      -8.248   1.973 130.016  0.00  0.00    +0.166 A 
ATOM     17  C   LIG A   1      -8.459   1.596 128.676  0.00  0.00    +0.057 A 
BRANCH  14  18
ATOM     18  O   LIG A   1      -6.556   5.202 129.539  0.00  0.00    -0.491 OA
ATOM     19  C   LIG A   1      -5.140   5.203 129.360  0.00  0.00    +0.277 C 
ENDBRANCH  14  18
BRANCH  16  20
ATOM     20  O   LIG A   1      -8.701   1.192 131.050  0.00  0.00    -0.491 OA
ATOM     21  C   LIG A   1      -8.359  -0.191 130.980  0.00  0.00    +0.277 C 
ENDBRANCH  16  20
BRANCH  15  22
ATOM     22  O   LIG A   1      -7.466   3.756 131.555  0.00  0.00    -0.488 OA
ATOM     23  C   LIG A   1      -6.395   3.273 132.352  0.00  0.00    +0.277 C 
ENDBRANCH  15  22
ENDBRANCH   9  12
BRANCH   1  24
ATOM     24  O   LIG A   1      -8.459   1.604 123.278  0.00  0.00    -0.364 OA
ATOM     25  C   LIG A   1      -7.820   2.712 122.655  0.00  0.00    +0.195 C 
ENDBRANCH   1  24
BRANCH   6  26
ATOM     26  C   LIG A   1      -6.104  -2.311 122.476  0.00  0.00    +0.065 C 
BRANCH  26  27
ATOM     27  C   LIG A   1      -4.931  -2.909 123.213  0.00  0.00    -0.030 C 
ATOM     28  C   LIG A   1      -4.915  -4.067 123.889  0.00  0.00    +0.004 C 
ENDBRANCH  26  27
ENDBRANCH   6  26
TORSDOF 7
ENDMDL
MODEL 6
REMARK VINA RESULT:      -6.5      2.523      4.491
REMARK  Name = NuBBE_1841
REMARK  12 active torsions:
REMARK  status: ('A' for Active; 'I' for Inactive)
REMARK    1  A    between atoms: O_1  and  C_2
REMARK    2  A    between atoms: O_1  and  C_3
REMARK    3  A    between atoms: C_8  and  C_10
REMARK    4  A    between atoms: C_10  and  C_11
REMARK    5  A    between atoms: C_14  and  C_19
REMARK    6  A    between atoms: C_16  and  C_18
REMARK    7  A    between atoms: C_21  and  O_22
REMARK    8  A    between atoms: O_22  and  C_23
REMARK    9  A    between atoms: C_24  and  O_29
REMARK   10  A    between atoms: C_25  and  O_27
REMARK   11  A    between atoms: O_27  and  C_28
REMARK   12  A    between atoms: O_29  and  C_30
REMARK                            x       y       z     vdW  Elec       q    Type
REMARK                         _______ _______ _______ _____ _____    ______ ____
ROOT
ATOM      1  C   LIG A   1      -7.373   1.031 124.529  0.00  0.00    +0.151 C 
ATOM      2  C   LIG A   1      -8.609   0.794 125.364  0.00  0.00    +0.138 C 
ATOM      3  C   LIG A   1      -9.275  -0.359 125.455  0.00  0.00    +0.095 C 
ATOM      4  C   LIG A   1      -8.772  -1.558 124.756  0.00  0.00    +0.185 C 
ATOM      5  O   LIG A   1      -9.412  -2.596 124.785  0.00  0.00    -0.287 OA
ATOM      6  C   LIG A   1      -7.422  -1.461 124.114  0.00  0.00    +0.002 C 
ATOM      7  C   LIG A   1      -6.781  -0.275 124.065  0.00  0.00    +0.023 C 
ATOM      8  O   LIG A   1      -8.903   1.837 126.225  0.00  0.00    -0.485 OA
ATOM      9  C   LIG A   1      -7.752   2.706 126.176  0.00  0.00    +0.210 C 
ATOM     10  C   LIG A   1      -6.591   1.923 125.504  0.00  0.00    +0.074 C 
ATOM     11  C   LIG A   1      -5.667   1.137 126.439  0.00  0.00    +0.015 C 
ENDROOT
BRANCH   9  12
ATOM     12  C   LIG A   1      -7.472   3.275 127.550  0.00  0.00    +0.000 A 
ATOM     13  C   LIG A   1      -8.213   2.865 128.661  0.00  0.00    +0.057 A 
ATOM     14  C   LIG A   1      -7.926   3.343 129.944  0.00  0.00    +0.166 A 
ATOM     15  C   LIG A   1      -6.864   4.252 130.141  0.00  0.00    +0.203 A 
ATOM     16  C   LIG A   1      -6.142   4.712 129.020  0.00  0.00    +0.166 A 
ATOM     17  C   LIG A   1      -6.443   4.204 127.743  0.00  0.00    +0.057 A 
BRANCH  14  18
ATOM     18  O   LIG A   1      -8.644   2.938 131.048  0.00  0.00    -0.491 OA
ATOM     19  C   LIG A   1     -10.056   3.124 130.956  0.00  0.00    +0.277 C 
ENDBRANCH  14  18
BRANCH  16  20
ATOM     20  O   LIG A   1      -5.101   5.588 129.206  0.00  0.00    -0.491 OA
ATOM     21  C   LIG A   1      -4.124   5.620 128.167  0.00  0.00    +0.277 C 
ENDBRANCH  16  20
BRANCH  15  22
ATOM     22  O   LIG A   1      -6.611   4.577 131.454  0.00  0.00    -0.488 OA
ATOM     23  C   LIG A   1      -7.104   5.816 131.942  0.00  0.00    +0.277 C 
ENDBRANCH  15  22
ENDBRANCH   9  12
BRANCH   1  24
ATOM     24  O   LIG A   1      -7.792   1.799 123.385  0.00  0.00    -0.364 OA
ATOM     25  C   LIG A   1      -6.761   2.438 122.641  0.00  0.00    +0.195 C 
ENDBRANCH   1  24
BRANCH   6  26
ATOM     26  C   LIG A   1      -6.840  -2.736 123.563  0.00  0.00    +0.065 C 
BRANCH  26  27
ATOM     27  C   LIG A   1      -5.345  -2.864 123.724  0.00  0.00    -0.030 C 
ATOM     28  C   LIG A   1      -4.615  -3.978 123.571  0.00  0.00    +0.004 C 
ENDBRANCH  26  27
ENDBRANCH   6  26
TORSDOF 7
ENDMDL
MODEL 7
REMARK VINA RESULT:      -6.3      2.391      3.572
REMARK  Name = NuBBE_1841
REMARK  12 active torsions:
REMARK  status: ('A' for Active; 'I' for Inactive)
REMARK    1  A    between atoms: O_1  and  C_2
REMARK    2  A    between atoms: O_1  and  C_3
REMARK    3  A    between atoms: C_8  and  C_10
REMARK    4  A    between atoms: C_10  and  C_11
REMARK    5  A    between atoms: C_14  and  C_19
REMARK    6  A    between atoms: C_16  and  C_18
REMARK    7  A    between atoms: C_21  and  O_22
REMARK    8  A    between atoms: O_22  and  C_23
REMARK    9  A    between atoms: C_24  and  O_29
REMARK   10  A    between atoms: C_25  and  O_27
REMARK   11  A    between atoms: O_27  and  C_28
REMARK   12  A    between atoms: O_29  and  C_30
REMARK                            x       y       z     vdW  Elec       q    Type
REMARK                         _______ _______ _______ _____ _____    ______ ____
ROOT
ATOM      1  C   LIG A   1      -7.250   1.209 124.477  0.00  0.00    +0.151 C 
ATOM      2  C   LIG A   1      -8.363   1.205 125.499  0.00  0.00    +0.138 C 
ATOM      3  C   LIG A   1      -9.150   0.167 125.786  0.00  0.00    +0.095 C 
ATOM      4  C   LIG A   1      -8.920  -1.136 125.129  0.00  0.00    +0.185 C 
ATOM      5  O   LIG A   1      -9.677  -2.068 125.341  0.00  0.00    -0.287 OA
ATOM      6  C   LIG A   1      -7.684  -1.273 124.294  0.00  0.00    +0.002 C 
ATOM      7  C   LIG A   1      -6.911  -0.196 124.050  0.00  0.00    +0.023 C 
ATOM      8  O   LIG A   1      -8.382   2.335 126.298  0.00  0.00    -0.485 OA
ATOM      9  C   LIG A   1      -7.150   3.027 126.008  0.00  0.00    +0.210 C 
ATOM     10  C   LIG A   1      -6.218   2.046 125.248  0.00  0.00    +0.074 C 
ATOM     11  C   LIG A   1      -5.270   1.202 126.106  0.00  0.00    +0.015 C 
ENDROOT
BRANCH   9  12
ATOM     12  C   LIG A   1      -6.590   3.642 127.272  0.00  0.00    +0.000 A 
ATOM     13  C   LIG A   1      -5.432   4.423 127.238  0.00  0.00    +0.057 A 
ATOM     14  C   LIG A   1      -4.936   5.042 128.390  0.00  0.00    +0.166 A 
ATOM     15  C   LIG A   1      -5.612   4.893 129.621  0.00  0.00    +0.203 A 
ATOM     16  C   LIG A   1      -6.752   4.067 129.678  0.00  0.00    +0.166 A 
ATOM     17  C   LIG A   1      -7.237   3.467 128.501  0.00  0.00    +0.057 A 
BRANCH  14  18
ATOM     18  O   LIG A   1      -3.800   5.822 128.366  0.00  0.00    -0.491 OA
ATOM     19  C   LIG A   1      -2.605   5.143 127.982  0.00  0.00    +0.277 C 
ENDBRANCH  14  18
BRANCH  16  20
ATOM     20  O   LIG A   1      -7.421   3.927 130.870  0.00  0.00    -0.491 OA
ATOM     21  C   LIG A   1      -8.739   4.467 130.909  0.00  0.00    +0.277 C 
ENDBRANCH  16  20
BRANCH  15  22
ATOM     22  O   LIG A   1      -5.091   5.625 130.663  0.00  0.00    -0.488 OA
ATOM     23  C   LIG A   1      -5.703   6.867 130.980  0.00  0.00    +0.277 C 
ENDBRANCH  15  22
ENDBRANCH   9  12
BRANCH   1  24
ATOM     24  O   LIG A   1      -7.738   1.950 123.343  0.00  0.00    -0.364 OA
ATOM     25  C   LIG A   1      -9.121   1.806 123.042  0.00  0.00    +0.195 C 
ENDBRANCH   1  24
BRANCH   6  26
ATOM     26  C   LIG A   1      -7.365  -2.652 123.779  0.00  0.00    +0.065 C 
BRANCH  26  27
ATOM     27  C   LIG A   1      -6.049  -3.212 124.262  0.00  0.00    -0.030 C 
ATOM     28  C   LIG A   1      -4.930  -3.366 123.539  0.00  0.00    +0.004 C 
ENDBRANCH  26  27
ENDBRANCH   6  26
TORSDOF 7
ENDMDL
MODEL 8
REMARK VINA RESULT:      -6.3      3.161      8.001
REMARK  Name = NuBBE_1841
REMARK  12 active torsions:
REMARK  status: ('A' for Active; 'I' for Inactive)
REMARK    1  A    between atoms: O_1  and  C_2
REMARK    2  A    between atoms: O_1  and  C_3
REMARK    3  A    between atoms: C_8  and  C_10
REMARK    4  A    between atoms: C_10  and  C_11
REMARK    5  A    between atoms: C_14  and  C_19
REMARK    6  A    between atoms: C_16  and  C_18
REMARK    7  A    between atoms: C_21  and  O_22
REMARK    8  A    between atoms: O_22  and  C_23
REMARK    9  A    between atoms: C_24  and  O_29
REMARK   10  A    between atoms: C_25  and  O_27
REMARK   11  A    between atoms: O_27  and  C_28
REMARK   12  A    between atoms: O_29  and  C_30
REMARK                            x       y       z     vdW  Elec       q    Type
REMARK                         _______ _______ _______ _____ _____    ______ ____
ROOT
ATOM      1  C   LIG A   1      -3.397   3.442 127.647  0.00  0.00    +0.151 C 
ATOM      2  C   LIG A   1      -4.252   2.438 128.384  0.00  0.00    +0.138 C 
ATOM      3  C   LIG A   1      -4.492   2.437 129.696  0.00  0.00    +0.095 C 
ATOM      4  C   LIG A   1      -3.959   3.522 130.544  0.00  0.00    +0.185 C 
ATOM      5  O   LIG A   1      -4.122   3.491 131.752  0.00  0.00    -0.287 OA
ATOM      6  C   LIG A   1      -3.315   4.682 129.847  0.00  0.00    +0.002 C 
ATOM      7  C   LIG A   1      -3.112   4.641 128.515  0.00  0.00    +0.023 C 
ATOM      8  O   LIG A   1      -4.966   1.600 127.545  0.00  0.00    -0.485 OA
ATOM      9  C   LIG A   1      -4.808   2.158 126.225  0.00  0.00    +0.210 C 
ATOM     10  C   LIG A   1      -4.249   3.599 126.379  0.00  0.00    +0.074 C 
ATOM     11  C   LIG A   1      -5.283   4.725 126.477  0.00  0.00    +0.015 C 
ENDROOT
BRANCH   9  12
ATOM     12  C   LIG A   1      -6.095   2.017 125.443  0.00  0.00    +0.000 A 
ATOM     13  C   LIG A   1      -7.149   1.241 125.930  0.00  0.00    +0.057 A 
ATOM     14  C   LIG A   1      -8.364   1.148 125.243  0.00  0.00    +0.166 A 
ATOM     15  C   LIG A   1      -8.550   1.853 124.034  0.00  0.00    +0.203 A 
ATOM     16  C   LIG A   1      -7.476   2.599 123.506  0.00  0.00    +0.166 A 
ATOM     17  C   LIG A   1      -6.270   2.686 124.226  0.00  0.00    +0.057 A 
BRANCH  14  18
ATOM     18  O   LIG A   1      -9.414   0.393 125.720  0.00  0.00    -0.491 OA
ATOM     19  C   LIG A   1      -9.143  -1.000 125.867  0.00  0.00    +0.277 C 
ENDBRANCH  14  18
BRANCH  16  20
ATOM     20  O   LIG A   1      -7.654   3.296 122.337  0.00  0.00    -0.491 OA
ATOM     21  C   LIG A   1      -6.487   3.475 121.537  0.00  0.00    +0.277 C 
ENDBRANCH  16  20
BRANCH  15  22
ATOM     22  O   LIG A   1      -9.815   1.767 123.498  0.00  0.00    -0.488 OA
ATOM     23  C   LIG A   1     -10.073   0.734 122.558  0.00  0.00    +0.277 C 
ENDBRANCH  15  22
ENDBRANCH   9  12
BRANCH   1  24
ATOM     24  O   LIG A   1      -2.161   2.775 127.332  0.00  0.00    -0.364 OA
ATOM     25  C   LIG A   1      -1.470   3.238 126.176  0.00  0.00    +0.195 C 
ENDBRANCH   1  24
BRANCH   6  26
ATOM     26  C   LIG A   1      -2.939   5.862 130.703  0.00  0.00    +0.065 C 
BRANCH  26  27
ATOM     27  C   LIG A   1      -1.543   5.804 131.273  0.00  0.00    -0.030 C 
ATOM     28  C   LIG A   1      -1.186   5.318 132.471  0.00  0.00    +0.004 C 
ENDBRANCH  26  27
ENDBRANCH   6  26
TORSDOF 7
ENDMDL
MODEL 9
REMARK VINA RESULT:      -6.2      2.950      7.675
REMARK  Name = NuBBE_1841
REMARK  12 active torsions:
REMARK  status: ('A' for Active; 'I' for Inactive)
REMARK    1  A    between atoms: O_1  and  C_2
REMARK    2  A    between atoms: O_1  and  C_3
REMARK    3  A    between atoms: C_8  and  C_10
REMARK    4  A    between atoms: C_10  and  C_11
REMARK    5  A    between atoms: C_14  and  C_19
REMARK    6  A    between atoms: C_16  and  C_18
REMARK    7  A    between atoms: C_21  and  O_22
REMARK    8  A    between atoms: O_22  and  C_23
REMARK    9  A    between atoms: C_24  and  O_29
REMARK   10  A    between atoms: C_25  and  O_27
REMARK   11  A    between atoms: O_27  and  C_28
REMARK   12  A    between atoms: O_29  and  C_30
REMARK                            x       y       z     vdW  Elec       q    Type
REMARK                         _______ _______ _______ _____ _____    ______ ____
ROOT
ATOM      1  C   LIG A   1      -3.644   3.270 127.458  0.00  0.00    +0.151 C 
ATOM      2  C   LIG A   1      -4.439   2.273 128.268  0.00  0.00    +0.138 C 
ATOM      3  C   LIG A   1      -4.551   2.266 129.598  0.00  0.00    +0.095 C 
ATOM      4  C   LIG A   1      -3.922   3.338 130.396  0.00  0.00    +0.185 C 
ATOM      5  O   LIG A   1      -3.969   3.300 131.614  0.00  0.00    -0.287 OA
ATOM      6  C   LIG A   1      -3.331   4.493 129.647  0.00  0.00    +0.002 C 
ATOM      7  C   LIG A   1      -3.258   4.458 128.301  0.00  0.00    +0.023 C 
ATOM      8  O   LIG A   1      -5.243   1.451 127.498  0.00  0.00    -0.485 OA
ATOM      9  C   LIG A   1      -5.204   2.017 126.171  0.00  0.00    +0.210 C 
ATOM     10  C   LIG A   1      -4.612   3.448 126.279  0.00  0.00    +0.074 C 
ATOM     11  C   LIG A   1      -5.614   4.588 126.483  0.00  0.00    +0.015 C 
ENDROOT
BRANCH   9  12
ATOM     12  C   LIG A   1      -6.563   1.900 125.516  0.00  0.00    +0.000 A 
ATOM     13  C   LIG A   1      -6.910   2.713 124.435  0.00  0.00    +0.057 A 
ATOM     14  C   LIG A   1      -8.142   2.576 123.786  0.00  0.00    +0.166 A 
ATOM     15  C   LIG A   1      -9.063   1.595 124.215  0.00  0.00    +0.203 A 
ATOM     16  C   LIG A   1      -8.746   0.804 125.337  0.00  0.00    +0.166 A 
ATOM     17  C   LIG A   1      -7.493   0.954 125.962  0.00  0.00    +0.057 A 
BRANCH  14  18
ATOM     18  O   LIG A   1      -8.491   3.366 122.712  0.00  0.00    -0.491 OA
ATOM     19  C   LIG A   1      -7.528   3.421 121.660  0.00  0.00    +0.277 C 
ENDBRANCH  14  18
BRANCH  16  20
ATOM     20  O   LIG A   1      -9.632  -0.159 125.753  0.00  0.00    -0.491 OA
ATOM     21  C   LIG A   1      -9.151  -1.501 125.722  0.00  0.00    +0.277 C 
ENDBRANCH  16  20
BRANCH  15  22
ATOM     22  O   LIG A   1     -10.198   1.485 123.443  0.00  0.00    -0.488 OA
ATOM     23  C   LIG A   1     -10.243   0.458 122.464  0.00  0.00    +0.277 C 
ENDBRANCH  15  22
ENDBRANCH   9  12
BRANCH   1  24
ATOM     24  O   LIG A   1      -2.454   2.587 127.021  0.00  0.00    -0.364 OA
ATOM     25  C   LIG A   1      -1.600   3.307 126.139  0.00  0.00    +0.195 C 
ENDBRANCH   1  24
BRANCH   6  26
ATOM     26  C   LIG A   1      -2.856   5.661 130.469  0.00  0.00    +0.065 C 
BRANCH  26  27
ATOM     27  C   LIG A   1      -3.914   6.701 130.749  0.00  0.00    -0.030 C 
ATOM     28  C   LIG A   1      -4.289   7.702 129.939  0.00  0.00    +0.004 C 
ENDBRANCH  26  27
ENDBRANCH   6  26
TORSDOF 7
ENDMDL
