MODEL 1
REMARK VINA RESULT:     -10.1      0.000      0.000
REMARK  Name = NuBBE_197
REMARK  12 active torsions:
REMARK  status: ('A' for Active; 'I' for Inactive)
REMARK    1  A    between atoms: O_1  and  C_2
REMARK    2  A    between atoms: C_6  and  C_7
REMARK    3  A    between atoms: C_9  and  C_10
REMARK    4  A    between atoms: C_11  and  O_12
REMARK    5  A    between atoms: O_12  and  C_13
REMARK    6  A    between atoms: C_15  and  O_16
REMARK    7  A    between atoms: C_20  and  C_21
REMARK    8  A    between atoms: C_24  and  O_25
REMARK    9  A    between atoms: O_25  and  C_26
REMARK   10  A    between atoms: C_32  and  O_33
REMARK   11  A    between atoms: C_40  and  O_41
REMARK   12  A    between atoms: O_41  and  C_42
REMARK                            x       y       z     vdW  Elec       q    Type
REMARK                         _______ _______ _______ _____ _____    ______ ____
ROOT
ATOM      1  C   LIG A   1      -7.180   3.566 128.457  0.00  0.00    +0.018 A 
ATOM      2  C   LIG A   1      -7.490   2.635 127.436  0.00  0.00    +0.024 A 
ATOM      3  C   LIG A   1      -6.498   1.973 126.677  0.00  0.00    +0.031 A 
ATOM      4  C   LIG A   1      -5.160   2.299 126.972  0.00  0.00    +0.125 A 
ATOM      5  C   LIG A   1      -4.830   3.178 128.003  0.00  0.00    +0.046 A 
ATOM      6  C   LIG A   1      -5.832   3.799 128.747  0.00  0.00    +0.015 A 
ENDROOT
BRANCH   1  11
ATOM      7  C   LIG A   1     -11.362   6.443 130.986  0.00  0.00    +0.135 A 
ATOM      8  C   LIG A   1     -10.320   5.718 130.405  0.00  0.00    +0.105 A 
ATOM      9  C   LIG A   1      -9.643   4.650 131.145  0.00  0.00    +0.197 A 
ATOM     10  C   LIG A   1      -8.560   3.947 130.458  0.00  0.00    +0.098 A 
ATOM     11  C   LIG A   1      -8.239   4.295 129.203  0.00  0.00    +0.139 A 
ATOM     12  O   LIG A   1      -8.889   5.302 128.488  0.00  0.00    -0.454 OA
ATOM     13  O   LIG A   1      -9.975   4.364 132.289  0.00  0.00    -0.287 OA
ATOM     14  C   LIG A   1      -9.903   6.000 129.108  0.00  0.00    +0.146 A 
ATOM     15  C   LIG A   1     -10.527   7.031 128.395  0.00  0.00    +0.092 A 
ATOM     16  C   LIG A   1     -11.553   7.781 128.989  0.00  0.00    +0.127 A 
ATOM     17  C   LIG A   1     -11.981   7.467 130.280  0.00  0.00    +0.092 A 
BRANCH   7  18
ATOM     18  O   LIG A   1     -11.833   6.202 132.249  0.00  0.00    -0.506 OA
ATOM     19  H   LIG A   1     -11.062   6.168 132.860  0.00  0.00    +0.292 HD
ENDBRANCH   7  18
BRANCH  16  20
ATOM     20  O   LIG A   1     -12.102   8.774 128.219  0.00  0.00    -0.495 OA
ATOM     21  C   LIG A   1     -13.147   9.521 128.842  0.00  0.00    +0.277 C 
ENDBRANCH  16  20
ENDBRANCH   1  11
BRANCH   3  22
ATOM     22  C   LIG A   1      -6.882   0.962 125.643  0.00  0.00    +0.070 A 
ATOM     23  C   LIG A   1      -6.864   1.294 124.264  0.00  0.00    +0.135 A 
ATOM     24  C   LIG A   1      -7.251   0.372 123.288  0.00  0.00    +0.092 A 
ATOM     25  C   LIG A   1      -7.686  -0.898 123.660  0.00  0.00    +0.135 A 
ATOM     26  C   LIG A   1      -7.716  -1.265 125.005  0.00  0.00    +0.106 A 
ATOM     27  C   LIG A   1      -7.300  -0.348 125.987  0.00  0.00    +0.154 A 
ATOM     28  O   LIG A   1      -7.289  -0.679 127.326  0.00  0.00    -0.454 OA
ATOM     29  C   LIG A   1      -7.608  -1.971 127.704  0.00  0.00    +0.139 A 
ATOM     30  C   LIG A   1      -8.051  -2.909 126.864  0.00  0.00    +0.098 A 
ATOM     31  C   LIG A   1      -8.179  -2.607 125.431  0.00  0.00    +0.197 A 
ATOM     32  O   LIG A   1      -8.640  -3.455 124.697  0.00  0.00    -0.287 OA
BRANCH  29  33
ATOM     33  C   LIG A   1      -7.440  -2.251 129.143  0.00  0.00    +0.018 A 
ATOM     34  C   LIG A   1      -6.869  -3.451 129.591  0.00  0.00    +0.015 A 
ATOM     35  C   LIG A   1      -6.719  -3.708 130.963  0.00  0.00    +0.046 A 
ATOM     36  C   LIG A   1      -7.155  -2.772 131.905  0.00  0.00    +0.120 A 
ATOM     37  C   LIG A   1      -7.720  -1.580 131.457  0.00  0.00    +0.046 A 
ATOM     38  C   LIG A   1      -7.872  -1.327 130.099  0.00  0.00    +0.015 A 
BRANCH  36  39
ATOM     39  O   LIG A   1      -7.007  -3.089 133.231  0.00  0.00    -0.495 OA
ATOM     40  C   LIG A   1      -8.217  -3.037 133.992  0.00  0.00    +0.277 C 
ENDBRANCH  36  39
ENDBRANCH  29  33
BRANCH  23  41
ATOM     41  O   LIG A   1      -6.407   2.550 123.939  0.00  0.00    -0.494 OA
ATOM     42  C   LIG A   1      -6.812   3.071 122.676  0.00  0.00    +0.277 C 
ENDBRANCH  23  41
BRANCH  25  43
ATOM     43  O   LIG A   1      -8.064  -1.774 122.684  0.00  0.00    -0.506 OA
ATOM     44  H   LIG A   1      -7.530  -2.582 122.706  0.00  0.00    +0.292 HD
ENDBRANCH  25  43
ENDBRANCH   3  22
BRANCH   4  45
ATOM     45  O   LIG A   1      -4.088   1.794 126.285  0.00  0.00    -0.506 OA
ATOM     46  H   LIG A   1      -3.819   2.445 125.620  0.00  0.00    +0.292 HD
ENDBRANCH   4  45
TORSDOF 9
ENDMDL
MODEL 2
REMARK VINA RESULT:      -9.9      1.815      2.000
REMARK  Name = NuBBE_197
REMARK  12 active torsions:
REMARK  status: ('A' for Active; 'I' for Inactive)
REMARK    1  A    between atoms: O_1  and  C_2
REMARK    2  A    between atoms: C_6  and  C_7
REMARK    3  A    between atoms: C_9  and  C_10
REMARK    4  A    between atoms: C_11  and  O_12
REMARK    5  A    between atoms: O_12  and  C_13
REMARK    6  A    between atoms: C_15  and  O_16
REMARK    7  A    between atoms: C_20  and  C_21
REMARK    8  A    between atoms: C_24  and  O_25
REMARK    9  A    between atoms: O_25  and  C_26
REMARK   10  A    between atoms: C_32  and  O_33
REMARK   11  A    between atoms: C_40  and  O_41
REMARK   12  A    between atoms: O_41  and  C_42
REMARK                            x       y       z     vdW  Elec       q    Type
REMARK                         _______ _______ _______ _____ _____    ______ ____
ROOT
ATOM      1  C   LIG A   1      -6.981   4.070 128.495  0.00  0.00    +0.018 A 
ATOM      2  C   LIG A   1      -7.169   3.127 127.456  0.00  0.00    +0.024 A 
ATOM      3  C   LIG A   1      -6.101   2.612 126.687  0.00  0.00    +0.031 A 
ATOM      4  C   LIG A   1      -4.816   3.100 126.991  0.00  0.00    +0.125 A 
ATOM      5  C   LIG A   1      -4.601   3.995 128.038  0.00  0.00    +0.046 A 
ATOM      6  C   LIG A   1      -5.673   4.468 128.792  0.00  0.00    +0.015 A 
ENDROOT
BRANCH   1  11
ATOM      7  C   LIG A   1     -11.498   6.333 131.070  0.00  0.00    +0.135 A 
ATOM      8  C   LIG A   1     -10.372   5.761 130.478  0.00  0.00    +0.105 A 
ATOM      9  C   LIG A   1      -9.550   4.790 131.205  0.00  0.00    +0.197 A 
ATOM     10  C   LIG A   1      -8.386   4.246 130.507  0.00  0.00    +0.098 A 
ATOM     11  C   LIG A   1      -8.124   4.643 129.252  0.00  0.00    +0.139 A 
ATOM     12  O   LIG A   1      -8.910   5.557 128.549  0.00  0.00    -0.454 OA
ATOM     13  O   LIG A   1      -9.832   4.454 132.348  0.00  0.00    -0.287 OA
ATOM     14  C   LIG A   1     -10.005   6.106 129.180  0.00  0.00    +0.146 A 
ATOM     15  C   LIG A   1     -10.768   7.047 128.478  0.00  0.00    +0.092 A 
ATOM     16  C   LIG A   1     -11.883   7.646 129.084  0.00  0.00    +0.127 A 
ATOM     17  C   LIG A   1     -12.255   7.268 130.376  0.00  0.00    +0.092 A 
BRANCH   7  18
ATOM     18  O   LIG A   1     -11.923   6.022 132.334  0.00  0.00    -0.506 OA
ATOM     19  H   LIG A   1     -12.627   5.337 132.258  0.00  0.00    +0.292 HD
ENDBRANCH   7  18
BRANCH  16  20
ATOM     20  O   LIG A   1     -12.567   8.561 128.325  0.00  0.00    -0.495 OA
ATOM     21  C   LIG A   1     -13.062   9.695 129.037  0.00  0.00    +0.277 C 
ENDBRANCH  16  20
ENDBRANCH   1  11
BRANCH   3  22
ATOM     22  C   LIG A   1      -6.353   1.580 125.633  0.00  0.00    +0.070 A 
ATOM     23  C   LIG A   1      -6.805   1.959 124.342  0.00  0.00    +0.135 A 
ATOM     24  C   LIG A   1      -7.076   1.005 123.357  0.00  0.00    +0.092 A 
ATOM     25  C   LIG A   1      -6.925  -0.351 123.637  0.00  0.00    +0.135 A 
ATOM     26  C   LIG A   1      -6.480  -0.765 124.892  0.00  0.00    +0.106 A 
ATOM     27  C   LIG A   1      -6.180   0.195 125.876  0.00  0.00    +0.154 A 
ATOM     28  O   LIG A   1      -5.712  -0.171 127.122  0.00  0.00    -0.454 OA
ATOM     29  C   LIG A   1      -5.446  -1.503 127.378  0.00  0.00    +0.139 A 
ATOM     30  C   LIG A   1      -5.729  -2.499 126.534  0.00  0.00    +0.098 A 
ATOM     31  C   LIG A   1      -6.315  -2.201 125.220  0.00  0.00    +0.197 A 
ATOM     32  O   LIG A   1      -6.617  -3.124 124.495  0.00  0.00    -0.287 OA
BRANCH  29  33
ATOM     33  C   LIG A   1      -4.830  -1.767 128.693  0.00  0.00    +0.018 A 
ATOM     34  C   LIG A   1      -4.821  -0.793 129.703  0.00  0.00    +0.015 A 
ATOM     35  C   LIG A   1      -4.226  -1.055 130.947  0.00  0.00    +0.046 A 
ATOM     36  C   LIG A   1      -3.619  -2.290 131.191  0.00  0.00    +0.120 A 
ATOM     37  C   LIG A   1      -3.631  -3.255 130.187  0.00  0.00    +0.046 A 
ATOM     38  C   LIG A   1      -4.216  -2.995 128.953  0.00  0.00    +0.015 A 
BRANCH  36  39
ATOM     39  O   LIG A   1      -3.031  -2.478 132.415  0.00  0.00    -0.495 OA
ATOM     40  C   LIG A   1      -2.610  -1.274 133.063  0.00  0.00    +0.277 C 
ENDBRANCH  36  39
ENDBRANCH  29  33
BRANCH  23  41
ATOM     41  O   LIG A   1      -6.920   3.307 124.101  0.00  0.00    -0.494 OA
ATOM     42  C   LIG A   1      -5.957   3.887 123.225  0.00  0.00    +0.277 C 
ENDBRANCH  23  41
BRANCH  25  43
ATOM     43  O   LIG A   1      -7.204  -1.258 122.656  0.00  0.00    -0.506 OA
ATOM     44  H   LIG A   1      -6.549  -1.224 121.943  0.00  0.00    +0.292 HD
ENDBRANCH  25  43
ENDBRANCH   3  22
BRANCH   4  45
ATOM     45  O   LIG A   1      -3.688   2.750 126.295  0.00  0.00    -0.506 OA
ATOM     46  H   LIG A   1      -3.039   2.401 126.924  0.00  0.00    +0.292 HD
ENDBRANCH   4  45
TORSDOF 9
ENDMDL
MODEL 3
REMARK VINA RESULT:      -9.5      2.789      9.484
REMARK  Name = NuBBE_197
REMARK  12 active torsions:
REMARK  status: ('A' for Active; 'I' for Inactive)
REMARK    1  A    between atoms: O_1  and  C_2
REMARK    2  A    between atoms: C_6  and  C_7
REMARK    3  A    between atoms: C_9  and  C_10
REMARK    4  A    between atoms: C_11  and  O_12
REMARK    5  A    between atoms: O_12  and  C_13
REMARK    6  A    between atoms: C_15  and  O_16
REMARK    7  A    between atoms: C_20  and  C_21
REMARK    8  A    between atoms: C_24  and  O_25
REMARK    9  A    between atoms: O_25  and  C_26
REMARK   10  A    between atoms: C_32  and  O_33
REMARK   11  A    between atoms: C_40  and  O_41
REMARK   12  A    between atoms: O_41  and  C_42
REMARK                            x       y       z     vdW  Elec       q    Type
REMARK                         _______ _______ _______ _____ _____    ______ ____
ROOT
ATOM      1  C   LIG A   1      -6.821   2.532 126.719  0.00  0.00    +0.018 A 
ATOM      2  C   LIG A   1      -6.812   2.442 128.132  0.00  0.00    +0.024 A 
ATOM      3  C   LIG A   1      -6.219   3.423 128.958  0.00  0.00    +0.031 A 
ATOM      4  C   LIG A   1      -5.607   4.509 128.303  0.00  0.00    +0.125 A 
ATOM      5  C   LIG A   1      -5.642   4.643 126.916  0.00  0.00    +0.046 A 
ATOM      6  C   LIG A   1      -6.254   3.667 126.130  0.00  0.00    +0.015 A 
ENDROOT
BRANCH   1  11
ATOM      7  C   LIG A   1      -8.817  -1.792 123.642  0.00  0.00    +0.135 A 
ATOM      8  C   LIG A   1      -8.358  -0.701 124.380  0.00  0.00    +0.105 A 
ATOM      9  C   LIG A   1      -9.169   0.513 124.511  0.00  0.00    +0.197 A 
ATOM     10  C   LIG A   1      -8.606   1.608 125.300  0.00  0.00    +0.098 A 
ATOM     11  C   LIG A   1      -7.399   1.461 125.867  0.00  0.00    +0.139 A 
ATOM     12  O   LIG A   1      -6.628   0.303 125.757  0.00  0.00    -0.454 OA
ATOM     13  O   LIG A   1     -10.269   0.599 123.980  0.00  0.00    -0.287 OA
ATOM     14  C   LIG A   1      -7.116  -0.744 125.006  0.00  0.00    +0.146 A 
ATOM     15  C   LIG A   1      -6.321  -1.889 124.874  0.00  0.00    +0.092 A 
ATOM     16  C   LIG A   1      -6.767  -2.975 124.106  0.00  0.00    +0.127 A 
ATOM     17  C   LIG A   1      -8.028  -2.928 123.508  0.00  0.00    +0.092 A 
BRANCH   7  18
ATOM     18  O   LIG A   1     -10.036  -1.821 123.019  0.00  0.00    -0.506 OA
ATOM     19  H   LIG A   1      -9.985  -1.243 122.223  0.00  0.00    +0.292 HD
ENDBRANCH   7  18
BRANCH  16  20
ATOM     20  O   LIG A   1      -5.920  -4.051 124.027  0.00  0.00    -0.495 OA
ATOM     21  C   LIG A   1      -4.583  -3.744 123.631  0.00  0.00    +0.277 C 
ENDBRANCH  16  20
ENDBRANCH   1  11
BRANCH   3  22
ATOM     22  C   LIG A   1      -6.282   3.300 130.448  0.00  0.00    +0.070 A 
ATOM     23  C   LIG A   1      -5.282   2.586 131.158  0.00  0.00    +0.135 A 
ATOM     24  C   LIG A   1      -5.344   2.433 132.547  0.00  0.00    +0.092 A 
ATOM     25  C   LIG A   1      -6.411   2.970 133.261  0.00  0.00    +0.135 A 
ATOM     26  C   LIG A   1      -7.413   3.681 132.601  0.00  0.00    +0.106 A 
ATOM     27  C   LIG A   1      -7.338   3.860 131.208  0.00  0.00    +0.154 A 
ATOM     28  O   LIG A   1      -8.294   4.579 130.520  0.00  0.00    -0.454 OA
ATOM     29  C   LIG A   1      -9.298   5.215 131.227  0.00  0.00    +0.139 A 
ATOM     30  C   LIG A   1      -9.486   5.083 132.542  0.00  0.00    +0.098 A 
ATOM     31  C   LIG A   1      -8.564   4.258 133.335  0.00  0.00    +0.197 A 
ATOM     32  O   LIG A   1      -8.789   4.107 134.517  0.00  0.00    -0.287 OA
BRANCH  29  33
ATOM     33  C   LIG A   1     -10.188   6.060 130.407  0.00  0.00    +0.018 A 
ATOM     34  C   LIG A   1     -11.531   5.715 130.197  0.00  0.00    +0.015 A 
ATOM     35  C   LIG A   1     -12.366   6.525 129.411  0.00  0.00    +0.046 A 
ATOM     36  C   LIG A   1     -11.862   7.682 128.812  0.00  0.00    +0.120 A 
ATOM     37  C   LIG A   1     -10.528   8.023 129.024  0.00  0.00    +0.046 A 
ATOM     38  C   LIG A   1      -9.700   7.220 129.799  0.00  0.00    +0.015 A 
BRANCH  36  39
ATOM     39  O   LIG A   1     -12.717   8.419 128.034  0.00  0.00    -0.495 OA
ATOM     40  C   LIG A   1     -13.350   9.507 128.714  0.00  0.00    +0.277 C 
ENDBRANCH  36  39
ENDBRANCH  29  33
BRANCH  23  41
ATOM     41  O   LIG A   1      -4.234   2.091 130.418  0.00  0.00    -0.494 OA
ATOM     42  C   LIG A   1      -4.191   0.679 130.232  0.00  0.00    +0.277 C 
ENDBRANCH  23  41
BRANCH  25  43
ATOM     43  O   LIG A   1      -6.447   2.798 134.615  0.00  0.00    -0.506 OA
ATOM     44  H   LIG A   1      -5.592   2.496 134.957  0.00  0.00    +0.292 HD
ENDBRANCH  25  43
ENDBRANCH   3  22
BRANCH   4  45
ATOM     45  O   LIG A   1      -4.934   5.507 128.958  0.00  0.00    -0.506 OA
ATOM     46  H   LIG A   1      -4.355   5.953 128.321  0.00  0.00    +0.292 HD
ENDBRANCH   4  45
TORSDOF 9
ENDMDL
MODEL 4
REMARK VINA RESULT:      -9.4      1.616      5.533
REMARK  Name = NuBBE_197
REMARK  12 active torsions:
REMARK  status: ('A' for Active; 'I' for Inactive)
REMARK    1  A    between atoms: O_1  and  C_2
REMARK    2  A    between atoms: C_6  and  C_7
REMARK    3  A    between atoms: C_9  and  C_10
REMARK    4  A    between atoms: C_11  and  O_12
REMARK    5  A    between atoms: O_12  and  C_13
REMARK    6  A    between atoms: C_15  and  O_16
REMARK    7  A    between atoms: C_20  and  C_21
REMARK    8  A    between atoms: C_24  and  O_25
REMARK    9  A    between atoms: O_25  and  C_26
REMARK   10  A    between atoms: C_32  and  O_33
REMARK   11  A    between atoms: C_40  and  O_41
REMARK   12  A    between atoms: O_41  and  C_42
REMARK                            x       y       z     vdW  Elec       q    Type
REMARK                         _______ _______ _______ _____ _____    ______ ____
ROOT
ATOM      1  C   LIG A   1      -7.493   3.019 129.740  0.00  0.00    +0.018 A 
ATOM      2  C   LIG A   1      -7.922   1.720 129.380  0.00  0.00    +0.024 A 
ATOM      3  C   LIG A   1      -7.029   0.705 128.967  0.00  0.00    +0.031 A 
ATOM      4  C   LIG A   1      -5.666   1.054 128.910  0.00  0.00    +0.125 A 
ATOM      5  C   LIG A   1      -5.215   2.313 129.303  0.00  0.00    +0.046 A 
ATOM      6  C   LIG A   1      -6.120   3.285 129.725  0.00  0.00    +0.015 A 
ENDROOT
BRANCH   1  11
ATOM      7  C   LIG A   1     -11.297   7.080 130.837  0.00  0.00    +0.135 A 
ATOM      8  C   LIG A   1     -10.349   6.080 130.612  0.00  0.00    +0.105 A 
ATOM      9  C   LIG A   1      -9.783   5.316 131.727  0.00  0.00    +0.197 A 
ATOM     10  C   LIG A   1      -8.794   4.291 131.397  0.00  0.00    +0.098 A 
ATOM     11  C   LIG A   1      -8.454   4.089 130.115  0.00  0.00    +0.139 A 
ATOM     12  O   LIG A   1      -9.000   4.804 129.048  0.00  0.00    -0.454 OA
ATOM     13  O   LIG A   1     -10.128   5.532 132.882  0.00  0.00    -0.287 OA
ATOM     14  C   LIG A   1      -9.922   5.791 129.320  0.00  0.00    +0.146 A 
ATOM     15  C   LIG A   1     -10.439   6.526 128.246  0.00  0.00    +0.092 A 
ATOM     16  C   LIG A   1     -11.368   7.552 128.473  0.00  0.00    +0.127 A 
ATOM     17  C   LIG A   1     -11.809   7.810 129.773  0.00  0.00    +0.092 A 
BRANCH   7  18
ATOM     18  O   LIG A   1     -11.773   7.398 132.080  0.00  0.00    -0.506 OA
ATOM     19  H   LIG A   1     -11.736   8.377 132.179  0.00  0.00    +0.292 HD
ENDBRANCH   7  18
BRANCH  16  20
ATOM     20  O   LIG A   1     -11.815   8.222 127.364  0.00  0.00    -0.495 OA
ATOM     21  C   LIG A   1     -12.115   7.400 126.235  0.00  0.00    +0.277 C 
ENDBRANCH  16  20
ENDBRANCH   1  11
BRANCH   3  22
ATOM     22  C   LIG A   1      -7.534  -0.666 128.644  0.00  0.00    +0.070 A 
ATOM     23  C   LIG A   1      -7.693  -1.638 129.666  0.00  0.00    +0.135 A 
ATOM     24  C   LIG A   1      -8.133  -2.933 129.376  0.00  0.00    +0.092 A 
ATOM     25  C   LIG A   1      -8.406  -3.300 128.061  0.00  0.00    +0.135 A 
ATOM     26  C   LIG A   1      -8.266  -2.373 127.028  0.00  0.00    +0.106 A 
ATOM     27  C   LIG A   1      -7.850  -1.062 127.321  0.00  0.00    +0.154 A 
ATOM     28  O   LIG A   1      -7.724  -0.107 126.333  0.00  0.00    -0.454 OA
ATOM     29  C   LIG A   1      -8.101  -0.420 125.040  0.00  0.00    +0.139 A 
ATOM     30  C   LIG A   1      -8.472  -1.640 124.643  0.00  0.00    +0.098 A 
ATOM     31  C   LIG A   1      -8.544  -2.737 125.618  0.00  0.00    +0.197 A 
ATOM     32  O   LIG A   1      -8.827  -3.848 125.224  0.00  0.00    -0.287 OA
BRANCH  29  33
ATOM     33  C   LIG A   1      -8.047   0.709 124.092  0.00  0.00    +0.018 A 
ATOM     34  C   LIG A   1      -9.204   1.185 123.457  0.00  0.00    +0.015 A 
ATOM     35  C   LIG A   1      -9.138   2.257 122.553  0.00  0.00    +0.046 A 
ATOM     36  C   LIG A   1      -7.910   2.855 122.260  0.00  0.00    +0.120 A 
ATOM     37  C   LIG A   1      -6.763   2.382 122.893  0.00  0.00    +0.046 A 
ATOM     38  C   LIG A   1      -6.827   1.319 123.785  0.00  0.00    +0.015 A 
BRANCH  36  39
ATOM     39  O   LIG A   1      -7.904   3.881 121.349  0.00  0.00    -0.495 OA
ATOM     40  C   LIG A   1      -8.954   3.819 120.380  0.00  0.00    +0.277 C 
ENDBRANCH  36  39
ENDBRANCH  29  33
BRANCH  23  41
ATOM     41  O   LIG A   1      -7.433  -1.229 130.952  0.00  0.00    -0.494 OA
ATOM     42  C   LIG A   1      -7.481  -2.229 131.965  0.00  0.00    +0.277 C 
ENDBRANCH  23  41
BRANCH  25  43
ATOM     43  O   LIG A   1      -8.828  -4.574 127.809  0.00  0.00    -0.506 OA
ATOM     44  H   LIG A   1      -8.390  -5.214 128.391  0.00  0.00    +0.292 HD
ENDBRANCH  25  43
ENDBRANCH   3  22
BRANCH   4  45
ATOM     45  O   LIG A   1      -4.685   0.205 128.469  0.00  0.00    -0.506 OA
ATOM     46  H   LIG A   1      -4.704  -0.593 129.017  0.00  0.00    +0.292 HD
ENDBRANCH   4  45
TORSDOF 9
ENDMDL
MODEL 5
REMARK VINA RESULT:      -9.4      3.281      7.518
REMARK  Name = NuBBE_197
REMARK  12 active torsions:
REMARK  status: ('A' for Active; 'I' for Inactive)
REMARK    1  A    between atoms: O_1  and  C_2
REMARK    2  A    between atoms: C_6  and  C_7
REMARK    3  A    between atoms: C_9  and  C_10
REMARK    4  A    between atoms: C_11  and  O_12
REMARK    5  A    between atoms: O_12  and  C_13
REMARK    6  A    between atoms: C_15  and  O_16
REMARK    7  A    between atoms: C_20  and  C_21
REMARK    8  A    between atoms: C_24  and  O_25
REMARK    9  A    between atoms: O_25  and  C_26
REMARK   10  A    between atoms: C_32  and  O_33
REMARK   11  A    between atoms: C_40  and  O_41
REMARK   12  A    between atoms: O_41  and  C_42
REMARK                            x       y       z     vdW  Elec       q    Type
REMARK                         _______ _______ _______ _____ _____    ______ ____
ROOT
ATOM      1  C   LIG A   1      -4.935   4.010 126.754  0.00  0.00    +0.018 A 
ATOM      2  C   LIG A   1      -5.733   4.315 127.882  0.00  0.00    +0.024 A 
ATOM      3  C   LIG A   1      -5.208   4.395 129.193  0.00  0.00    +0.031 A 
ATOM      4  C   LIG A   1      -3.832   4.134 129.334  0.00  0.00    +0.125 A 
ATOM      5  C   LIG A   1      -3.017   3.876 128.232  0.00  0.00    +0.046 A 
ATOM      6  C   LIG A   1      -3.562   3.824 126.951  0.00  0.00    +0.015 A 
ENDROOT
BRANCH   1  11
ATOM      7  C   LIG A   1      -7.477   3.433 121.718  0.00  0.00    +0.135 A 
ATOM      8  C   LIG A   1      -6.813   3.588 122.935  0.00  0.00    +0.105 A 
ATOM      9  C   LIG A   1      -5.550   4.327 123.014  0.00  0.00    +0.197 A 
ATOM     10  C   LIG A   1      -4.923   4.435 124.331  0.00  0.00    +0.098 A 
ATOM     11  C   LIG A   1      -5.517   3.873 125.394  0.00  0.00    +0.139 A 
ATOM     12  O   LIG A   1      -6.727   3.179 125.328  0.00  0.00    -0.454 OA
ATOM     13  O   LIG A   1      -5.047   4.829 122.017  0.00  0.00    -0.287 OA
ATOM     14  C   LIG A   1      -7.339   3.040 124.101  0.00  0.00    +0.146 A 
ATOM     15  C   LIG A   1      -8.535   2.314 124.039  0.00  0.00    +0.092 A 
ATOM     16  C   LIG A   1      -9.188   2.131 122.811  0.00  0.00    +0.127 A 
ATOM     17  C   LIG A   1      -8.663   2.712 121.655  0.00  0.00    +0.092 A 
BRANCH   7  18
ATOM     18  O   LIG A   1      -7.024   3.964 120.541  0.00  0.00    -0.506 OA
ATOM     19  H   LIG A   1      -7.806   4.193 119.988  0.00  0.00    +0.292 HD
ENDBRANCH   7  18
BRANCH  16  20
ATOM     20  O   LIG A   1     -10.349   1.402 122.844  0.00  0.00    -0.495 OA
ATOM     21  C   LIG A   1     -10.220   0.034 122.457  0.00  0.00    +0.277 C 
ENDBRANCH  16  20
ENDBRANCH   1  11
BRANCH   3  22
ATOM     22  C   LIG A   1      -6.090   4.770 130.342  0.00  0.00    +0.070 A 
ATOM     23  C   LIG A   1      -6.122   6.104 130.825  0.00  0.00    +0.135 A 
ATOM     24  C   LIG A   1      -6.916   6.463 131.918  0.00  0.00    +0.092 A 
ATOM     25  C   LIG A   1      -7.682   5.501 132.571  0.00  0.00    +0.135 A 
ATOM     26  C   LIG A   1      -7.681   4.179 132.125  0.00  0.00    +0.106 A 
ATOM     27  C   LIG A   1      -6.905   3.821 131.009  0.00  0.00    +0.154 A 
ATOM     28  O   LIG A   1      -6.895   2.531 130.519  0.00  0.00    -0.454 OA
ATOM     29  C   LIG A   1      -7.737   1.590 131.083  0.00  0.00    +0.139 A 
ATOM     30  C   LIG A   1      -8.486   1.809 132.167  0.00  0.00    +0.098 A 
ATOM     31  C   LIG A   1      -8.482   3.133 132.804  0.00  0.00    +0.197 A 
ATOM     32  O   LIG A   1      -9.124   3.291 133.820  0.00  0.00    -0.287 OA
BRANCH  29  33
ATOM     33  C   LIG A   1      -7.741   0.281 130.402  0.00  0.00    +0.018 A 
ATOM     34  C   LIG A   1      -7.907  -0.914 131.118  0.00  0.00    +0.015 A 
ATOM     35  C   LIG A   1      -7.904  -2.153 130.459  0.00  0.00    +0.046 A 
ATOM     36  C   LIG A   1      -7.719  -2.213 129.075  0.00  0.00    +0.120 A 
ATOM     37  C   LIG A   1      -7.557  -1.025 128.366  0.00  0.00    +0.046 A 
ATOM     38  C   LIG A   1      -7.556   0.202 129.019  0.00  0.00    +0.015 A 
BRANCH  36  39
ATOM     39  O   LIG A   1      -7.698  -3.453 128.490  0.00  0.00    -0.495 OA
ATOM     40  C   LIG A   1      -8.960  -3.884 127.971  0.00  0.00    +0.277 C 
ENDBRANCH  36  39
ENDBRANCH  29  33
BRANCH  23  41
ATOM     41  O   LIG A   1      -5.369   7.026 130.139  0.00  0.00    -0.494 OA
ATOM     42  C   LIG A   1      -4.247   7.575 130.824  0.00  0.00    +0.277 C 
ENDBRANCH  23  41
BRANCH  25  43
ATOM     43  O   LIG A   1      -8.441   5.881 133.640  0.00  0.00    -0.506 OA
ATOM     44  H   LIG A   1      -9.360   6.049 133.380  0.00  0.00    +0.292 HD
ENDBRANCH  25  43
ENDBRANCH   3  22
BRANCH   4  45
ATOM     45  O   LIG A   1      -3.186   4.108 130.543  0.00  0.00    -0.506 OA
ATOM     46  H   LIG A   1      -2.984   3.186 130.760  0.00  0.00    +0.292 HD
ENDBRANCH   4  45
TORSDOF 9
ENDMDL
MODEL 6
REMARK VINA RESULT:      -9.2      3.628      7.712
REMARK  Name = NuBBE_197
REMARK  12 active torsions:
REMARK  status: ('A' for Active; 'I' for Inactive)
REMARK    1  A    between atoms: O_1  and  C_2
REMARK    2  A    between atoms: C_6  and  C_7
REMARK    3  A    between atoms: C_9  and  C_10
REMARK    4  A    between atoms: C_11  and  O_12
REMARK    5  A    between atoms: O_12  and  C_13
REMARK    6  A    between atoms: C_15  and  O_16
REMARK    7  A    between atoms: C_20  and  C_21
REMARK    8  A    between atoms: C_24  and  O_25
REMARK    9  A    between atoms: O_25  and  C_26
REMARK   10  A    between atoms: C_32  and  O_33
REMARK   11  A    between atoms: C_40  and  O_41
REMARK   12  A    between atoms: O_41  and  C_42
REMARK                            x       y       z     vdW  Elec       q    Type
REMARK                         _______ _______ _______ _____ _____    ______ ____
ROOT
ATOM      1  C   LIG A   1      -6.623   2.753 130.833  0.00  0.00    +0.018 A 
ATOM      2  C   LIG A   1      -6.243   1.500 131.372  0.00  0.00    +0.024 A 
ATOM      3  C   LIG A   1      -7.178   0.571 131.883  0.00  0.00    +0.031 A 
ATOM      4  C   LIG A   1      -8.532   0.960 131.850  0.00  0.00    +0.125 A 
ATOM      5  C   LIG A   1      -8.933   2.168 131.283  0.00  0.00    +0.046 A 
ATOM      6  C   LIG A   1      -7.988   3.054 130.769  0.00  0.00    +0.015 A 
ENDROOT
BRANCH   1  11
ATOM      7  C   LIG A   1      -2.561   6.376 129.245  0.00  0.00    +0.135 A 
ATOM      8  C   LIG A   1      -3.587   5.500 129.600  0.00  0.00    +0.105 A 
ATOM      9  C   LIG A   1      -4.679   5.203 128.670  0.00  0.00    +0.197 A 
ATOM     10  C   LIG A   1      -5.712   4.276 129.129  0.00  0.00    +0.098 A 
ATOM     11  C   LIG A   1      -5.620   3.739 130.355  0.00  0.00    +0.139 A 
ATOM     12  O   LIG A   1      -4.575   4.007 131.241  0.00  0.00    -0.454 OA
ATOM     13  O   LIG A   1      -4.718   5.713 127.557  0.00  0.00    -0.287 OA
ATOM     14  C   LIG A   1      -3.592   4.890 130.852  0.00  0.00    +0.146 A 
ATOM     15  C   LIG A   1      -2.566   5.179 131.759  0.00  0.00    +0.092 A 
ATOM     16  C   LIG A   1      -1.550   6.084 131.415  0.00  0.00    +0.127 A 
ATOM     17  C   LIG A   1      -1.543   6.664 130.145  0.00  0.00    +0.092 A 
BRANCH   7  18
ATOM     18  O   LIG A   1      -2.487   6.992 128.024  0.00  0.00    -0.506 OA
ATOM     19  H   LIG A   1      -3.351   6.871 127.569  0.00  0.00    +0.292 HD
ENDBRANCH   7  18
BRANCH  16  20
ATOM     20  O   LIG A   1      -0.591   6.311 132.368  0.00  0.00    -0.495 OA
ATOM     21  C   LIG A   1      -1.085   6.513 133.693  0.00  0.00    +0.277 C 
ENDBRANCH  16  20
ENDBRANCH   1  11
BRANCH   3  22
ATOM     22  C   LIG A   1      -6.724  -0.759 132.397  0.00  0.00    +0.070 A 
ATOM     23  C   LIG A   1      -6.299  -0.908 133.742  0.00  0.00    +0.135 A 
ATOM     24  C   LIG A   1      -5.840  -2.136 134.229  0.00  0.00    +0.092 A 
ATOM     25  C   LIG A   1      -5.774  -3.241 133.384  0.00  0.00    +0.135 A 
ATOM     26  C   LIG A   1      -6.185  -3.137 132.055  0.00  0.00    +0.106 A 
ATOM     27  C   LIG A   1      -6.673  -1.909 131.571  0.00  0.00    +0.154 A 
ATOM     28  O   LIG A   1      -7.114  -1.770 130.272  0.00  0.00    -0.454 OA
ATOM     29  C   LIG A   1      -7.163  -2.883 129.453  0.00  0.00    +0.139 A 
ATOM     30  C   LIG A   1      -6.692  -4.085 129.794  0.00  0.00    +0.098 A 
ATOM     31  C   LIG A   1      -6.120  -4.294 131.132  0.00  0.00    +0.197 A 
ATOM     32  O   LIG A   1      -5.646  -5.378 131.398  0.00  0.00    -0.287 OA
BRANCH  29  33
ATOM     33  C   LIG A   1      -7.770  -2.648 128.129  0.00  0.00    +0.018 A 
ATOM     34  C   LIG A   1      -8.686  -3.554 127.574  0.00  0.00    +0.015 A 
ATOM     35  C   LIG A   1      -9.253  -3.321 126.311  0.00  0.00    +0.046 A 
ATOM     36  C   LIG A   1      -8.896  -2.184 125.580  0.00  0.00    +0.120 A 
ATOM     37  C   LIG A   1      -7.988  -1.285 126.134  0.00  0.00    +0.046 A 
ATOM     38  C   LIG A   1      -7.424  -1.517 127.382  0.00  0.00    +0.015 A 
BRANCH  36  39
ATOM     39  O   LIG A   1      -9.462  -2.023 124.341  0.00  0.00    -0.495 OA
ATOM     40  C   LIG A   1      -9.368  -3.171 123.492  0.00  0.00    +0.277 C 
ENDBRANCH  36  39
ENDBRANCH  29  33
BRANCH  23  41
ATOM     41  O   LIG A   1      -6.401   0.201 134.548  0.00  0.00    -0.494 OA
ATOM     42  C   LIG A   1      -5.190   0.703 135.105  0.00  0.00    +0.277 C 
ENDBRANCH  23  41
BRANCH  25  43
ATOM     43  O   LIG A   1      -5.315  -4.424 133.887  0.00  0.00    -0.506 OA
ATOM     44  H   LIG A   1      -4.378  -4.559 133.678  0.00  0.00    +0.292 HD
ENDBRANCH  25  43
ENDBRANCH   3  22
BRANCH   4  45
ATOM     45  O   LIG A   1      -9.550   0.201 132.365  0.00  0.00    -0.506 OA
ATOM     46  H   LIG A   1     -10.388   0.534 132.009  0.00  0.00    +0.292 HD
ENDBRANCH   4  45
TORSDOF 9
ENDMDL
MODEL 7
REMARK VINA RESULT:      -9.2      2.182      5.394
REMARK  Name = NuBBE_197
REMARK  12 active torsions:
REMARK  status: ('A' for Active; 'I' for Inactive)
REMARK    1  A    between atoms: O_1  and  C_2
REMARK    2  A    between atoms: C_6  and  C_7
REMARK    3  A    between atoms: C_9  and  C_10
REMARK    4  A    between atoms: C_11  and  O_12
REMARK    5  A    between atoms: O_12  and  C_13
REMARK    6  A    between atoms: C_15  and  O_16
REMARK    7  A    between atoms: C_20  and  C_21
REMARK    8  A    between atoms: C_24  and  O_25
REMARK    9  A    between atoms: O_25  and  C_26
REMARK   10  A    between atoms: C_32  and  O_33
REMARK   11  A    between atoms: C_40  and  O_41
REMARK   12  A    between atoms: O_41  and  C_42
REMARK                            x       y       z     vdW  Elec       q    Type
REMARK                         _______ _______ _______ _____ _____    ______ ____
ROOT
ATOM      1  C   LIG A   1      -8.052   0.263 131.477  0.00  0.00    +0.018 A 
ATOM      2  C   LIG A   1      -8.000  -0.208 130.143  0.00  0.00    +0.024 A 
ATOM      3  C   LIG A   1      -7.549  -1.505 129.806  0.00  0.00    +0.031 A 
ATOM      4  C   LIG A   1      -7.125  -2.320 130.873  0.00  0.00    +0.125 A 
ATOM      5  C   LIG A   1      -7.209  -1.894 132.199  0.00  0.00    +0.046 A 
ATOM      6  C   LIG A   1      -7.679  -0.617 132.499  0.00  0.00    +0.015 A 
ENDROOT
BRANCH   1  11
ATOM      7  C   LIG A   1      -9.959   5.499 132.527  0.00  0.00    +0.135 A 
ATOM      8  C   LIG A   1      -9.456   4.217 132.300  0.00  0.00    +0.105 A 
ATOM      9  C   LIG A   1      -8.511   3.604 133.236  0.00  0.00    +0.197 A 
ATOM     10  C   LIG A   1      -8.034   2.259 132.915  0.00  0.00    +0.098 A 
ATOM     11  C   LIG A   1      -8.474   1.649 131.805  0.00  0.00    +0.139 A 
ATOM     12  O   LIG A   1      -9.385   2.223 130.916  0.00  0.00    -0.454 OA
ATOM     13  O   LIG A   1      -8.140   4.197 134.241  0.00  0.00    -0.287 OA
ATOM     14  C   LIG A   1      -9.844   3.497 131.174  0.00  0.00    +0.146 A 
ATOM     15  C   LIG A   1     -10.732   4.077 130.260  0.00  0.00    +0.092 A 
ATOM     16  C   LIG A   1     -11.214   5.377 130.471  0.00  0.00    +0.127 A 
ATOM     17  C   LIG A   1     -10.838   6.076 131.620  0.00  0.00    +0.092 A 
BRANCH   7  18
ATOM     18  O   LIG A   1      -9.634   6.252 133.623  0.00  0.00    -0.506 OA
ATOM     19  H   LIG A   1      -9.980   7.162 133.482  0.00  0.00    +0.292 HD
ENDBRANCH   7  18
BRANCH  16  20
ATOM     20  O   LIG A   1     -12.073   5.867 129.521  0.00  0.00    -0.495 OA
ATOM     21  C   LIG A   1     -12.796   7.038 129.899  0.00  0.00    +0.277 C 
ENDBRANCH  16  20
ENDBRANCH   1  11
BRANCH   3  22
ATOM     22  C   LIG A   1      -7.562  -1.967 128.382  0.00  0.00    +0.070 A 
ATOM     23  C   LIG A   1      -8.359  -3.072 127.988  0.00  0.00    +0.135 A 
ATOM     24  C   LIG A   1      -8.357  -3.537 126.669  0.00  0.00    +0.092 A 
ATOM     25  C   LIG A   1      -7.547  -2.926 125.715  0.00  0.00    +0.135 A 
ATOM     26  C   LIG A   1      -6.752  -1.834 126.062  0.00  0.00    +0.106 A 
ATOM     27  C   LIG A   1      -6.773  -1.348 127.381  0.00  0.00    +0.154 A 
ATOM     28  O   LIG A   1      -6.022  -0.254 127.760  0.00  0.00    -0.454 OA
ATOM     29  C   LIG A   1      -5.302   0.435 126.801  0.00  0.00    +0.139 A 
ATOM     30  C   LIG A   1      -5.180   0.041 125.531  0.00  0.00    +0.098 A 
ATOM     31  C   LIG A   1      -5.876  -1.167 125.068  0.00  0.00    +0.197 A 
ATOM     32  O   LIG A   1      -5.704  -1.537 123.927  0.00  0.00    -0.287 OA
BRANCH  29  33
ATOM     33  C   LIG A   1      -4.640   1.660 127.289  0.00  0.00    +0.018 A 
ATOM     34  C   LIG A   1      -4.510   1.922 128.661  0.00  0.00    +0.015 A 
ATOM     35  C   LIG A   1      -3.883   3.094 129.112  0.00  0.00    +0.046 A 
ATOM     36  C   LIG A   1      -3.392   4.027 128.195  0.00  0.00    +0.120 A 
ATOM     37  C   LIG A   1      -3.520   3.762 126.833  0.00  0.00    +0.046 A 
ATOM     38  C   LIG A   1      -4.145   2.605 126.386  0.00  0.00    +0.015 A 
BRANCH  36  39
ATOM     39  O   LIG A   1      -2.813   5.165 128.694  0.00  0.00    -0.495 OA
ATOM     40  C   LIG A   1      -3.190   6.368 128.019  0.00  0.00    +0.277 C 
ENDBRANCH  36  39
ENDBRANCH  29  33
BRANCH  23  41
ATOM     41  O   LIG A   1      -9.159  -3.632 128.955  0.00  0.00    -0.494 OA
ATOM     42  C   LIG A   1     -10.227  -4.459 128.503  0.00  0.00    +0.277 C 
ENDBRANCH  23  41
BRANCH  25  43
ATOM     43  O   LIG A   1      -7.562  -3.406 124.437  0.00  0.00    -0.506 OA
ATOM     44  H   LIG A   1      -6.666  -3.481 124.075  0.00  0.00    +0.292 HD
ENDBRANCH  25  43
ENDBRANCH   3  22
BRANCH   4  45
ATOM     45  O   LIG A   1      -6.601  -3.574 130.707  0.00  0.00    -0.506 OA
ATOM     46  H   LIG A   1      -6.858  -3.898 129.830  0.00  0.00    +0.292 HD
ENDBRANCH   4  45
TORSDOF 9
ENDMDL
MODEL 8
REMARK VINA RESULT:      -9.1      1.973      5.672
REMARK  Name = NuBBE_197
REMARK  12 active torsions:
REMARK  status: ('A' for Active; 'I' for Inactive)
REMARK    1  A    between atoms: O_1  and  C_2
REMARK    2  A    between atoms: C_6  and  C_7
REMARK    3  A    between atoms: C_9  and  C_10
REMARK    4  A    between atoms: C_11  and  O_12
REMARK    5  A    between atoms: O_12  and  C_13
REMARK    6  A    between atoms: C_15  and  O_16
REMARK    7  A    between atoms: C_20  and  C_21
REMARK    8  A    between atoms: C_24  and  O_25
REMARK    9  A    between atoms: O_25  and  C_26
REMARK   10  A    between atoms: C_32  and  O_33
REMARK   11  A    between atoms: C_40  and  O_41
REMARK   12  A    between atoms: O_41  and  C_42
REMARK                            x       y       z     vdW  Elec       q    Type
REMARK                         _______ _______ _______ _____ _____    ______ ____
ROOT
ATOM      1  C   LIG A   1      -6.503   1.730 130.617  0.00  0.00    +0.018 A 
ATOM      2  C   LIG A   1      -7.149   0.733 129.848  0.00  0.00    +0.024 A 
ATOM      3  C   LIG A   1      -6.449  -0.322 129.219  0.00  0.00    +0.031 A 
ATOM      4  C   LIG A   1      -5.050  -0.329 129.376  0.00  0.00    +0.125 A 
ATOM      5  C   LIG A   1      -4.397   0.617 130.166  0.00  0.00    +0.046 A 
ATOM      6  C   LIG A   1      -5.118   1.632 130.790  0.00  0.00    +0.015 A 
ENDROOT
BRANCH   1  11
ATOM      7  C   LIG A   1      -9.648   5.940 132.747  0.00  0.00    +0.135 A 
ATOM      8  C   LIG A   1      -8.840   4.917 132.252  0.00  0.00    +0.105 A 
ATOM      9  C   LIG A   1      -7.631   4.500 132.967  0.00  0.00    +0.197 A 
ATOM     10  C   LIG A   1      -6.843   3.422 132.371  0.00  0.00    +0.098 A 
ATOM     11  C   LIG A   1      -7.250   2.863 131.221  0.00  0.00    +0.139 A 
ATOM     12  O   LIG A   1      -8.408   3.246 130.542  0.00  0.00    -0.454 OA
ATOM     13  O   LIG A   1      -7.301   5.036 134.017  0.00  0.00    -0.287 OA
ATOM     14  C   LIG A   1      -9.168   4.272 131.063  0.00  0.00    +0.146 A 
ATOM     15  C   LIG A   1     -10.310   4.671 130.358  0.00  0.00    +0.092 A 
ATOM     16  C   LIG A   1     -11.106   5.721 130.839  0.00  0.00    +0.127 A 
ATOM     17  C   LIG A   1     -10.780   6.339 132.048  0.00  0.00    +0.092 A 
BRANCH   7  18
ATOM     18  O   LIG A   1      -9.393   6.600 133.919  0.00  0.00    -0.506 OA
ATOM     19  H   LIG A   1      -9.161   5.930 134.602  0.00  0.00    +0.292 HD
ENDBRANCH   7  18
BRANCH  16  20
ATOM     20  O   LIG A   1     -12.200   6.049 130.080  0.00  0.00    -0.495 OA
ATOM     21  C   LIG A   1     -12.690   7.378 130.259  0.00  0.00    +0.277 C 
ENDBRANCH  16  20
ENDBRANCH   1  11
BRANCH   3  22
ATOM     22  C   LIG A   1      -7.190  -1.377 128.458  0.00  0.00    +0.070 A 
ATOM     23  C   LIG A   1      -7.714  -2.515 129.124  0.00  0.00    +0.135 A 
ATOM     24  C   LIG A   1      -8.380  -3.526 128.423  0.00  0.00    +0.092 A 
ATOM     25  C   LIG A   1      -8.523  -3.439 127.041  0.00  0.00    +0.135 A 
ATOM     26  C   LIG A   1      -8.025  -2.334 126.350  0.00  0.00    +0.106 A 
ATOM     27  C   LIG A   1      -7.379  -1.304 127.056  0.00  0.00    +0.154 A 
ATOM     28  O   LIG A   1      -6.895  -0.182 126.415  0.00  0.00    -0.454 OA
ATOM     29  C   LIG A   1      -7.130  -0.025 125.061  0.00  0.00    +0.139 A 
ATOM     30  C   LIG A   1      -7.697  -0.954 124.287  0.00  0.00    +0.098 A 
ATOM     31  C   LIG A   1      -8.158  -2.218 124.878  0.00  0.00    +0.197 A 
ATOM     32  O   LIG A   1      -8.616  -3.069 124.146  0.00  0.00    -0.287 OA
BRANCH  29  33
ATOM     33  C   LIG A   1      -6.683   1.266 124.504  0.00  0.00    +0.018 A 
ATOM     34  C   LIG A   1      -6.001   2.205 125.292  0.00  0.00    +0.015 A 
ATOM     35  C   LIG A   1      -5.586   3.432 124.752  0.00  0.00    +0.046 A 
ATOM     36  C   LIG A   1      -5.864   3.742 123.417  0.00  0.00    +0.120 A 
ATOM     37  C   LIG A   1      -6.539   2.807 122.636  0.00  0.00    +0.046 A 
ATOM     38  C   LIG A   1      -6.954   1.594 123.172  0.00  0.00    +0.015 A 
BRANCH  36  39
ATOM     39  O   LIG A   1      -5.457   4.966 122.952  0.00  0.00    -0.495 OA
ATOM     40  C   LIG A   1      -4.643   4.913 121.777  0.00  0.00    +0.277 C 
ENDBRANCH  36  39
ENDBRANCH  29  33
BRANCH  23  41
ATOM     41  O   LIG A   1      -7.571  -2.551 130.490  0.00  0.00    -0.494 OA
ATOM     42  C   LIG A   1      -6.654  -3.508 131.014  0.00  0.00    +0.277 C 
ENDBRANCH  23  41
BRANCH  25  43
ATOM     43  O   LIG A   1      -9.172  -4.444 126.384  0.00  0.00    -0.506 OA
ATOM     44  H   LIG A   1      -8.549  -5.092 126.022  0.00  0.00    +0.292 HD
ENDBRANCH  25  43
ENDBRANCH   3  22
BRANCH   4  45
ATOM     45  O   LIG A   1      -4.225  -1.244 128.777  0.00  0.00    -0.506 OA
ATOM     46  H   LIG A   1      -4.243  -2.059 129.301  0.00  0.00    +0.292 HD
ENDBRANCH   4  45
TORSDOF 9
ENDMDL
MODEL 9
REMARK VINA RESULT:      -9.1      3.638      9.474
REMARK  Name = NuBBE_197
REMARK  12 active torsions:
REMARK  status: ('A' for Active; 'I' for Inactive)
REMARK    1  A    between atoms: O_1  and  C_2
REMARK    2  A    between atoms: C_6  and  C_7
REMARK    3  A    between atoms: C_9  and  C_10
REMARK    4  A    between atoms: C_11  and  O_12
REMARK    5  A    between atoms: O_12  and  C_13
REMARK    6  A    between atoms: C_15  and  O_16
REMARK    7  A    between atoms: C_20  and  C_21
REMARK    8  A    between atoms: C_24  and  O_25
REMARK    9  A    between atoms: O_25  and  C_26
REMARK   10  A    between atoms: C_32  and  O_33
REMARK   11  A    between atoms: C_40  and  O_41
REMARK   12  A    between atoms: O_41  and  C_42
REMARK                            x       y       z     vdW  Elec       q    Type
REMARK                         _______ _______ _______ _____ _____    ______ ____
ROOT
ATOM      1  C   LIG A   1      -4.826   5.065 128.196  0.00  0.00    +0.018 A 
ATOM      2  C   LIG A   1      -4.893   4.855 129.594  0.00  0.00    +0.024 A 
ATOM      3  C   LIG A   1      -4.316   5.743 130.531  0.00  0.00    +0.031 A 
ATOM      4  C   LIG A   1      -3.639   6.859 130.003  0.00  0.00    +0.125 A 
ATOM      5  C   LIG A   1      -3.598   7.110 128.632  0.00  0.00    +0.046 A 
ATOM      6  C   LIG A   1      -4.195   6.226 127.736  0.00  0.00    +0.015 A 
ENDROOT
BRANCH   1  11
ATOM      7  C   LIG A   1      -6.805   1.522 124.236  0.00  0.00    +0.135 A 
ATOM      8  C   LIG A   1      -6.335   2.366 125.243  0.00  0.00    +0.105 A 
ATOM      9  C   LIG A   1      -6.251   1.905 126.631  0.00  0.00    +0.197 A 
ATOM     10  C   LIG A   1      -5.750   2.859 127.620  0.00  0.00    +0.098 A 
ATOM     11  C   LIG A   1      -5.389   4.089 127.227  0.00  0.00    +0.139 A 
ATOM     12  O   LIG A   1      -5.454   4.530 125.904  0.00  0.00    -0.454 OA
ATOM     13  O   LIG A   1      -6.586   0.769 126.942  0.00  0.00    -0.287 OA
ATOM     14  C   LIG A   1      -5.938   3.666 124.945  0.00  0.00    +0.146 A 
ATOM     15  C   LIG A   1      -6.032   4.128 123.627  0.00  0.00    +0.092 A 
ATOM     16  C   LIG A   1      -6.533   3.291 122.619  0.00  0.00    +0.127 A 
ATOM     17  C   LIG A   1      -6.900   1.979 122.927  0.00  0.00    +0.092 A 
BRANCH   7  18
ATOM     18  O   LIG A   1      -7.192   0.228 124.458  0.00  0.00    -0.506 OA
ATOM     19  H   LIG A   1      -8.127   0.237 124.766  0.00  0.00    +0.292 HD
ENDBRANCH   7  18
BRANCH  16  20
ATOM     20  O   LIG A   1      -6.595   3.829 121.359  0.00  0.00    -0.495 OA
ATOM     21  C   LIG A   1      -5.380   4.410 120.885  0.00  0.00    +0.277 C 
ENDBRANCH  16  20
ENDBRANCH   1  11
BRANCH   3  22
ATOM     22  C   LIG A   1      -4.461   5.496 131.999  0.00  0.00    +0.070 A 
ATOM     23  C   LIG A   1      -3.327   5.193 132.797  0.00  0.00    +0.135 A 
ATOM     24  C   LIG A   1      -3.450   4.928 134.165  0.00  0.00    +0.092 A 
ATOM     25  C   LIG A   1      -4.705   4.938 134.768  0.00  0.00    +0.135 A 
ATOM     26  C   LIG A   1      -5.843   5.235 134.020  0.00  0.00    +0.106 A 
ATOM     27  C   LIG A   1      -5.719   5.529 132.650  0.00  0.00    +0.154 A 
ATOM     28  O   LIG A   1      -6.816   5.854 131.879  0.00  0.00    -0.454 OA
ATOM     29  C   LIG A   1      -8.053   5.982 132.485  0.00  0.00    +0.139 A 
ATOM     30  C   LIG A   1      -8.292   5.690 133.766  0.00  0.00    +0.098 A 
ATOM     31  C   LIG A   1      -7.192   5.248 134.634  0.00  0.00    +0.197 A 
ATOM     32  O   LIG A   1      -7.444   4.933 135.777  0.00  0.00    -0.287 OA
BRANCH  29  33
ATOM     33  C   LIG A   1      -9.129   6.457 131.594  0.00  0.00    +0.018 A 
ATOM     34  C   LIG A   1     -10.478   6.192 131.874  0.00  0.00    +0.015 A 
ATOM     35  C   LIG A   1     -11.492   6.645 131.016  0.00  0.00    +0.046 A 
ATOM     36  C   LIG A   1     -11.167   7.355 129.857  0.00  0.00    +0.120 A 
ATOM     37  C   LIG A   1      -9.827   7.619 129.583  0.00  0.00    +0.046 A 
ATOM     38  C   LIG A   1      -8.823   7.167 130.430  0.00  0.00    +0.015 A 
BRANCH  36  39
ATOM     39  O   LIG A   1     -12.199   7.749 129.044  0.00  0.00    -0.495 OA
ATOM     40  C   LIG A   1     -12.698   9.062 129.313  0.00  0.00    +0.277 C 
ENDBRANCH  36  39
ENDBRANCH  29  33
BRANCH  23  41
ATOM     41  O   LIG A   1      -2.106   5.214 132.167  0.00  0.00    -0.494 OA
ATOM     42  C   LIG A   1      -1.022   5.793 132.889  0.00  0.00    +0.277 C 
ENDBRANCH  23  41
BRANCH  25  43
ATOM     43  O   LIG A   1      -4.792   4.669 136.103  0.00  0.00    -0.506 OA
ATOM     44  H   LIG A   1      -5.168   3.790 136.264  0.00  0.00    +0.292 HD
ENDBRANCH  25  43
ENDBRANCH   3  22
BRANCH   4  45
ATOM     45  O   LIG A   1      -2.972   7.775 130.774  0.00  0.00    -0.506 OA
ATOM     46  H   LIG A   1      -3.280   7.684 131.688  0.00  0.00    +0.292 HD
ENDBRANCH   4  45
TORSDOF 9
ENDMDL
