MODEL 1
REMARK VINA RESULT:      -7.8      0.000      0.000
REMARK  Name = NuBBE_1997
REMARK  7 active torsions:
REMARK  status: ('A' for Active; 'I' for Inactive)
REMARK    1  A    between atoms: O_1  and  C_2
REMARK    2  A    between atoms: C_3  and  C_4
REMARK    3  A    between atoms: C_5  and  O_6
REMARK    4  A    between atoms: O_6  and  C_7
REMARK    5  A    between atoms: C_10  and  O_12
REMARK    6  A    between atoms: C_13  and  C_15
REMARK    7  A    between atoms: C_18  and  O_19
REMARK                            x       y       z     vdW  Elec       q    Type
REMARK                         _______ _______ _______ _____ _____    ______ ____
ROOT
ATOM      1  C   LIG A   1      -6.003  -0.897 125.113  0.00  0.00    +0.127 A 
ATOM      2  C   LIG A   1      -6.643  -1.887 124.352  0.00  0.00    +0.034 A 
ATOM      3  C   LIG A   1      -6.122  -3.298 124.333  0.00  0.00    +0.051 C 
ATOM      4  C   LIG A   1      -7.807  -1.520 123.634  0.00  0.00    +0.141 A 
ATOM      5  C   LIG A   1      -8.312  -0.206 123.720  0.00  0.00    +0.104 A 
ATOM      6  C   LIG A   1      -9.514   0.247 122.988  0.00  0.00    +0.202 C 
ATOM      7  C   LIG A   1     -10.120   1.570 123.437  0.00  0.00    +0.230 C 
ATOM      8  C   LIG A   1      -8.979   2.556 123.722  0.00  0.00    +0.240 C 
ATOM      9  O   LIG A   1      -8.103   2.022 124.737  0.00  0.00    -0.480 OA
ATOM     10  O   LIG A   1      -9.979  -0.380 122.030  0.00  0.00    -0.289 OA
ATOM     11  C   LIG A   1      -7.673   0.737 124.531  0.00  0.00    +0.139 A 
ATOM     12  C   LIG A   1      -6.530   0.384 125.237  0.00  0.00    +0.092 A 
ENDROOT
BRANCH   8  13
ATOM     13  C   LIG A   1      -8.160   3.106 122.558  0.00  0.00    -0.004 A 
ATOM     14  C   LIG A   1      -6.781   3.329 122.745  0.00  0.00    +0.011 A 
ATOM     15  C   LIG A   1      -5.984   3.848 121.720  0.00  0.00    +0.046 A 
ATOM     16  C   LIG A   1      -6.564   4.153 120.495  0.00  0.00    +0.117 A 
ATOM     17  C   LIG A   1      -7.921   3.948 120.286  0.00  0.00    +0.046 A 
ATOM     18  C   LIG A   1      -8.718   3.432 121.312  0.00  0.00    +0.011 A 
BRANCH  16  19
ATOM     19  O   LIG A   1      -5.833   4.662 119.466  0.00  0.00    -0.507 OA
ATOM     20  H   LIG A   1      -6.435   4.891 118.739  0.00  0.00    +0.292 HD
ENDBRANCH  16  19
ENDBRANCH   8  13
BRANCH   1  21
ATOM     21  O   LIG A   1      -4.844  -1.120 125.803  0.00  0.00    -0.506 OA
ATOM     22  H   LIG A   1      -4.766  -0.463 126.513  0.00  0.00    +0.292 HD
ENDBRANCH   1  21
BRANCH   4  23
ATOM     23  O   LIG A   1      -8.584  -2.468 123.013  0.00  0.00    -0.494 OA
ATOM     24  C   LIG A   1      -9.403  -3.249 123.880  0.00  0.00    +0.277 C 
ENDBRANCH   4  23
BRANCH   7  25
ATOM     25  O   LIG A   1     -10.943   1.390 124.593  0.00  0.00    -0.380 OA
ATOM     26  H   LIG A   1     -10.777   2.134 125.200  0.00  0.00    +0.210 HD
ENDBRANCH   7  25
TORSDOF 5
ENDMDL
MODEL 2
REMARK VINA RESULT:      -7.2      1.946      2.349
REMARK  Name = NuBBE_1997
REMARK  7 active torsions:
REMARK  status: ('A' for Active; 'I' for Inactive)
REMARK    1  A    between atoms: O_1  and  C_2
REMARK    2  A    between atoms: C_3  and  C_4
REMARK    3  A    between atoms: C_5  and  O_6
REMARK    4  A    between atoms: O_6  and  C_7
REMARK    5  A    between atoms: C_10  and  O_12
REMARK    6  A    between atoms: C_13  and  C_15
REMARK    7  A    between atoms: C_18  and  O_19
REMARK                            x       y       z     vdW  Elec       q    Type
REMARK                         _______ _______ _______ _____ _____    ______ ____
ROOT
ATOM      1  C   LIG A   1      -8.162   0.179 127.514  0.00  0.00    +0.127 A 
ATOM      2  C   LIG A   1      -7.873  -1.046 126.895  0.00  0.00    +0.034 A 
ATOM      3  C   LIG A   1      -7.346  -2.206 127.695  0.00  0.00    +0.051 C 
ATOM      4  C   LIG A   1      -8.126  -1.163 125.506  0.00  0.00    +0.141 A 
ATOM      5  C   LIG A   1      -8.681  -0.082 124.790  0.00  0.00    +0.104 A 
ATOM      6  C   LIG A   1      -8.957  -0.130 123.339  0.00  0.00    +0.202 C 
ATOM      7  C   LIG A   1      -9.854   0.970 122.784  0.00  0.00    +0.230 C 
ATOM      8  C   LIG A   1      -9.459   2.297 123.445  0.00  0.00    +0.240 C 
ATOM      9  O   LIG A   1      -9.596   2.198 124.878  0.00  0.00    -0.480 OA
ATOM     10  O   LIG A   1      -8.453  -0.982 122.599  0.00  0.00    -0.289 OA
ATOM     11  C   LIG A   1      -9.002   1.106 125.455  0.00  0.00    +0.139 A 
ATOM     12  C   LIG A   1      -8.757   1.226 126.817  0.00  0.00    +0.092 A 
ENDROOT
BRANCH   8  13
ATOM     13  C   LIG A   1      -8.123   2.941 123.088  0.00  0.00    -0.004 A 
ATOM     14  C   LIG A   1      -7.805   3.131 121.728  0.00  0.00    +0.011 A 
ATOM     15  C   LIG A   1      -6.587   3.699 121.341  0.00  0.00    +0.046 A 
ATOM     16  C   LIG A   1      -5.674   4.081 122.315  0.00  0.00    +0.117 A 
ATOM     17  C   LIG A   1      -5.960   3.900 123.660  0.00  0.00    +0.046 A 
ATOM     18  C   LIG A   1      -7.176   3.328 124.048  0.00  0.00    +0.011 A 
BRANCH  16  19
ATOM     19  O   LIG A   1      -4.474   4.637 121.990  0.00  0.00    -0.507 OA
ATOM     20  H   LIG A   1      -4.604   5.244 121.243  0.00  0.00    +0.292 HD
ENDBRANCH  16  19
ENDBRANCH   8  13
BRANCH   1  21
ATOM     21  O   LIG A   1      -7.910   0.425 128.834  0.00  0.00    -0.506 OA
ATOM     22  H   LIG A   1      -8.684   0.859 129.228  0.00  0.00    +0.292 HD
ENDBRANCH   1  21
BRANCH   4  23
ATOM     23  O   LIG A   1      -8.036  -2.376 124.869  0.00  0.00    -0.494 OA
ATOM     24  C   LIG A   1      -9.160  -3.238 125.036  0.00  0.00    +0.277 C 
ENDBRANCH   4  23
BRANCH   7  25
ATOM     25  O   LIG A   1     -11.233   0.671 123.015  0.00  0.00    -0.380 OA
ATOM     26  H   LIG A   1     -11.279  -0.147 123.544  0.00  0.00    +0.210 HD
ENDBRANCH   7  25
TORSDOF 5
ENDMDL
MODEL 3
REMARK VINA RESULT:      -7.1      7.596     10.538
REMARK  Name = NuBBE_1997
REMARK  7 active torsions:
REMARK  status: ('A' for Active; 'I' for Inactive)
REMARK    1  A    between atoms: O_1  and  C_2
REMARK    2  A    between atoms: C_3  and  C_4
REMARK    3  A    between atoms: C_5  and  O_6
REMARK    4  A    between atoms: O_6  and  C_7
REMARK    5  A    between atoms: C_10  and  O_12
REMARK    6  A    between atoms: C_13  and  C_15
REMARK    7  A    between atoms: C_18  and  O_19
REMARK                            x       y       z     vdW  Elec       q    Type
REMARK                         _______ _______ _______ _____ _____    ______ ____
ROOT
ATOM      1  C   LIG A   1     -12.428   6.891 131.010  0.00  0.00    +0.127 A 
ATOM      2  C   LIG A   1     -12.349   6.899 129.609  0.00  0.00    +0.034 A 
ATOM      3  C   LIG A   1     -13.516   7.353 128.776  0.00  0.00    +0.051 C 
ATOM      4  C   LIG A   1     -11.128   6.499 129.012  0.00  0.00    +0.141 A 
ATOM      5  C   LIG A   1     -10.027   6.139 129.816  0.00  0.00    +0.104 A 
ATOM      6  C   LIG A   1      -8.729   5.698 129.261  0.00  0.00    +0.202 C 
ATOM      7  C   LIG A   1      -7.554   5.670 130.229  0.00  0.00    +0.230 C 
ATOM      8  C   LIG A   1      -8.043   5.108 131.571  0.00  0.00    +0.240 C 
ATOM      9  O   LIG A   1      -9.116   5.923 132.089  0.00  0.00    -0.480 OA
ATOM     10  O   LIG A   1      -8.606   5.324 128.090  0.00  0.00    -0.289 OA
ATOM     11  C   LIG A   1     -10.132   6.193 131.210  0.00  0.00    +0.139 A 
ATOM     12  C   LIG A   1     -11.326   6.585 131.801  0.00  0.00    +0.092 A 
ENDROOT
BRANCH   8  13
ATOM     13  C   LIG A   1      -8.410   3.631 131.672  0.00  0.00    -0.004 A 
ATOM     14  C   LIG A   1      -7.660   2.695 130.931  0.00  0.00    +0.011 A 
ATOM     15  C   LIG A   1      -7.962   1.330 130.971  0.00  0.00    +0.046 A 
ATOM     16  C   LIG A   1      -9.022   0.890 131.753  0.00  0.00    +0.117 A 
ATOM     17  C   LIG A   1      -9.779   1.791 132.487  0.00  0.00    +0.046 A 
ATOM     18  C   LIG A   1      -9.480   3.156 132.445  0.00  0.00    +0.011 A 
BRANCH  16  19
ATOM     19  O   LIG A   1      -9.357  -0.428 131.824  0.00  0.00    -0.507 OA
ATOM     20  H   LIG A   1      -9.360  -0.798 130.926  0.00  0.00    +0.292 HD
ENDBRANCH  16  19
ENDBRANCH   8  13
BRANCH   1  21
ATOM     21  O   LIG A   1     -13.569   7.205 131.693  0.00  0.00    -0.506 OA
ATOM     22  H   LIG A   1     -13.930   8.035 131.342  0.00  0.00    +0.292 HD
ENDBRANCH   1  21
BRANCH   4  23
ATOM     23  O   LIG A   1     -10.917   6.647 127.663  0.00  0.00    -0.494 OA
ATOM     24  C   LIG A   1     -10.677   7.983 127.227  0.00  0.00    +0.277 C 
ENDBRANCH   4  23
BRANCH   7  25
ATOM     25  O   LIG A   1      -6.995   6.977 130.393  0.00  0.00    -0.380 OA
ATOM     26  H   LIG A   1      -7.242   7.510 129.615  0.00  0.00    +0.210 HD
ENDBRANCH   7  25
TORSDOF 5
ENDMDL
MODEL 4
REMARK VINA RESULT:      -6.9      1.429      1.988
REMARK  Name = NuBBE_1997
REMARK  7 active torsions:
REMARK  status: ('A' for Active; 'I' for Inactive)
REMARK    1  A    between atoms: O_1  and  C_2
REMARK    2  A    between atoms: C_3  and  C_4
REMARK    3  A    between atoms: C_5  and  O_6
REMARK    4  A    between atoms: O_6  and  C_7
REMARK    5  A    between atoms: C_10  and  O_12
REMARK    6  A    between atoms: C_13  and  C_15
REMARK    7  A    between atoms: C_18  and  O_19
REMARK                            x       y       z     vdW  Elec       q    Type
REMARK                         _______ _______ _______ _____ _____    ______ ____
ROOT
ATOM      1  C   LIG A   1      -5.796  -1.888 124.613  0.00  0.00    +0.127 A 
ATOM      2  C   LIG A   1      -7.079  -2.448 124.517  0.00  0.00    +0.034 A 
ATOM      3  C   LIG A   1      -7.258  -3.926 124.305  0.00  0.00    +0.051 C 
ATOM      4  C   LIG A   1      -8.191  -1.583 124.659  0.00  0.00    +0.141 A 
ATOM      5  C   LIG A   1      -7.997  -0.211 124.922  0.00  0.00    +0.104 A 
ATOM      6  C   LIG A   1      -9.111   0.750 125.068  0.00  0.00    +0.202 C 
ATOM      7  C   LIG A   1      -8.762   2.103 125.675  0.00  0.00    +0.230 C 
ATOM      8  C   LIG A   1      -7.423   2.567 125.088  0.00  0.00    +0.240 C 
ATOM      9  O   LIG A   1      -6.393   1.596 125.372  0.00  0.00    -0.480 OA
ATOM     10  O   LIG A   1     -10.256   0.497 124.677  0.00  0.00    -0.289 OA
ATOM     11  C   LIG A   1      -6.702   0.298 125.061  0.00  0.00    +0.139 A 
ATOM     12  C   LIG A   1      -5.607  -0.546 124.923  0.00  0.00    +0.092 A 
ENDROOT
BRANCH   8  13
ATOM     13  C   LIG A   1      -7.356   2.990 123.624  0.00  0.00    -0.004 A 
ATOM     14  C   LIG A   1      -8.545   3.001 122.867  0.00  0.00    +0.011 A 
ATOM     15  C   LIG A   1      -8.541   3.362 121.516  0.00  0.00    +0.046 A 
ATOM     16  C   LIG A   1      -7.343   3.716 120.909  0.00  0.00    +0.117 A 
ATOM     17  C   LIG A   1      -6.157   3.708 121.631  0.00  0.00    +0.046 A 
ATOM     18  C   LIG A   1      -6.160   3.343 122.980  0.00  0.00    +0.011 A 
BRANCH  16  19
ATOM     19  O   LIG A   1      -7.285   4.074 119.597  0.00  0.00    -0.507 OA
ATOM     20  H   LIG A   1      -7.771   3.416 119.073  0.00  0.00    +0.292 HD
ENDBRANCH  16  19
ENDBRANCH   8  13
BRANCH   1  21
ATOM     21  O   LIG A   1      -4.651  -2.614 124.440  0.00  0.00    -0.506 OA
ATOM     22  H   LIG A   1      -3.995  -2.065 123.981  0.00  0.00    +0.292 HD
ENDBRANCH   1  21
BRANCH   4  23
ATOM     23  O   LIG A   1      -9.468  -2.080 124.753  0.00  0.00    -0.494 OA
ATOM     24  C   LIG A   1      -9.742  -2.841 125.928  0.00  0.00    +0.277 C 
ENDBRANCH   4  23
BRANCH   7  25
ATOM     25  O   LIG A   1      -8.698   2.023 127.101  0.00  0.00    -0.380 OA
ATOM     26  H   LIG A   1      -9.576   1.753 127.428  0.00  0.00    +0.210 HD
ENDBRANCH   7  25
TORSDOF 5
ENDMDL
MODEL 5
REMARK VINA RESULT:      -6.8      2.330      6.222
REMARK  Name = NuBBE_1997
REMARK  7 active torsions:
REMARK  status: ('A' for Active; 'I' for Inactive)
REMARK    1  A    between atoms: O_1  and  C_2
REMARK    2  A    between atoms: C_3  and  C_4
REMARK    3  A    between atoms: C_5  and  O_6
REMARK    4  A    between atoms: O_6  and  C_7
REMARK    5  A    between atoms: C_10  and  O_12
REMARK    6  A    between atoms: C_13  and  C_15
REMARK    7  A    between atoms: C_18  and  O_19
REMARK                            x       y       z     vdW  Elec       q    Type
REMARK                         _______ _______ _______ _____ _____    ______ ____
ROOT
ATOM      1  C   LIG A   1      -7.582   3.344 122.724  0.00  0.00    +0.127 A 
ATOM      2  C   LIG A   1      -6.331   3.570 123.318  0.00  0.00    +0.034 A 
ATOM      3  C   LIG A   1      -5.266   4.348 122.594  0.00  0.00    +0.051 C 
ATOM      4  C   LIG A   1      -6.120   3.071 124.626  0.00  0.00    +0.141 A 
ATOM      5  C   LIG A   1      -7.156   2.400 125.309  0.00  0.00    +0.104 A 
ATOM      6  C   LIG A   1      -7.000   1.843 126.669  0.00  0.00    +0.202 C 
ATOM      7  C   LIG A   1      -8.283   1.454 127.392  0.00  0.00    +0.230 C 
ATOM      8  C   LIG A   1      -9.219   0.770 126.387  0.00  0.00    +0.240 C 
ATOM      9  O   LIG A   1      -9.499   1.659 125.285  0.00  0.00    -0.480 OA
ATOM     10  O   LIG A   1      -5.891   1.652 127.180  0.00  0.00    -0.289 OA
ATOM     11  C   LIG A   1      -8.405   2.240 124.700  0.00  0.00    +0.139 A 
ATOM     12  C   LIG A   1      -8.619   2.728 123.417  0.00  0.00    +0.092 A 
ENDROOT
BRANCH   8  13
ATOM     13  C   LIG A   1      -8.866  -0.619 125.864  0.00  0.00    -0.004 A 
ATOM     14  C   LIG A   1      -8.309  -1.557 126.756  0.00  0.00    +0.011 A 
ATOM     15  C   LIG A   1      -7.949  -2.839 126.330  0.00  0.00    +0.046 A 
ATOM     16  C   LIG A   1      -8.142  -3.193 125.001  0.00  0.00    +0.117 A 
ATOM     17  C   LIG A   1      -8.683  -2.286 124.100  0.00  0.00    +0.046 A 
ATOM     18  C   LIG A   1      -9.039  -1.003 124.526  0.00  0.00    +0.011 A 
BRANCH  16  19
ATOM     19  O   LIG A   1      -7.807  -4.428 124.535  0.00  0.00    -0.507 OA
ATOM     20  H   LIG A   1      -8.583  -5.008 124.603  0.00  0.00    +0.292 HD
ENDBRANCH  16  19
ENDBRANCH   8  13
BRANCH   1  21
ATOM     21  O   LIG A   1      -7.882   3.731 121.448  0.00  0.00    -0.506 OA
ATOM     22  H   LIG A   1      -8.629   4.350 121.473  0.00  0.00    +0.292 HD
ENDBRANCH   1  21
BRANCH   4  23
ATOM     23  O   LIG A   1      -4.992   3.402 125.337  0.00  0.00    -0.494 OA
ATOM     24  C   LIG A   1      -5.050   4.648 126.027  0.00  0.00    +0.277 C 
ENDBRANCH   4  23
BRANCH   7  25
ATOM     25  O   LIG A   1      -8.907   2.600 127.977  0.00  0.00    -0.380 OA
ATOM     26  H   LIG A   1      -8.524   2.732 128.864  0.00  0.00    +0.210 HD
ENDBRANCH   7  25
TORSDOF 5
ENDMDL
MODEL 6
REMARK VINA RESULT:      -6.7      2.320      5.811
REMARK  Name = NuBBE_1997
REMARK  7 active torsions:
REMARK  status: ('A' for Active; 'I' for Inactive)
REMARK    1  A    between atoms: O_1  and  C_2
REMARK    2  A    between atoms: C_3  and  C_4
REMARK    3  A    between atoms: C_5  and  O_6
REMARK    4  A    between atoms: O_6  and  C_7
REMARK    5  A    between atoms: C_10  and  O_12
REMARK    6  A    between atoms: C_13  and  C_15
REMARK    7  A    between atoms: C_18  and  O_19
REMARK                            x       y       z     vdW  Elec       q    Type
REMARK                         _______ _______ _______ _____ _____    ______ ____
ROOT
ATOM      1  C   LIG A   1      -6.149   3.650 123.870  0.00  0.00    +0.127 A 
ATOM      2  C   LIG A   1      -6.043   3.778 125.263  0.00  0.00    +0.034 A 
ATOM      3  C   LIG A   1      -5.342   4.959 125.875  0.00  0.00    +0.051 C 
ATOM      4  C   LIG A   1      -6.643   2.778 126.067  0.00  0.00    +0.141 A 
ATOM      5  C   LIG A   1      -7.350   1.714 125.471  0.00  0.00    +0.104 A 
ATOM      6  C   LIG A   1      -7.989   0.630 126.248  0.00  0.00    +0.202 C 
ATOM      7  C   LIG A   1      -8.984  -0.245 125.498  0.00  0.00    +0.230 C 
ATOM      8  C   LIG A   1      -8.418  -0.535 124.101  0.00  0.00    +0.240 C 
ATOM      9  O   LIG A   1      -8.185   0.700 123.393  0.00  0.00    -0.480 OA
ATOM     10  O   LIG A   1      -7.700   0.408 127.429  0.00  0.00    -0.289 OA
ATOM     11  C   LIG A   1      -7.476   1.651 124.079  0.00  0.00    +0.139 A 
ATOM     12  C   LIG A   1      -6.890   2.628 123.285  0.00  0.00    +0.092 A 
ENDROOT
BRANCH   8  13
ATOM     13  C   LIG A   1      -7.210  -1.457 123.962  0.00  0.00    -0.004 A 
ATOM     14  C   LIG A   1      -6.637  -1.635 122.686  0.00  0.00    +0.011 A 
ATOM     15  C   LIG A   1      -5.541  -2.481 122.495  0.00  0.00    +0.046 A 
ATOM     16  C   LIG A   1      -5.008  -3.160 123.583  0.00  0.00    +0.117 A 
ATOM     17  C   LIG A   1      -5.556  -3.007 124.849  0.00  0.00    +0.046 A 
ATOM     18  C   LIG A   1      -6.655  -2.164 125.039  0.00  0.00    +0.011 A 
BRANCH  16  19
ATOM     19  O   LIG A   1      -3.942  -3.997 123.450  0.00  0.00    -0.507 OA
ATOM     20  H   LIG A   1      -3.189  -3.622 123.937  0.00  0.00    +0.292 HD
ENDBRANCH  16  19
ENDBRANCH   8  13
BRANCH   1  21
ATOM     21  O   LIG A   1      -5.565   4.523 122.995  0.00  0.00    -0.506 OA
ATOM     22  H   LIG A   1      -4.850   4.996 123.450  0.00  0.00    +0.292 HD
ENDBRANCH   1  21
BRANCH   4  23
ATOM     23  O   LIG A   1      -6.733   2.924 127.430  0.00  0.00    -0.494 OA
ATOM     24  C   LIG A   1      -7.762   3.802 127.882  0.00  0.00    +0.277 C 
ENDBRANCH   4  23
BRANCH   7  25
ATOM     25  O   LIG A   1     -10.262   0.392 125.412  0.00  0.00    -0.380 OA
ATOM     26  H   LIG A   1     -10.125   1.298 125.080  0.00  0.00    +0.210 HD
ENDBRANCH   7  25
TORSDOF 5
ENDMDL
MODEL 7
REMARK VINA RESULT:      -6.7      7.811      9.450
REMARK  Name = NuBBE_1997
REMARK  7 active torsions:
REMARK  status: ('A' for Active; 'I' for Inactive)
REMARK    1  A    between atoms: O_1  and  C_2
REMARK    2  A    between atoms: C_3  and  C_4
REMARK    3  A    between atoms: C_5  and  O_6
REMARK    4  A    between atoms: O_6  and  C_7
REMARK    5  A    between atoms: C_10  and  O_12
REMARK    6  A    between atoms: C_13  and  C_15
REMARK    7  A    between atoms: C_18  and  O_19
REMARK                            x       y       z     vdW  Elec       q    Type
REMARK                         _______ _______ _______ _____ _____    ______ ____
ROOT
ATOM      1  C   LIG A   1      -5.556   6.471 130.699  0.00  0.00    +0.127 A 
ATOM      2  C   LIG A   1      -5.538   5.387 129.809  0.00  0.00    +0.034 A 
ATOM      3  C   LIG A   1      -4.301   5.063 129.017  0.00  0.00    +0.051 C 
ATOM      4  C   LIG A   1      -6.707   4.593 129.709  0.00  0.00    +0.141 A 
ATOM      5  C   LIG A   1      -7.832   4.878 130.510  0.00  0.00    +0.104 A 
ATOM      6  C   LIG A   1      -9.088   4.100 130.447  0.00  0.00    +0.202 C 
ATOM      7  C   LIG A   1     -10.071   4.311 131.590  0.00  0.00    +0.230 C 
ATOM      8  C   LIG A   1     -10.114   5.807 131.925  0.00  0.00    +0.240 C 
ATOM      9  O   LIG A   1      -8.797   6.272 132.289  0.00  0.00    -0.480 OA
ATOM     10  O   LIG A   1      -9.355   3.355 129.497  0.00  0.00    -0.289 OA
ATOM     11  C   LIG A   1      -7.791   5.938 131.421  0.00  0.00    +0.139 A 
ATOM     12  C   LIG A   1      -6.647   6.720 131.525  0.00  0.00    +0.092 A 
ENDROOT
BRANCH   8  13
ATOM     13  C   LIG A   1     -10.758   6.775 130.937  0.00  0.00    -0.004 A 
ATOM     14  C   LIG A   1     -12.123   7.094 131.093  0.00  0.00    +0.011 A 
ATOM     15  C   LIG A   1     -12.771   7.960 130.207  0.00  0.00    +0.046 A 
ATOM     16  C   LIG A   1     -12.057   8.515 129.153  0.00  0.00    +0.117 A 
ATOM     17  C   LIG A   1     -10.714   8.214 128.974  0.00  0.00    +0.046 A 
ATOM     18  C   LIG A   1     -10.067   7.344 129.857  0.00  0.00    +0.011 A 
BRANCH  16  19
ATOM     19  O   LIG A   1     -12.641   9.363 128.262  0.00  0.00    -0.507 OA
ATOM     20  H   LIG A   1     -12.672  10.252 128.652  0.00  0.00    +0.292 HD
ENDBRANCH  16  19
ENDBRANCH   8  13
BRANCH   1  21
ATOM     21  O   LIG A   1      -4.508   7.337 130.840  0.00  0.00    -0.506 OA
ATOM     22  H   LIG A   1      -3.737   6.849 131.172  0.00  0.00    +0.292 HD
ENDBRANCH   1  21
BRANCH   4  23
ATOM     23  O   LIG A   1      -6.706   3.419 128.996  0.00  0.00    -0.494 OA
ATOM     24  C   LIG A   1      -6.116   2.303 129.661  0.00  0.00    +0.277 C 
ENDBRANCH   4  23
BRANCH   7  25
ATOM     25  O   LIG A   1      -9.699   3.539 132.735  0.00  0.00    -0.380 OA
ATOM     26  H   LIG A   1      -8.929   3.969 133.151  0.00  0.00    +0.210 HD
ENDBRANCH   7  25
TORSDOF 5
ENDMDL
MODEL 8
REMARK VINA RESULT:      -6.6      2.762      5.193
REMARK  Name = NuBBE_1997
REMARK  7 active torsions:
REMARK  status: ('A' for Active; 'I' for Inactive)
REMARK    1  A    between atoms: O_1  and  C_2
REMARK    2  A    between atoms: C_3  and  C_4
REMARK    3  A    between atoms: C_5  and  O_6
REMARK    4  A    between atoms: O_6  and  C_7
REMARK    5  A    between atoms: C_10  and  O_12
REMARK    6  A    between atoms: C_13  and  C_15
REMARK    7  A    between atoms: C_18  and  O_19
REMARK                            x       y       z     vdW  Elec       q    Type
REMARK                         _______ _______ _______ _____ _____    ______ ____
ROOT
ATOM      1  C   LIG A   1      -8.893  -3.616 127.587  0.00  0.00    +0.127 A 
ATOM      2  C   LIG A   1      -7.891  -3.033 128.378  0.00  0.00    +0.034 A 
ATOM      3  C   LIG A   1      -7.959  -3.104 129.878  0.00  0.00    +0.051 C 
ATOM      4  C   LIG A   1      -6.805  -2.409 127.717  0.00  0.00    +0.141 A 
ATOM      5  C   LIG A   1      -6.732  -2.411 126.309  0.00  0.00    +0.104 A 
ATOM      6  C   LIG A   1      -5.635  -1.767 125.554  0.00  0.00    +0.202 C 
ATOM      7  C   LIG A   1      -5.518  -2.139 124.082  0.00  0.00    +0.230 C 
ATOM      8  C   LIG A   1      -6.929  -2.197 123.482  0.00  0.00    +0.240 C 
ATOM      9  O   LIG A   1      -7.731  -3.164 124.192  0.00  0.00    -0.480 OA
ATOM     10  O   LIG A   1      -4.882  -0.934 126.069  0.00  0.00    -0.289 OA
ATOM     11  C   LIG A   1      -7.726  -3.047 125.558  0.00  0.00    +0.139 A 
ATOM     12  C   LIG A   1      -8.793  -3.662 126.200  0.00  0.00    +0.092 A 
ENDROOT
BRANCH   8  13
ATOM     13  C   LIG A   1      -7.713  -0.903 123.290  0.00  0.00    -0.004 A 
ATOM     14  C   LIG A   1      -7.028   0.325 123.392  0.00  0.00    +0.011 A 
ATOM     15  C   LIG A   1      -7.698   1.544 123.244  0.00  0.00    +0.046 A 
ATOM     16  C   LIG A   1      -9.064   1.543 122.994  0.00  0.00    +0.117 A 
ATOM     17  C   LIG A   1      -9.763   0.348 122.894  0.00  0.00    +0.046 A 
ATOM     18  C   LIG A   1      -9.094  -0.870 123.047  0.00  0.00    +0.011 A 
BRANCH  16  19
ATOM     19  O   LIG A   1      -9.763   2.702 122.844  0.00  0.00    -0.507 OA
ATOM     20  H   LIG A   1      -9.691   3.218 123.663  0.00  0.00    +0.292 HD
ENDBRANCH  16  19
ENDBRANCH   8  13
BRANCH   1  21
ATOM     21  O   LIG A   1     -10.012  -4.198 128.111  0.00  0.00    -0.506 OA
ATOM     22  H   LIG A   1     -10.111  -3.918 129.036  0.00  0.00    +0.292 HD
ENDBRANCH   1  21
BRANCH   4  23
ATOM     23  O   LIG A   1      -5.706  -1.974 128.416  0.00  0.00    -0.494 OA
ATOM     24  C   LIG A   1      -4.797  -2.996 128.820  0.00  0.00    +0.277 C 
ENDBRANCH   4  23
BRANCH   7  25
ATOM     25  O   LIG A   1      -4.839  -3.388 123.923  0.00  0.00    -0.380 OA
ATOM     26  H   LIG A   1      -4.877  -3.633 122.980  0.00  0.00    +0.210 HD
ENDBRANCH   7  25
TORSDOF 5
ENDMDL
MODEL 9
REMARK VINA RESULT:      -6.4      8.354     10.193
REMARK  Name = NuBBE_1997
REMARK  7 active torsions:
REMARK  status: ('A' for Active; 'I' for Inactive)
REMARK    1  A    between atoms: O_1  and  C_2
REMARK    2  A    between atoms: C_3  and  C_4
REMARK    3  A    between atoms: C_5  and  O_6
REMARK    4  A    between atoms: O_6  and  C_7
REMARK    5  A    between atoms: C_10  and  O_12
REMARK    6  A    between atoms: C_13  and  C_15
REMARK    7  A    between atoms: C_18  and  O_19
REMARK                            x       y       z     vdW  Elec       q    Type
REMARK                         _______ _______ _______ _____ _____    ______ ____
ROOT
ATOM      1  C   LIG A   1      -7.972   5.334 134.315  0.00  0.00    +0.127 A 
ATOM      2  C   LIG A   1      -6.727   5.601 133.727  0.00  0.00    +0.034 A 
ATOM      3  C   LIG A   1      -5.551   6.010 134.571  0.00  0.00    +0.051 C 
ATOM      4  C   LIG A   1      -6.608   5.440 132.325  0.00  0.00    +0.141 A 
ATOM      5  C   LIG A   1      -7.708   4.993 131.564  0.00  0.00    +0.104 A 
ATOM      6  C   LIG A   1      -7.658   4.816 130.097  0.00  0.00    +0.202 C 
ATOM      7  C   LIG A   1      -8.796   4.019 129.473  0.00  0.00    +0.230 C 
ATOM      8  C   LIG A   1     -10.109   4.435 130.151  0.00  0.00    +0.240 C 
ATOM      9  O   LIG A   1     -10.033   4.194 131.571  0.00  0.00    -0.480 OA
ATOM     10  O   LIG A   1      -6.773   5.325 129.401  0.00  0.00    -0.289 OA
ATOM     11  C   LIG A   1      -8.918   4.689 132.196  0.00  0.00    +0.139 A 
ATOM     12  C   LIG A   1      -9.041   4.844 133.571  0.00  0.00    +0.092 A 
ENDROOT
BRANCH   8  13
ATOM     13  C   LIG A   1     -10.679   5.824 129.883  0.00  0.00    -0.004 A 
ATOM     14  C   LIG A   1     -11.818   6.239 130.604  0.00  0.00    +0.011 A 
ATOM     15  C   LIG A   1     -12.395   7.494 130.387  0.00  0.00    +0.046 A 
ATOM     16  C   LIG A   1     -11.837   8.347 129.444  0.00  0.00    +0.117 A 
ATOM     17  C   LIG A   1     -10.720   7.960 128.717  0.00  0.00    +0.046 A 
ATOM     18  C   LIG A   1     -10.145   6.704 128.930  0.00  0.00    +0.011 A 
BRANCH  16  19
ATOM     19  O   LIG A   1     -12.362   9.578 129.195  0.00  0.00    -0.507 OA
ATOM     20  H   LIG A   1     -11.886  10.234 129.731  0.00  0.00    +0.292 HD
ENDBRANCH  16  19
ENDBRANCH   8  13
BRANCH   1  21
ATOM     21  O   LIG A   1      -8.219   5.505 135.648  0.00  0.00    -0.506 OA
ATOM     22  H   LIG A   1      -7.833   6.349 135.935  0.00  0.00    +0.292 HD
ENDBRANCH   1  21
BRANCH   4  23
ATOM     23  O   LIG A   1      -5.385   5.511 131.705  0.00  0.00    -0.494 OA
ATOM     24  C   LIG A   1      -4.577   4.341 131.814  0.00  0.00    +0.277 C 
ENDBRANCH   4  23
BRANCH   7  25
ATOM     25  O   LIG A   1      -8.571   2.613 129.609  0.00  0.00    -0.380 OA
ATOM     26  H   LIG A   1      -7.676   2.485 129.973  0.00  0.00    +0.210 HD
ENDBRANCH   7  25
TORSDOF 5
ENDMDL
