MODEL 1
REMARK VINA RESULT:      -8.3      0.000      0.000
REMARK  Name = NuBBE_1856
REMARK  7 active torsions:
REMARK  status: ('A' for Active; 'I' for Inactive)
REMARK    1  A    between atoms: O_1  and  C_2
REMARK    2  A    between atoms: C_5  and  C_8
REMARK    3  A    between atoms: C_8  and  C_9
REMARK    4  A    between atoms: C_9  and  C_10
REMARK    5  A    between atoms: C_13  and  C_18
REMARK    6  A    between atoms: C_21  and  O_22
REMARK    7  A    between atoms: O_22  and  C_23
REMARK                            x       y       z     vdW  Elec       q    Type
REMARK                         _______ _______ _______ _____ _____    ______ ____
ROOT
ATOM      1  C   LIG A   1      -8.530   2.079 123.749  0.00  0.00    +0.119 C 
ATOM      2  O   LIG A   1      -7.768   0.871 123.693  0.00  0.00    -0.369 OA
ATOM      3  C   LIG A   1      -8.565  -0.314 123.845  0.00  0.00    +0.149 C 
ATOM      4  C   LIG A   1      -9.597  -0.405 122.713  0.00  0.00    +0.036 C 
ATOM      5  C   LIG A   1     -10.433   0.870 122.643  0.00  0.00    +0.005 C 
ATOM      6  C   LIG A   1      -9.533   2.103 122.593  0.00  0.00    +0.032 C 
ENDROOT
BRANCH   3   7
ATOM      7  C   LIG A   1      -7.642  -1.518 123.854  0.00  0.00    -0.019 A 
ATOM      8  C   LIG A   1      -6.417  -1.484 123.174  0.00  0.00    +0.010 A 
ATOM      9  C   LIG A   1      -5.553  -2.581 123.187  0.00  0.00    +0.046 A 
ATOM     10  C   LIG A   1      -5.902  -3.743 123.874  0.00  0.00    +0.120 A 
ATOM     11  C   LIG A   1      -7.125  -3.796 124.542  0.00  0.00    +0.046 A 
ATOM     12  C   LIG A   1      -7.993  -2.693 124.535  0.00  0.00    +0.010 A 
BRANCH  10  13
ATOM     13  O   LIG A   1      -5.133  -4.873 123.956  0.00  0.00    -0.495 OA
ATOM     14  C   LIG A   1      -3.758  -4.720 123.621  0.00  0.00    +0.277 C 
ENDBRANCH  10  13
ENDBRANCH   3   7
BRANCH   1  15
ATOM     15  C   LIG A   1      -7.559   3.269 123.677  0.00  0.00    +0.036 C 
BRANCH  15  16
ATOM     16  C   LIG A   1      -6.282   2.907 122.907  0.00  0.00    +0.037 C 
BRANCH  16  20
ATOM     17  C   LIG A   1      -5.819   5.275 119.339  0.00  0.00    +0.117 A 
ATOM     18  C   LIG A   1      -4.819   5.288 120.306  0.00  0.00    +0.045 A 
ATOM     19  C   LIG A   1      -4.959   4.498 121.451  0.00  0.00    +0.007 A 
ATOM     20  C   LIG A   1      -6.100   3.702 121.635  0.00  0.00    -0.047 A 
ATOM     21  C   LIG A   1      -7.084   3.684 120.635  0.00  0.00    +0.007 A 
ATOM     22  C   LIG A   1      -6.944   4.473 119.491  0.00  0.00    +0.045 A 
BRANCH  17  23
ATOM     23  O   LIG A   1      -5.737   6.050 118.220  0.00  0.00    -0.507 OA
ATOM     24  H   LIG A   1      -5.368   5.512 117.500  0.00  0.00    +0.292 HD
ENDBRANCH  17  23
ENDBRANCH  16  20
ENDBRANCH  15  16
ENDBRANCH   1  15
TORSDOF 6
ENDMDL
MODEL 2
REMARK VINA RESULT:      -8.0      3.152      4.168
REMARK  Name = NuBBE_1856
REMARK  7 active torsions:
REMARK  status: ('A' for Active; 'I' for Inactive)
REMARK    1  A    between atoms: O_1  and  C_2
REMARK    2  A    between atoms: C_5  and  C_8
REMARK    3  A    between atoms: C_8  and  C_9
REMARK    4  A    between atoms: C_9  and  C_10
REMARK    5  A    between atoms: C_13  and  C_18
REMARK    6  A    between atoms: C_21  and  O_22
REMARK    7  A    between atoms: O_22  and  C_23
REMARK                            x       y       z     vdW  Elec       q    Type
REMARK                         _______ _______ _______ _____ _____    ______ ____
ROOT
ATOM      1  C   LIG A   1      -8.129  -0.679 123.673  0.00  0.00    +0.119 C 
ATOM      2  O   LIG A   1      -7.856  -1.151 124.993  0.00  0.00    -0.369 OA
ATOM      3  C   LIG A   1      -8.888  -1.999 125.521  0.00  0.00    +0.149 C 
ATOM      4  C   LIG A   1      -9.044  -3.248 124.643  0.00  0.00    +0.036 C 
ATOM      5  C   LIG A   1      -9.283  -2.857 123.187  0.00  0.00    +0.005 C 
ATOM      6  C   LIG A   1      -8.217  -1.869 122.714  0.00  0.00    +0.032 C 
ENDROOT
BRANCH   3   7
ATOM      7  C   LIG A   1      -8.528  -2.365 126.948  0.00  0.00    -0.019 A 
ATOM      8  C   LIG A   1      -8.918  -3.599 127.489  0.00  0.00    +0.010 A 
ATOM      9  C   LIG A   1      -8.580  -3.953 128.798  0.00  0.00    +0.046 A 
ATOM     10  C   LIG A   1      -7.851  -3.074 129.598  0.00  0.00    +0.120 A 
ATOM     11  C   LIG A   1      -7.471  -1.837 129.077  0.00  0.00    +0.046 A 
ATOM     12  C   LIG A   1      -7.804  -1.482 127.762  0.00  0.00    +0.010 A 
BRANCH  10  13
ATOM     13  O   LIG A   1      -7.464  -3.318 130.888  0.00  0.00    -0.495 OA
ATOM     14  C   LIG A   1      -6.071  -3.528 131.095  0.00  0.00    +0.277 C 
ENDBRANCH  10  13
ENDBRANCH   3   7
BRANCH   1  15
ATOM     15  C   LIG A   1      -7.009   0.292 123.262  0.00  0.00    +0.036 C 
BRANCH  15  16
ATOM     16  C   LIG A   1      -7.395   1.749 123.548  0.00  0.00    +0.037 C 
BRANCH  16  20
ATOM     17  C   LIG A   1      -7.374   4.146 119.970  0.00  0.00    +0.117 A 
ATOM     18  C   LIG A   1      -8.584   3.840 120.583  0.00  0.00    +0.045 A 
ATOM     19  C   LIG A   1      -8.587   3.084 121.760  0.00  0.00    +0.007 A 
ATOM     20  C   LIG A   1      -7.383   2.627 122.319  0.00  0.00    -0.047 A 
ATOM     21  C   LIG A   1      -6.173   2.971 121.697  0.00  0.00    +0.007 A 
ATOM     22  C   LIG A   1      -6.171   3.726 120.522  0.00  0.00    +0.045 A 
BRANCH  17  23
ATOM     23  O   LIG A   1      -7.326   4.858 118.807  0.00  0.00    -0.507 OA
ATOM     24  H   LIG A   1      -8.018   5.538 118.834  0.00  0.00    +0.292 HD
ENDBRANCH  17  23
ENDBRANCH  16  20
ENDBRANCH  15  16
ENDBRANCH   1  15
TORSDOF 6
ENDMDL
MODEL 3
REMARK VINA RESULT:      -7.9      3.097      3.921
REMARK  Name = NuBBE_1856
REMARK  7 active torsions:
REMARK  status: ('A' for Active; 'I' for Inactive)
REMARK    1  A    between atoms: O_1  and  C_2
REMARK    2  A    between atoms: C_5  and  C_8
REMARK    3  A    between atoms: C_8  and  C_9
REMARK    4  A    between atoms: C_9  and  C_10
REMARK    5  A    between atoms: C_13  and  C_18
REMARK    6  A    between atoms: C_21  and  O_22
REMARK    7  A    between atoms: O_22  and  C_23
REMARK                            x       y       z     vdW  Elec       q    Type
REMARK                         _______ _______ _______ _____ _____    ______ ____
ROOT
ATOM      1  C   LIG A   1      -8.037  -0.770 123.698  0.00  0.00    +0.119 C 
ATOM      2  O   LIG A   1      -7.562  -1.272 124.948  0.00  0.00    -0.369 OA
ATOM      3  C   LIG A   1      -8.479  -2.175 125.586  0.00  0.00    +0.149 C 
ATOM      4  C   LIG A   1      -8.718  -3.401 124.695  0.00  0.00    +0.036 C 
ATOM      5  C   LIG A   1      -9.176  -2.974 123.302  0.00  0.00    +0.005 C 
ATOM      6  C   LIG A   1      -8.222  -1.933 122.719  0.00  0.00    +0.032 C 
ENDROOT
BRANCH   3   7
ATOM      7  C   LIG A   1      -7.907  -2.572 126.934  0.00  0.00    -0.019 A 
ATOM      8  C   LIG A   1      -6.628  -2.145 127.321  0.00  0.00    +0.010 A 
ATOM      9  C   LIG A   1      -6.097  -2.492 128.564  0.00  0.00    +0.046 A 
ATOM     10  C   LIG A   1      -6.831  -3.284 129.447  0.00  0.00    +0.120 A 
ATOM     11  C   LIG A   1      -8.097  -3.728 129.068  0.00  0.00    +0.046 A 
ATOM     12  C   LIG A   1      -8.635  -3.376 127.820  0.00  0.00    +0.010 A 
BRANCH  10  13
ATOM     13  O   LIG A   1      -6.411  -3.679 130.689  0.00  0.00    -0.495 OA
ATOM     14  C   LIG A   1      -5.572  -4.829 130.729  0.00  0.00    +0.277 C 
ENDBRANCH  10  13
ENDBRANCH   3   7
BRANCH   1  15
ATOM     15  C   LIG A   1      -7.020   0.255 123.168  0.00  0.00    +0.036 C 
BRANCH  15  16
ATOM     16  C   LIG A   1      -7.583   1.681 123.214  0.00  0.00    +0.037 C 
BRANCH  16  20
ATOM     17  C   LIG A   1      -4.880   4.760 121.885  0.00  0.00    +0.117 A 
ATOM     18  C   LIG A   1      -5.188   4.655 123.237  0.00  0.00    +0.045 A 
ATOM     19  C   LIG A   1      -6.045   3.637 123.670  0.00  0.00    +0.007 A 
ATOM     20  C   LIG A   1      -6.600   2.732 122.753  0.00  0.00    -0.047 A 
ATOM     21  C   LIG A   1      -6.255   2.842 121.398  0.00  0.00    +0.007 A 
ATOM     22  C   LIG A   1      -5.399   3.857 120.966  0.00  0.00    +0.045 A 
BRANCH  17  23
ATOM     23  O   LIG A   1      -4.071   5.752 121.416  0.00  0.00    -0.507 OA
ATOM     24  H   LIG A   1      -4.108   5.746 120.446  0.00  0.00    +0.292 HD
ENDBRANCH  17  23
ENDBRANCH  16  20
ENDBRANCH  15  16
ENDBRANCH   1  15
TORSDOF 6
ENDMDL
MODEL 4
REMARK VINA RESULT:      -7.2      3.677      8.461
REMARK  Name = NuBBE_1856
REMARK  7 active torsions:
REMARK  status: ('A' for Active; 'I' for Inactive)
REMARK    1  A    between atoms: O_1  and  C_2
REMARK    2  A    between atoms: C_5  and  C_8
REMARK    3  A    between atoms: C_8  and  C_9
REMARK    4  A    between atoms: C_9  and  C_10
REMARK    5  A    between atoms: C_13  and  C_18
REMARK    6  A    between atoms: C_21  and  O_22
REMARK    7  A    between atoms: O_22  and  C_23
REMARK                            x       y       z     vdW  Elec       q    Type
REMARK                         _______ _______ _______ _____ _____    ______ ____
ROOT
ATOM      1  C   LIG A   1      -8.224  -3.137 125.568  0.00  0.00    +0.119 C 
ATOM      2  O   LIG A   1      -7.849  -1.759 125.569  0.00  0.00    -0.369 OA
ATOM      3  C   LIG A   1      -7.370  -1.296 124.297  0.00  0.00    +0.149 C 
ATOM      4  C   LIG A   1      -8.469  -1.439 123.235  0.00  0.00    +0.036 C 
ATOM      5  C   LIG A   1      -8.989  -2.873 123.189  0.00  0.00    +0.005 C 
ATOM      6  C   LIG A   1      -9.381  -3.349 124.588  0.00  0.00    +0.032 C 
ENDROOT
BRANCH   3   7
ATOM      7  C   LIG A   1      -6.926   0.147 124.444  0.00  0.00    -0.019 A 
ATOM      8  C   LIG A   1      -6.214   0.563 125.578  0.00  0.00    +0.010 A 
ATOM      9  C   LIG A   1      -5.787   1.886 125.718  0.00  0.00    +0.046 A 
ATOM     10  C   LIG A   1      -6.073   2.826 124.728  0.00  0.00    +0.120 A 
ATOM     11  C   LIG A   1      -6.795   2.428 123.603  0.00  0.00    +0.046 A 
ATOM     12  C   LIG A   1      -7.219   1.099 123.458  0.00  0.00    +0.010 A 
BRANCH  10  13
ATOM     13  O   LIG A   1      -5.702   4.143 124.760  0.00  0.00    -0.495 OA
ATOM     14  C   LIG A   1      -5.260   4.639 126.019  0.00  0.00    +0.277 C 
ENDBRANCH  10  13
ENDBRANCH   3   7
BRANCH   1  15
ATOM     15  C   LIG A   1      -8.620  -3.535 127.000  0.00  0.00    +0.036 C 
BRANCH  15  16
ATOM     16  C   LIG A   1      -8.136  -2.500 128.024  0.00  0.00    +0.037 C 
BRANCH  16  20
ATOM     17  C   LIG A   1      -4.440  -3.474 130.009  0.00  0.00    +0.117 A 
ATOM     18  C   LIG A   1      -5.629  -4.034 130.461  0.00  0.00    +0.045 A 
ATOM     19  C   LIG A   1      -6.825  -3.738 129.799  0.00  0.00    +0.007 A 
ATOM     20  C   LIG A   1      -6.834  -2.876 128.691  0.00  0.00    -0.047 A 
ATOM     21  C   LIG A   1      -5.618  -2.343 128.236  0.00  0.00    +0.007 A 
ATOM     22  C   LIG A   1      -4.424  -2.639 128.898  0.00  0.00    +0.045 A 
BRANCH  17  23
ATOM     23  O   LIG A   1      -3.255  -3.714 130.641  0.00  0.00    -0.507 OA
ATOM     24  H   LIG A   1      -3.375  -4.467 131.242  0.00  0.00    +0.292 HD
ENDBRANCH  17  23
ENDBRANCH  16  20
ENDBRANCH  15  16
ENDBRANCH   1  15
TORSDOF 6
ENDMDL
MODEL 5
REMARK VINA RESULT:      -7.2      4.284      6.125
REMARK  Name = NuBBE_1856
REMARK  7 active torsions:
REMARK  status: ('A' for Active; 'I' for Inactive)
REMARK    1  A    between atoms: O_1  and  C_2
REMARK    2  A    between atoms: C_5  and  C_8
REMARK    3  A    between atoms: C_8  and  C_9
REMARK    4  A    between atoms: C_9  and  C_10
REMARK    5  A    between atoms: C_13  and  C_18
REMARK    6  A    between atoms: C_21  and  O_22
REMARK    7  A    between atoms: O_22  and  C_23
REMARK                            x       y       z     vdW  Elec       q    Type
REMARK                         _______ _______ _______ _____ _____    ______ ____
ROOT
ATOM      1  C   LIG A   1      -7.434  -2.077 125.471  0.00  0.00    +0.119 C 
ATOM      2  O   LIG A   1      -6.565  -2.480 126.531  0.00  0.00    -0.369 OA
ATOM      3  C   LIG A   1      -7.221  -2.560 127.806  0.00  0.00    +0.149 C 
ATOM      4  C   LIG A   1      -8.348  -3.601 127.756  0.00  0.00    +0.036 C 
ATOM      5  C   LIG A   1      -9.310  -3.297 126.611  0.00  0.00    +0.005 C 
ATOM      6  C   LIG A   1      -8.547  -3.114 125.300  0.00  0.00    +0.032 C 
ENDROOT
BRANCH   3   7
ATOM      7  C   LIG A   1      -6.187  -2.913 128.859  0.00  0.00    -0.019 A 
ATOM      8  C   LIG A   1      -6.549  -3.643 130.000  0.00  0.00    +0.010 A 
ATOM      9  C   LIG A   1      -5.603  -3.985 130.969  0.00  0.00    +0.046 A 
ATOM     10  C   LIG A   1      -4.272  -3.595 130.821  0.00  0.00    +0.120 A 
ATOM     11  C   LIG A   1      -3.902  -2.856 129.698  0.00  0.00    +0.046 A 
ATOM     12  C   LIG A   1      -4.850  -2.515 128.721  0.00  0.00    +0.010 A 
BRANCH  10  13
ATOM     13  O   LIG A   1      -3.264  -3.879 131.703  0.00  0.00    -0.495 OA
ATOM     14  C   LIG A   1      -3.658  -4.477 132.933  0.00  0.00    +0.277 C 
ENDBRANCH  10  13
ENDBRANCH   3   7
BRANCH   1  15
ATOM     15  C   LIG A   1      -6.598  -1.931 124.187  0.00  0.00    +0.036 C 
BRANCH  15  16
ATOM     16  C   LIG A   1      -7.348  -1.126 123.118  0.00  0.00    +0.037 C 
BRANCH  16  20
ATOM     17  C   LIG A   1      -8.607   2.721 124.589  0.00  0.00    +0.117 A 
ATOM     18  C   LIG A   1      -7.252   2.413 124.549  0.00  0.00    +0.045 A 
ATOM     19  C   LIG A   1      -6.843   1.173 124.046  0.00  0.00    +0.007 A 
ATOM     20  C   LIG A   1      -7.788   0.240 123.591  0.00  0.00    -0.047 A 
ATOM     21  C   LIG A   1      -9.148   0.583 123.617  0.00  0.00    +0.007 A 
ATOM     22  C   LIG A   1      -9.555   1.821 124.119  0.00  0.00    +0.045 A 
BRANCH  17  23
ATOM     23  O   LIG A   1      -9.051   3.907 125.096  0.00  0.00    -0.507 OA
ATOM     24  H   LIG A   1      -9.612   3.721 125.867  0.00  0.00    +0.292 HD
ENDBRANCH  17  23
ENDBRANCH  16  20
ENDBRANCH  15  16
ENDBRANCH   1  15
TORSDOF 6
ENDMDL
MODEL 6
REMARK VINA RESULT:      -7.2      2.930      8.650
REMARK  Name = NuBBE_1856
REMARK  7 active torsions:
REMARK  status: ('A' for Active; 'I' for Inactive)
REMARK    1  A    between atoms: O_1  and  C_2
REMARK    2  A    between atoms: C_5  and  C_8
REMARK    3  A    between atoms: C_8  and  C_9
REMARK    4  A    between atoms: C_9  and  C_10
REMARK    5  A    between atoms: C_13  and  C_18
REMARK    6  A    between atoms: C_21  and  O_22
REMARK    7  A    between atoms: O_22  and  C_23
REMARK                            x       y       z     vdW  Elec       q    Type
REMARK                         _______ _______ _______ _____ _____    ______ ____
ROOT
ATOM      1  C   LIG A   1      -6.884   0.592 125.231  0.00  0.00    +0.119 C 
ATOM      2  O   LIG A   1      -6.840   1.222 123.949  0.00  0.00    -0.369 OA
ATOM      3  C   LIG A   1      -7.079   2.637 124.000  0.00  0.00    +0.149 C 
ATOM      4  C   LIG A   1      -6.003   3.324 124.852  0.00  0.00    +0.036 C 
ATOM      5  C   LIG A   1      -5.923   2.684 126.236  0.00  0.00    +0.005 C 
ATOM      6  C   LIG A   1      -5.778   1.167 126.120  0.00  0.00    +0.032 C 
ENDROOT
BRANCH   3   7
ATOM      7  C   LIG A   1      -7.091   3.176 122.582  0.00  0.00    -0.019 A 
ATOM      8  C   LIG A   1      -8.298   3.325 121.885  0.00  0.00    +0.010 A 
ATOM      9  C   LIG A   1      -8.323   3.833 120.584  0.00  0.00    +0.046 A 
ATOM     10  C   LIG A   1      -7.136   4.195 119.947  0.00  0.00    +0.120 A 
ATOM     11  C   LIG A   1      -5.927   4.037 120.625  0.00  0.00    +0.046 A 
ATOM     12  C   LIG A   1      -5.900   3.531 121.933  0.00  0.00    +0.010 A 
BRANCH  10  13
ATOM     13  O   LIG A   1      -7.044   4.705 118.680  0.00  0.00    -0.495 OA
ATOM     14  C   LIG A   1      -6.010   5.660 118.464  0.00  0.00    +0.277 C 
ENDBRANCH  10  13
ENDBRANCH   3   7
BRANCH   1  15
ATOM     15  C   LIG A   1      -6.716  -0.924 125.033  0.00  0.00    +0.036 C 
BRANCH  15  16
ATOM     16  C   LIG A   1      -7.856  -1.707 125.696  0.00  0.00    +0.037 C 
BRANCH  16  20
ATOM     17  C   LIG A   1      -6.802  -3.367 129.528  0.00  0.00    +0.117 A 
ATOM     18  C   LIG A   1      -5.842  -2.684 128.790  0.00  0.00    +0.045 A 
ATOM     19  C   LIG A   1      -6.193  -2.122 127.558  0.00  0.00    +0.007 A 
ATOM     20  C   LIG A   1      -7.500  -2.251 127.060  0.00  0.00    -0.047 A 
ATOM     21  C   LIG A   1      -8.458  -2.922 127.835  0.00  0.00    +0.007 A 
ATOM     22  C   LIG A   1      -8.107  -3.482 129.065  0.00  0.00    +0.045 A 
BRANCH  17  23
ATOM     23  O   LIG A   1      -6.496  -3.953 130.722  0.00  0.00    -0.507 OA
ATOM     24  H   LIG A   1      -6.460  -3.262 131.403  0.00  0.00    +0.292 HD
ENDBRANCH  17  23
ENDBRANCH  16  20
ENDBRANCH  15  16
ENDBRANCH   1  15
TORSDOF 6
ENDMDL
MODEL 7
REMARK VINA RESULT:      -7.1      8.781     11.548
REMARK  Name = NuBBE_1856
REMARK  7 active torsions:
REMARK  status: ('A' for Active; 'I' for Inactive)
REMARK    1  A    between atoms: O_1  and  C_2
REMARK    2  A    between atoms: C_5  and  C_8
REMARK    3  A    between atoms: C_8  and  C_9
REMARK    4  A    between atoms: C_9  and  C_10
REMARK    5  A    between atoms: C_13  and  C_18
REMARK    6  A    between atoms: C_21  and  O_22
REMARK    7  A    between atoms: O_22  and  C_23
REMARK                            x       y       z     vdW  Elec       q    Type
REMARK                         _______ _______ _______ _____ _____    ______ ____
ROOT
ATOM      1  C   LIG A   1      -6.425   5.945 132.094  0.00  0.00    +0.119 C 
ATOM      2  O   LIG A   1      -7.595   6.570 131.563  0.00  0.00    -0.369 OA
ATOM      3  C   LIG A   1      -8.798   5.822 131.799  0.00  0.00    +0.149 C 
ATOM      4  C   LIG A   1      -9.040   5.672 133.306  0.00  0.00    +0.036 C 
ATOM      5  C   LIG A   1      -7.818   5.064 133.990  0.00  0.00    +0.005 C 
ATOM      6  C   LIG A   1      -6.553   5.834 133.616  0.00  0.00    +0.032 C 
ENDROOT
BRANCH   3   7
ATOM      7  C   LIG A   1      -9.951   6.538 131.120  0.00  0.00    -0.019 A 
ATOM      8  C   LIG A   1     -11.245   6.478 131.658  0.00  0.00    +0.010 A 
ATOM      9  C   LIG A   1     -12.311   7.143 131.050  0.00  0.00    +0.046 A 
ATOM     10  C   LIG A   1     -12.108   7.878 129.882  0.00  0.00    +0.120 A 
ATOM     11  C   LIG A   1     -10.829   7.933 129.329  0.00  0.00    +0.046 A 
ATOM     12  C   LIG A   1      -9.755   7.269 129.940  0.00  0.00    +0.010 A 
BRANCH  10  13
ATOM     13  O   LIG A   1     -13.077   8.571 129.207  0.00  0.00    -0.495 OA
ATOM     14  C   LIG A   1     -13.564   7.964 128.014  0.00  0.00    +0.277 C 
ENDBRANCH  10  13
ENDBRANCH   3   7
BRANCH   1  15
ATOM     15  C   LIG A   1      -5.200   6.785 131.692  0.00  0.00    +0.036 C 
BRANCH  15  16
ATOM     16  C   LIG A   1      -3.903   5.975 131.804  0.00  0.00    +0.037 C 
BRANCH  16  20
ATOM     17  C   LIG A   1      -2.516   4.641 127.950  0.00  0.00    +0.117 A 
ATOM     18  C   LIG A   1      -2.291   5.956 128.342  0.00  0.00    +0.045 A 
ATOM     19  C   LIG A   1      -2.718   6.380 129.605  0.00  0.00    +0.007 A 
ATOM     20  C   LIG A   1      -3.377   5.494 130.471  0.00  0.00    -0.047 A 
ATOM     21  C   LIG A   1      -3.570   4.165 130.065  0.00  0.00    +0.007 A 
ATOM     22  C   LIG A   1      -3.143   3.742 128.804  0.00  0.00    +0.045 A 
BRANCH  17  23
ATOM     23  O   LIG A   1      -2.140   4.192 126.718  0.00  0.00    -0.507 OA
ATOM     24  H   LIG A   1      -2.536   3.317 126.576  0.00  0.00    +0.292 HD
ENDBRANCH  17  23
ENDBRANCH  16  20
ENDBRANCH  15  16
ENDBRANCH   1  15
TORSDOF 6
ENDMDL
MODEL 8
REMARK VINA RESULT:      -7.1     10.676     12.712
REMARK  Name = NuBBE_1856
REMARK  7 active torsions:
REMARK  status: ('A' for Active; 'I' for Inactive)
REMARK    1  A    between atoms: O_1  and  C_2
REMARK    2  A    between atoms: C_5  and  C_8
REMARK    3  A    between atoms: C_8  and  C_9
REMARK    4  A    between atoms: C_9  and  C_10
REMARK    5  A    between atoms: C_13  and  C_18
REMARK    6  A    between atoms: C_21  and  O_22
REMARK    7  A    between atoms: O_22  and  C_23
REMARK                            x       y       z     vdW  Elec       q    Type
REMARK                         _______ _______ _______ _____ _____    ______ ____
ROOT
ATOM      1  C   LIG A   1      -6.756   6.268 131.458  0.00  0.00    +0.119 C 
ATOM      2  O   LIG A   1      -7.917   6.929 130.951  0.00  0.00    -0.369 OA
ATOM      3  C   LIG A   1      -9.129   6.184 131.146  0.00  0.00    +0.149 C 
ATOM      4  C   LIG A   1      -9.380   5.967 132.644  0.00  0.00    +0.036 C 
ATOM      5  C   LIG A   1      -8.168   5.315 133.304  0.00  0.00    +0.005 C 
ATOM      6  C   LIG A   1      -6.893   6.089 132.973  0.00  0.00    +0.032 C 
ENDROOT
BRANCH   3   7
ATOM      7  C   LIG A   1     -10.271   6.941 130.496  0.00  0.00    -0.019 A 
ATOM      8  C   LIG A   1     -10.047   7.739 129.365  0.00  0.00    +0.010 A 
ATOM      9  C   LIG A   1     -11.093   8.430 128.750  0.00  0.00    +0.046 A 
ATOM     10  C   LIG A   1     -12.388   8.345 129.259  0.00  0.00    +0.120 A 
ATOM     11  C   LIG A   1     -12.622   7.566 130.393  0.00  0.00    +0.046 A 
ATOM     12  C   LIG A   1     -11.573   6.867 131.010  0.00  0.00    +0.010 A 
BRANCH  10  13
ATOM     13  O   LIG A   1     -13.486   8.974 128.735  0.00  0.00    -0.495 OA
ATOM     14  C   LIG A   1     -13.586  10.372 128.987  0.00  0.00    +0.277 C 
ENDBRANCH  10  13
ENDBRANCH   3   7
BRANCH   1  15
ATOM     15  C   LIG A   1      -5.521   7.113 131.101  0.00  0.00    +0.036 C 
BRANCH  15  16
ATOM     16  C   LIG A   1      -4.337   6.230 130.688  0.00  0.00    +0.037 C 
BRANCH  16  20
ATOM     17  C   LIG A   1      -0.751   7.084 132.916  0.00  0.00    +0.117 A 
ATOM     18  C   LIG A   1      -0.883   5.858 132.274  0.00  0.00    +0.045 A 
ATOM     19  C   LIG A   1      -2.037   5.592 131.529  0.00  0.00    +0.007 A 
ATOM     20  C   LIG A   1      -3.061   6.548 131.432  0.00  0.00    -0.047 A 
ATOM     21  C   LIG A   1      -2.893   7.788 132.067  0.00  0.00    +0.007 A 
ATOM     22  C   LIG A   1      -1.741   8.052 132.810  0.00  0.00    +0.045 A 
BRANCH  17  23
ATOM     23  O   LIG A   1       0.345   7.374 133.675  0.00  0.00    -0.507 OA
ATOM     24  H   LIG A   1       0.772   6.541 133.929  0.00  0.00    +0.292 HD
ENDBRANCH  17  23
ENDBRANCH  16  20
ENDBRANCH  15  16
ENDBRANCH   1  15
TORSDOF 6
ENDMDL
MODEL 9
REMARK VINA RESULT:      -7.1      3.418      4.898
REMARK  Name = NuBBE_1856
REMARK  7 active torsions:
REMARK  status: ('A' for Active; 'I' for Inactive)
REMARK    1  A    between atoms: O_1  and  C_2
REMARK    2  A    between atoms: C_5  and  C_8
REMARK    3  A    between atoms: C_8  and  C_9
REMARK    4  A    between atoms: C_9  and  C_10
REMARK    5  A    between atoms: C_13  and  C_18
REMARK    6  A    between atoms: C_21  and  O_22
REMARK    7  A    between atoms: O_22  and  C_23
REMARK                            x       y       z     vdW  Elec       q    Type
REMARK                         _______ _______ _______ _____ _____    ______ ____
ROOT
ATOM      1  C   LIG A   1      -9.190  -0.612 123.972  0.00  0.00    +0.119 C 
ATOM      2  O   LIG A   1      -8.487  -1.007 125.151  0.00  0.00    -0.369 OA
ATOM      3  C   LIG A   1      -8.915  -2.275 125.673  0.00  0.00    +0.149 C 
ATOM      4  C   LIG A   1      -8.670  -3.382 124.638  0.00  0.00    +0.036 C 
ATOM      5  C   LIG A   1      -9.333  -3.031 123.308  0.00  0.00    +0.005 C 
ATOM      6  C   LIG A   1      -8.927  -1.629 122.857  0.00  0.00    +0.032 C 
ENDROOT
BRANCH   3   7
ATOM      7  C   LIG A   1      -8.162  -2.546 126.962  0.00  0.00    -0.019 A 
ATOM      8  C   LIG A   1      -8.690  -3.412 127.930  0.00  0.00    +0.010 A 
ATOM      9  C   LIG A   1      -8.000  -3.679 129.114  0.00  0.00    +0.046 A 
ATOM     10  C   LIG A   1      -6.767  -3.076 129.361  0.00  0.00    +0.120 A 
ATOM     11  C   LIG A   1      -6.238  -2.201 128.413  0.00  0.00    +0.046 A 
ATOM     12  C   LIG A   1      -6.927  -1.935 127.220  0.00  0.00    +0.010 A 
BRANCH  10  13
ATOM     13  O   LIG A   1      -6.005  -3.269 130.481  0.00  0.00    -0.495 OA
ATOM     14  C   LIG A   1      -5.207  -4.448 130.501  0.00  0.00    +0.277 C 
ENDBRANCH  10  13
ENDBRANCH   3   7
BRANCH   1  15
ATOM     15  C   LIG A   1      -8.716   0.796 123.573  0.00  0.00    +0.036 C 
BRANCH  15  16
ATOM     16  C   LIG A   1      -7.194   0.843 123.384  0.00  0.00    +0.037 C 
BRANCH  16  20
ATOM     17  C   LIG A   1      -5.147   3.819 125.731  0.00  0.00    +0.117 A 
ATOM     18  C   LIG A   1      -5.596   4.142 124.455  0.00  0.00    +0.045 A 
ATOM     19  C   LIG A   1      -6.284   3.182 123.704  0.00  0.00    +0.007 A 
ATOM     20  C   LIG A   1      -6.516   1.900 124.225  0.00  0.00    -0.047 A 
ATOM     21  C   LIG A   1      -6.078   1.605 125.525  0.00  0.00    +0.007 A 
ATOM     22  C   LIG A   1      -5.391   2.564 126.274  0.00  0.00    +0.045 A 
BRANCH  17  23
ATOM     23  O   LIG A   1      -4.449   4.715 126.486  0.00  0.00    -0.507 OA
ATOM     24  H   LIG A   1      -5.025   5.473 126.674  0.00  0.00    +0.292 HD
ENDBRANCH  17  23
ENDBRANCH  16  20
ENDBRANCH  15  16
ENDBRANCH   1  15
TORSDOF 6
ENDMDL
