MODEL 1
REMARK VINA RESULT:     -10.4      0.000      0.000
REMARK  Name = NuBBE_606
REMARK  13 active torsions:
REMARK  status: ('A' for Active; 'I' for Inactive)
REMARK    1  A    between atoms: C_1  and  C_2
REMARK    2  A    between atoms: C_3  and  C_47
REMARK    3  A    between atoms: C_8  and  C_9
REMARK    4  A    between atoms: C_8  and  C_46
REMARK    5  A    between atoms: C_10  and  O_35
REMARK    6  A    between atoms: C_14  and  C_34
REMARK    7  A    between atoms: C_23  and  C_24
REMARK    8  A    between atoms: C_29  and  C_31
REMARK    9  A    between atoms: C_31  and  C_32
REMARK   10  A    between atoms: O_35  and  C_36
REMARK   11  A    between atoms: C_36  and  C_37
REMARK   12  A    between atoms: C_37  and  C_38
REMARK   13  A    between atoms: C_38  and  C_39
REMARK                            x       y       z     vdW  Elec       q    Type
REMARK                         _______ _______ _______ _____ _____    ______ ____
ROOT
ATOM      1  C   LIG A   1      -8.335  -0.053 130.319  0.00  0.00    +0.012 C 
ATOM      2  C   LIG A   1      -7.182  -1.094 130.456  0.00  0.00    -0.023 C 
ATOM      3  C   LIG A   1      -6.997  -1.937 129.054  0.00  0.00    -0.023 C 
ATOM      4  C   LIG A   1      -8.326  -2.583 128.572  0.00  0.00    +0.008 C 
ATOM      5  C   LIG A   1      -8.237  -3.236 127.178  0.00  0.00    +0.005 C 
ATOM      6  C   LIG A   1      -7.800  -2.209 126.120  0.00  0.00    +0.004 C 
ATOM      7  C   LIG A   1      -7.997  -2.636 124.614  0.00  0.00    +0.005 C 
ATOM      8  C   LIG A   1      -7.026  -3.728 124.113  0.00  0.00    +0.015 C 
ATOM      9  C   LIG A   1      -7.858  -1.326 123.758  0.00  0.00    +0.182 C 
ATOM     10  C   LIG A   1      -6.479  -0.679 123.965  0.00  0.00    +0.046 C 
ATOM     11  C   LIG A   1      -6.188  -0.361 125.439  0.00  0.00    +0.011 C 
ATOM     12  C   LIG A   1      -6.409  -1.545 126.444  0.00  0.00    -0.025 C 
ATOM     13  C   LIG A   1      -6.497  -0.945 127.918  0.00  0.00    +0.002 C 
ATOM     14  C   LIG A   1      -5.238  -0.151 128.335  0.00  0.00    +0.005 C 
ATOM     15  C   LIG A   1      -5.406   0.593 129.659  0.00  0.00    +0.005 C 
ATOM     16  C   LIG A   1      -5.808  -0.381 130.762  0.00  0.00    -0.000 C 
ATOM     17  C   LIG A   1      -5.525   0.130 132.196  0.00  0.00    +0.006 C 
ATOM     18  C   LIG A   1      -5.897  -0.941 133.241  0.00  0.00    -0.028 C 
ATOM     19  C   LIG A   1      -4.932  -2.145 133.210  0.00  0.00    +0.011 C 
ATOM     20  C   LIG A   1      -7.353  -1.409 133.042  0.00  0.00    +0.007 C 
ATOM     21  C   LIG A   1      -7.598  -2.013 131.652  0.00  0.00    +0.008 C 
ATOM     22  C   LIG A   1      -5.720  -0.179 134.560  0.00  0.00    +0.007 C 
ATOM     23  C   LIG A   1      -6.094   1.277 134.274  0.00  0.00    +0.009 C 
ATOM     24  C   LIG A   1      -6.162   1.443 132.735  0.00  0.00    +0.018 C 
ATOM     25  C   LIG A   1      -5.211  -2.512 126.286  0.00  0.00    +0.012 C 
ATOM     26  C   LIG A   1      -9.400  -3.263 124.408  0.00  0.00    +0.015 C 
ATOM     27  C   LIG A   1      -6.004  -3.120 129.270  0.00  0.00    +0.012 C 
ENDROOT
BRANCH  24  28
ATOM     28  C   LIG A   1      -5.565   2.779 132.303  0.00  0.00    -0.076 C 
ATOM     29  C   LIG A   1      -6.542   3.888 131.995  0.00  0.00    +0.038 C 
ATOM     30  C   LIG A   1      -4.247   3.023 132.212  0.00  0.00    +0.007 C 
ENDBRANCH  24  28
BRANCH   9  31
ATOM     31  O   LIG A   1      -8.807  -0.328 124.225  0.00  0.00    -0.461 OA
BRANCH  31  32
ATOM     32  C   LIG A   1      -9.634   0.273 123.327  0.00  0.00    +0.308 C 
ATOM     33  O   LIG A   1     -10.265  -0.285 122.457  0.00  0.00    -0.251 OA
BRANCH  32  34
ATOM     34  C   LIG A   1      -9.738   1.740 123.661  0.00  0.00    +0.125 C 
BRANCH  34  35
ATOM     35  C   LIG A   1      -8.367   2.348 123.882  0.00  0.00    +0.046 C 
BRANCH  35  36
ATOM     36  C   LIG A   1      -7.837   2.952 122.606  0.00  0.00    -0.047 A 
ATOM     37  C   LIG A   1      -8.719   3.357 121.593  0.00  0.00    +0.003 A 
ATOM     38  C   LIG A   1      -8.227   3.881 120.398  0.00  0.00    +0.000 A 
ATOM     39  C   LIG A   1      -6.854   4.001 120.199  0.00  0.00    +0.000 A 
ATOM     40  C   LIG A   1      -5.968   3.597 121.197  0.00  0.00    +0.000 A 
ATOM     41  C   LIG A   1      -6.457   3.073 122.395  0.00  0.00    +0.003 A 
ENDBRANCH  35  36
ENDBRANCH  34  35
ENDBRANCH  32  34
ENDBRANCH  31  32
ENDBRANCH   9  31
TORSDOF 6
ENDMDL
MODEL 2
REMARK VINA RESULT:     -10.4      2.658      6.176
REMARK  Name = NuBBE_606
REMARK  13 active torsions:
REMARK  status: ('A' for Active; 'I' for Inactive)
REMARK    1  A    between atoms: C_1  and  C_2
REMARK    2  A    between atoms: C_3  and  C_47
REMARK    3  A    between atoms: C_8  and  C_9
REMARK    4  A    between atoms: C_8  and  C_46
REMARK    5  A    between atoms: C_10  and  O_35
REMARK    6  A    between atoms: C_14  and  C_34
REMARK    7  A    between atoms: C_23  and  C_24
REMARK    8  A    between atoms: C_29  and  C_31
REMARK    9  A    between atoms: C_31  and  C_32
REMARK   10  A    between atoms: O_35  and  C_36
REMARK   11  A    between atoms: C_36  and  C_37
REMARK   12  A    between atoms: C_37  and  C_38
REMARK   13  A    between atoms: C_38  and  C_39
REMARK                            x       y       z     vdW  Elec       q    Type
REMARK                         _______ _______ _______ _____ _____    ______ ____
ROOT
ATOM      1  C   LIG A   1      -5.847   1.815 130.765  0.00  0.00    +0.012 C 
ATOM      2  C   LIG A   1      -5.545   3.053 129.867  0.00  0.00    -0.023 C 
ATOM      3  C   LIG A   1      -5.719   2.667 128.276  0.00  0.00    -0.023 C 
ATOM      4  C   LIG A   1      -4.879   1.422 127.874  0.00  0.00    +0.008 C 
ATOM      5  C   LIG A   1      -5.145   0.922 126.439  0.00  0.00    +0.005 C 
ATOM      6  C   LIG A   1      -6.630   0.573 126.248  0.00  0.00    +0.004 C 
ATOM      7  C   LIG A   1      -6.986  -0.267 124.960  0.00  0.00    +0.005 C 
ATOM      8  C   LIG A   1      -6.884   0.508 123.628  0.00  0.00    +0.015 C 
ATOM      9  C   LIG A   1      -8.439  -0.821 125.176  0.00  0.00    +0.182 C 
ATOM     10  C   LIG A   1      -9.441   0.330 125.372  0.00  0.00    +0.046 C 
ATOM     11  C   LIG A   1      -9.065   1.252 126.541  0.00  0.00    +0.011 C 
ATOM     12  C   LIG A   1      -7.591   1.788 126.533  0.00  0.00    -0.025 C 
ATOM     13  C   LIG A   1      -7.247   2.338 127.989  0.00  0.00    +0.002 C 
ATOM     14  C   LIG A   1      -8.195   3.463 128.461  0.00  0.00    +0.005 C 
ATOM     15  C   LIG A   1      -7.996   3.843 129.928  0.00  0.00    +0.005 C 
ATOM     16  C   LIG A   1      -6.543   4.235 130.177  0.00  0.00    -0.000 C 
ATOM     17  C   LIG A   1      -6.325   5.096 131.445  0.00  0.00    +0.006 C 
ATOM     18  C   LIG A   1      -4.844   5.502 131.581  0.00  0.00    -0.028 C 
ATOM     19  C   LIG A   1      -4.420   6.528 130.508  0.00  0.00    +0.011 C 
ATOM     20  C   LIG A   1      -3.934   4.259 131.529  0.00  0.00    +0.007 C 
ATOM     21  C   LIG A   1      -4.079   3.470 130.220  0.00  0.00    +0.008 C 
ATOM     22  C   LIG A   1      -4.818   6.169 132.962  0.00  0.00    +0.007 C 
ATOM     23  C   LIG A   1      -5.856   5.438 133.816  0.00  0.00    +0.009 C 
ATOM     24  C   LIG A   1      -6.722   4.581 132.858  0.00  0.00    +0.018 C 
ATOM     25  C   LIG A   1      -7.512   2.903 125.463  0.00  0.00    +0.012 C 
ATOM     26  C   LIG A   1      -5.987  -1.439 124.784  0.00  0.00    +0.015 C 
ATOM     27  C   LIG A   1      -5.200   3.835 127.383  0.00  0.00    +0.012 C 
ENDROOT
BRANCH  24  28
ATOM     28  C   LIG A   1      -8.192   4.621 133.267  0.00  0.00    -0.076 C 
ATOM     29  C   LIG A   1      -8.932   5.910 133.001  0.00  0.00    +0.038 C 
ATOM     30  C   LIG A   1      -8.853   3.586 133.812  0.00  0.00    +0.007 C 
ENDBRANCH  24  28
BRANCH   9  31
ATOM     31  O   LIG A   1      -8.500  -1.576 126.418  0.00  0.00    -0.461 OA
BRANCH  31  32
ATOM     32  C   LIG A   1      -9.145  -2.774 126.435  0.00  0.00    +0.308 C 
ATOM     33  O   LIG A   1      -9.883  -3.197 125.572  0.00  0.00    -0.251 OA
BRANCH  32  34
ATOM     34  C   LIG A   1      -8.700  -3.555 127.646  0.00  0.00    +0.125 C 
BRANCH  34  35
ATOM     35  C   LIG A   1      -8.180  -2.631 128.729  0.00  0.00    +0.046 C 
BRANCH  35  36
ATOM     36  C   LIG A   1      -6.757  -2.975 129.089  0.00  0.00    -0.047 A 
ATOM     37  C   LIG A   1      -5.688  -2.366 128.416  0.00  0.00    +0.003 A 
ATOM     38  C   LIG A   1      -4.372  -2.712 128.723  0.00  0.00    +0.000 A 
ATOM     39  C   LIG A   1      -4.110  -3.671 129.699  0.00  0.00    +0.000 A 
ATOM     40  C   LIG A   1      -5.165  -4.286 130.371  0.00  0.00    +0.000 A 
ATOM     41  C   LIG A   1      -6.484  -3.941 130.067  0.00  0.00    +0.003 A 
ENDBRANCH  35  36
ENDBRANCH  34  35
ENDBRANCH  32  34
ENDBRANCH  31  32
ENDBRANCH   9  31
TORSDOF 6
ENDMDL
MODEL 3
REMARK VINA RESULT:     -10.3      1.469      2.277
REMARK  Name = NuBBE_606
REMARK  13 active torsions:
REMARK  status: ('A' for Active; 'I' for Inactive)
REMARK    1  A    between atoms: C_1  and  C_2
REMARK    2  A    between atoms: C_3  and  C_47
REMARK    3  A    between atoms: C_8  and  C_9
REMARK    4  A    between atoms: C_8  and  C_46
REMARK    5  A    between atoms: C_10  and  O_35
REMARK    6  A    between atoms: C_14  and  C_34
REMARK    7  A    between atoms: C_23  and  C_24
REMARK    8  A    between atoms: C_29  and  C_31
REMARK    9  A    between atoms: C_31  and  C_32
REMARK   10  A    between atoms: O_35  and  C_36
REMARK   11  A    between atoms: C_36  and  C_37
REMARK   12  A    between atoms: C_37  and  C_38
REMARK   13  A    between atoms: C_38  and  C_39
REMARK                            x       y       z     vdW  Elec       q    Type
REMARK                         _______ _______ _______ _____ _____    ______ ____
ROOT
ATOM      1  C   LIG A   1      -7.533   1.006 129.660  0.00  0.00    +0.012 C 
ATOM      2  C   LIG A   1      -6.315   0.033 129.687  0.00  0.00    -0.023 C 
ATOM      3  C   LIG A   1      -6.403  -1.037 128.439  0.00  0.00    -0.023 C 
ATOM      4  C   LIG A   1      -7.764  -1.789 128.399  0.00  0.00    +0.008 C 
ATOM      5  C   LIG A   1      -7.957  -2.672 127.151  0.00  0.00    +0.005 C 
ATOM      6  C   LIG A   1      -7.842  -1.835 125.865  0.00  0.00    +0.004 C 
ATOM      7  C   LIG A   1      -8.354  -2.523 124.540  0.00  0.00    +0.005 C 
ATOM      8  C   LIG A   1      -7.456  -3.662 124.009  0.00  0.00    +0.015 C 
ATOM      9  C   LIG A   1      -8.499  -1.380 123.473  0.00  0.00    +0.182 C 
ATOM     10  C   LIG A   1      -7.154  -0.674 123.237  0.00  0.00    +0.046 C 
ATOM     11  C   LIG A   1      -6.553  -0.097 124.528  0.00  0.00    +0.011 C 
ATOM     12  C   LIG A   1      -6.459  -1.092 125.736  0.00  0.00    -0.025 C 
ATOM     13  C   LIG A   1      -6.244  -0.247 127.069  0.00  0.00    +0.002 C 
ATOM     14  C   LIG A   1      -4.976   0.637 127.039  0.00  0.00    +0.005 C 
ATOM     15  C   LIG A   1      -4.882   1.596 128.225  0.00  0.00    +0.005 C 
ATOM     16  C   LIG A   1      -4.956   0.820 129.536  0.00  0.00    -0.000 C 
ATOM     17  C   LIG A   1      -4.383   1.580 130.757  0.00  0.00    +0.006 C 
ATOM     18  C   LIG A   1      -4.435   0.699 132.022  0.00  0.00    -0.028 C 
ATOM     19  C   LIG A   1      -3.428  -0.469 131.961  0.00  0.00    +0.011 C 
ATOM     20  C   LIG A   1      -5.864   0.169 132.255  0.00  0.00    +0.007 C 
ATOM     21  C   LIG A   1      -6.384  -0.674 131.081  0.00  0.00    +0.008 C 
ATOM     22  C   LIG A   1      -4.008   1.684 133.118  0.00  0.00    +0.007 C 
ATOM     23  C   LIG A   1      -4.531   3.058 132.695  0.00  0.00    +0.009 C 
ATOM     24  C   LIG A   1      -4.962   2.951 131.210  0.00  0.00    +0.018 C 
ATOM     25  C   LIG A   1      -5.271  -2.044 125.458  0.00  0.00    +0.012 C 
ATOM     26  C   LIG A   1      -9.722  -3.210 124.780  0.00  0.00    +0.015 C 
ATOM     27  C   LIG A   1      -5.314  -2.141 128.603  0.00  0.00    +0.012 C 
ENDROOT
BRANCH  24  28
ATOM     28  C   LIG A   1      -4.567   4.205 130.436  0.00  0.00    -0.076 C 
ATOM     29  C   LIG A   1      -3.107   4.588 130.468  0.00  0.00    +0.038 C 
ATOM     30  C   LIG A   1      -5.425   4.952 129.720  0.00  0.00    +0.007 C 
ENDBRANCH  24  28
BRANCH   9  31
ATOM     31  O   LIG A   1      -9.377  -0.338 123.983  0.00  0.00    -0.461 OA
BRANCH  31  32
ATOM     32  C   LIG A   1      -9.907   0.566 123.115  0.00  0.00    +0.308 C 
ATOM     33  O   LIG A   1     -10.512   0.306 122.098  0.00  0.00    -0.251 OA
BRANCH  32  34
ATOM     34  C   LIG A   1      -9.728   1.953 123.680  0.00  0.00    +0.125 C 
BRANCH  34  35
ATOM     35  C   LIG A   1      -8.638   2.705 122.943  0.00  0.00    +0.046 C 
BRANCH  35  36
ATOM     36  C   LIG A   1      -7.617   3.250 123.909  0.00  0.00    -0.047 A 
ATOM     37  C   LIG A   1      -6.354   3.656 123.453  0.00  0.00    +0.003 A 
ATOM     38  C   LIG A   1      -5.396   4.126 124.352  0.00  0.00    +0.000 A 
ATOM     39  C   LIG A   1      -5.687   4.190 125.712  0.00  0.00    +0.000 A 
ATOM     40  C   LIG A   1      -6.937   3.785 126.178  0.00  0.00    +0.000 A 
ATOM     41  C   LIG A   1      -7.898   3.315 125.281  0.00  0.00    +0.003 A 
ENDBRANCH  35  36
ENDBRANCH  34  35
ENDBRANCH  32  34
ENDBRANCH  31  32
ENDBRANCH   9  31
TORSDOF 6
ENDMDL
MODEL 4
REMARK VINA RESULT:     -10.3      3.202      8.015
REMARK  Name = NuBBE_606
REMARK  13 active torsions:
REMARK  status: ('A' for Active; 'I' for Inactive)
REMARK    1  A    between atoms: C_1  and  C_2
REMARK    2  A    between atoms: C_3  and  C_47
REMARK    3  A    between atoms: C_8  and  C_9
REMARK    4  A    between atoms: C_8  and  C_46
REMARK    5  A    between atoms: C_10  and  O_35
REMARK    6  A    between atoms: C_14  and  C_34
REMARK    7  A    between atoms: C_23  and  C_24
REMARK    8  A    between atoms: C_29  and  C_31
REMARK    9  A    between atoms: C_31  and  C_32
REMARK   10  A    between atoms: O_35  and  C_36
REMARK   11  A    between atoms: C_36  and  C_37
REMARK   12  A    between atoms: C_37  and  C_38
REMARK   13  A    between atoms: C_38  and  C_39
REMARK                            x       y       z     vdW  Elec       q    Type
REMARK                         _______ _______ _______ _____ _____    ______ ____
ROOT
ATOM      1  C   LIG A   1      -5.599   0.493 126.858  0.00  0.00    +0.012 C 
ATOM      2  C   LIG A   1      -6.705  -0.386 127.518  0.00  0.00    -0.023 C 
ATOM      3  C   LIG A   1      -6.951   0.072 129.080  0.00  0.00    -0.023 C 
ATOM      4  C   LIG A   1      -5.633   0.088 129.906  0.00  0.00    +0.008 C 
ATOM      5  C   LIG A   1      -5.787   0.674 131.323  0.00  0.00    +0.005 C 
ATOM      6  C   LIG A   1      -6.326   2.114 131.263  0.00  0.00    +0.004 C 
ATOM      7  C   LIG A   1      -6.209   2.955 132.594  0.00  0.00    +0.005 C 
ATOM      8  C   LIG A   1      -7.172   2.526 133.722  0.00  0.00    +0.015 C 
ATOM      9  C   LIG A   1      -6.446   4.455 132.195  0.00  0.00    +0.182 C 
ATOM     10  C   LIG A   1      -7.831   4.640 131.552  0.00  0.00    +0.046 C 
ATOM     11  C   LIG A   1      -8.038   3.743 130.322  0.00  0.00    +0.011 C 
ATOM     12  C   LIG A   1      -7.715   2.223 130.530  0.00  0.00    -0.025 C 
ATOM     13  C   LIG A   1      -7.554   1.542 129.098  0.00  0.00    +0.002 C 
ATOM     14  C   LIG A   1      -8.810   1.678 128.208  0.00  0.00    +0.005 C 
ATOM     15  C   LIG A   1      -8.585   1.210 126.771  0.00  0.00    +0.005 C 
ATOM     16  C   LIG A   1      -8.081  -0.231 126.760  0.00  0.00    -0.000 C 
ATOM     17  C   LIG A   1      -8.291  -0.967 125.415  0.00  0.00    +0.006 C 
ATOM     18  C   LIG A   1      -7.817  -2.431 125.514  0.00  0.00    -0.028 C 
ATOM     19  C   LIG A   1      -8.741  -3.282 126.411  0.00  0.00    +0.011 C 
ATOM     20  C   LIG A   1      -6.362  -2.497 126.020  0.00  0.00    +0.007 C 
ATOM     21  C   LIG A   1      -6.184  -1.857 127.405  0.00  0.00    +0.008 C 
ATOM     22  C   LIG A   1      -7.936  -2.908 124.061  0.00  0.00    +0.007 C 
ATOM     23  C   LIG A   1      -7.630  -1.695 123.180  0.00  0.00    +0.009 C 
ATOM     24  C   LIG A   1      -7.665  -0.441 124.091  0.00  0.00    +0.018 C 
ATOM     25  C   LIG A   1      -8.887   1.608 131.332  0.00  0.00    +0.012 C 
ATOM     26  C   LIG A   1      -4.802   2.784 133.222  0.00  0.00    +0.015 C 
ATOM     27  C   LIG A   1      -7.887  -0.949 129.795  0.00  0.00    +0.012 C 
ENDROOT
BRANCH  24  28
ATOM     28  C   LIG A   1      -8.333   0.732 123.379  0.00  0.00    -0.076 C 
ATOM     29  C   LIG A   1      -9.731   0.499 122.858  0.00  0.00    +0.038 C 
ATOM     30  C   LIG A   1      -7.768   1.941 123.222  0.00  0.00    +0.007 C 
ENDBRANCH  24  28
BRANCH   9  31
ATOM     31  O   LIG A   1      -5.504   4.845 131.157  0.00  0.00    -0.461 OA
BRANCH  31  32
ATOM     32  C   LIG A   1      -4.423   5.600 131.492  0.00  0.00    +0.308 C 
ATOM     33  O   LIG A   1      -4.345   6.351 132.440  0.00  0.00    -0.251 OA
BRANCH  32  34
ATOM     34  C   LIG A   1      -3.283   5.265 130.564  0.00  0.00    +0.125 C 
BRANCH  34  35
ATOM     35  C   LIG A   1      -3.388   3.837 130.065  0.00  0.00    +0.046 C 
BRANCH  35  36
ATOM     36  C   LIG A   1      -3.672   3.807 128.584  0.00  0.00    -0.047 A 
ATOM     37  C   LIG A   1      -2.638   3.566 127.669  0.00  0.00    +0.003 A 
ATOM     38  C   LIG A   1      -2.893   3.575 126.297  0.00  0.00    +0.000 A 
ATOM     39  C   LIG A   1      -4.180   3.828 125.828  0.00  0.00    +0.000 A 
ATOM     40  C   LIG A   1      -5.215   4.073 126.729  0.00  0.00    +0.000 A 
ATOM     41  C   LIG A   1      -4.962   4.065 128.102  0.00  0.00    +0.003 A 
ENDBRANCH  35  36
ENDBRANCH  34  35
ENDBRANCH  32  34
ENDBRANCH  31  32
ENDBRANCH   9  31
TORSDOF 6
ENDMDL
MODEL 5
REMARK VINA RESULT:     -10.2      2.756      6.794
REMARK  Name = NuBBE_606
REMARK  13 active torsions:
REMARK  status: ('A' for Active; 'I' for Inactive)
REMARK    1  A    between atoms: C_1  and  C_2
REMARK    2  A    between atoms: C_3  and  C_47
REMARK    3  A    between atoms: C_8  and  C_9
REMARK    4  A    between atoms: C_8  and  C_46
REMARK    5  A    between atoms: C_10  and  O_35
REMARK    6  A    between atoms: C_14  and  C_34
REMARK    7  A    between atoms: C_23  and  C_24
REMARK    8  A    between atoms: C_29  and  C_31
REMARK    9  A    between atoms: C_31  and  C_32
REMARK   10  A    between atoms: O_35  and  C_36
REMARK   11  A    between atoms: C_36  and  C_37
REMARK   12  A    between atoms: C_37  and  C_38
REMARK   13  A    between atoms: C_38  and  C_39
REMARK                            x       y       z     vdW  Elec       q    Type
REMARK                         _______ _______ _______ _____ _____    ______ ____
ROOT
ATOM      1  C   LIG A   1      -4.100   2.846 130.488  0.00  0.00    +0.012 C 
ATOM      2  C   LIG A   1      -4.370   4.006 129.483  0.00  0.00    -0.023 C 
ATOM      3  C   LIG A   1      -4.949   3.414 128.060  0.00  0.00    -0.023 C 
ATOM      4  C   LIG A   1      -4.031   2.311 127.461  0.00  0.00    +0.008 C 
ATOM      5  C   LIG A   1      -4.620   1.608 126.222  0.00  0.00    +0.005 C 
ATOM      6  C   LIG A   1      -5.978   0.966 126.551  0.00  0.00    +0.004 C 
ATOM      7  C   LIG A   1      -6.531  -0.069 125.495  0.00  0.00    +0.005 C 
ATOM      8  C   LIG A   1      -7.024   0.552 124.170  0.00  0.00    +0.015 C 
ATOM      9  C   LIG A   1      -7.687  -0.858 126.209  0.00  0.00    +0.182 C 
ATOM     10  C   LIG A   1      -8.800   0.098 126.671  0.00  0.00    +0.046 C 
ATOM     11  C   LIG A   1      -8.282   1.204 127.603  0.00  0.00    +0.011 C 
ATOM     12  C   LIG A   1      -7.038   2.003 127.081  0.00  0.00    -0.025 C 
ATOM     13  C   LIG A   1      -6.381   2.771 128.313  0.00  0.00    +0.002 C 
ATOM     14  C   LIG A   1      -7.351   3.745 129.019  0.00  0.00    +0.005 C 
ATOM     15  C   LIG A   1      -6.787   4.323 130.317  0.00  0.00    +0.005 C 
ATOM     16  C   LIG A   1      -5.450   5.008 130.049  0.00  0.00    -0.000 C 
ATOM     17  C   LIG A   1      -5.035   6.034 131.131  0.00  0.00    +0.006 C 
ATOM     18  C   LIG A   1      -3.710   6.725 130.748  0.00  0.00    -0.028 C 
ATOM     19  C   LIG A   1      -3.878   7.681 129.549  0.00  0.00    +0.011 C 
ATOM     20  C   LIG A   1      -2.617   5.678 130.456  0.00  0.00    +0.007 C 
ATOM     21  C   LIG A   1      -2.994   4.729 129.309  0.00  0.00    +0.008 C 
ATOM     22  C   LIG A   1      -3.395   7.539 132.009  0.00  0.00    +0.007 C 
ATOM     23  C   LIG A   1      -3.928   6.730 133.193  0.00  0.00    +0.009 C 
ATOM     24  C   LIG A   1      -4.846   5.620 132.619  0.00  0.00    +0.018 C 
ATOM     25  C   LIG A   1      -7.542   2.981 125.993  0.00  0.00    +0.012 C 
ATOM     26  C   LIG A   1      -5.411  -1.045 125.054  0.00  0.00    +0.015 C 
ATOM     27  C   LIG A   1      -5.002   4.548 126.991  0.00  0.00    +0.012 C 
ENDROOT
BRANCH  24  28
ATOM     28  C   LIG A   1      -6.084   5.430 133.490  0.00  0.00    -0.076 C 
ATOM     29  C   LIG A   1      -5.908   4.612 134.747  0.00  0.00    +0.038 C 
ATOM     30  C   LIG A   1      -7.287   5.965 133.220  0.00  0.00    +0.007 C 
ENDBRANCH  24  28
BRANCH   9  31
ATOM     31  O   LIG A   1      -7.190  -1.463 127.434  0.00  0.00    -0.461 OA
BRANCH  31  32
ATOM     32  C   LIG A   1      -7.953  -2.389 128.075  0.00  0.00    +0.308 C 
ATOM     33  O   LIG A   1      -8.526  -3.322 127.555  0.00  0.00    -0.251 OA
BRANCH  32  34
ATOM     34  C   LIG A   1      -7.879  -2.144 129.561  0.00  0.00    +0.125 C 
BRANCH  34  35
ATOM     35  C   LIG A   1      -6.801  -1.132 129.894  0.00  0.00    +0.046 C 
BRANCH  35  36
ATOM     36  C   LIG A   1      -7.304  -0.123 130.895  0.00  0.00    -0.047 A 
ATOM     37  C   LIG A   1      -8.675   0.156 130.992  0.00  0.00    +0.003 A 
ATOM     38  C   LIG A   1      -9.137   1.117 131.892  0.00  0.00    +0.000 A 
ATOM     39  C   LIG A   1      -8.237   1.810 132.698  0.00  0.00    +0.000 A 
ATOM     40  C   LIG A   1      -6.872   1.544 132.606  0.00  0.00    +0.000 A 
ATOM     41  C   LIG A   1      -6.406   0.583 131.707  0.00  0.00    +0.003 A 
ENDBRANCH  35  36
ENDBRANCH  34  35
ENDBRANCH  32  34
ENDBRANCH  31  32
ENDBRANCH   9  31
TORSDOF 6
ENDMDL
MODEL 6
REMARK VINA RESULT:     -10.1      1.033      1.778
REMARK  Name = NuBBE_606
REMARK  13 active torsions:
REMARK  status: ('A' for Active; 'I' for Inactive)
REMARK    1  A    between atoms: C_1  and  C_2
REMARK    2  A    between atoms: C_3  and  C_47
REMARK    3  A    between atoms: C_8  and  C_9
REMARK    4  A    between atoms: C_8  and  C_46
REMARK    5  A    between atoms: C_10  and  O_35
REMARK    6  A    between atoms: C_14  and  C_34
REMARK    7  A    between atoms: C_23  and  C_24
REMARK    8  A    between atoms: C_29  and  C_31
REMARK    9  A    between atoms: C_31  and  C_32
REMARK   10  A    between atoms: O_35  and  C_36
REMARK   11  A    between atoms: C_36  and  C_37
REMARK   12  A    between atoms: C_37  and  C_38
REMARK   13  A    between atoms: C_38  and  C_39
REMARK                            x       y       z     vdW  Elec       q    Type
REMARK                         _______ _______ _______ _____ _____    ______ ____
ROOT
ATOM      1  C   LIG A   1      -8.392   0.028 130.300  0.00  0.00    +0.012 C 
ATOM      2  C   LIG A   1      -7.167  -0.931 130.399  0.00  0.00    -0.023 C 
ATOM      3  C   LIG A   1      -6.983  -1.779 129.000  0.00  0.00    -0.023 C 
ATOM      4  C   LIG A   1      -8.285  -2.520 128.582  0.00  0.00    +0.008 C 
ATOM      5  C   LIG A   1      -8.210  -3.184 127.192  0.00  0.00    +0.005 C 
ATOM      6  C   LIG A   1      -7.887  -2.144 126.106  0.00  0.00    +0.004 C 
ATOM      7  C   LIG A   1      -8.118  -2.604 124.614  0.00  0.00    +0.005 C 
ATOM      8  C   LIG A   1      -7.098  -3.635 124.084  0.00  0.00    +0.015 C 
ATOM      9  C   LIG A   1      -8.104  -1.300 123.738  0.00  0.00    +0.182 C 
ATOM     10  C   LIG A   1      -6.764  -0.559 123.880  0.00  0.00    +0.046 C 
ATOM     11  C   LIG A   1      -6.434  -0.202 125.337  0.00  0.00    +0.011 C 
ATOM     12  C   LIG A   1      -6.532  -1.384 126.363  0.00  0.00    -0.025 C 
ATOM     13  C   LIG A   1      -6.599  -0.771 127.833  0.00  0.00    +0.002 C 
ATOM     14  C   LIG A   1      -5.381   0.110 128.187  0.00  0.00    +0.005 C 
ATOM     15  C   LIG A   1      -5.543   0.860 129.509  0.00  0.00    +0.005 C 
ATOM     16  C   LIG A   1      -5.833  -0.124 130.639  0.00  0.00    -0.000 C 
ATOM     17  C   LIG A   1      -5.525   0.425 132.053  0.00  0.00    +0.006 C 
ATOM     18  C   LIG A   1      -5.780  -0.655 133.125  0.00  0.00    -0.028 C 
ATOM     19  C   LIG A   1      -4.738  -1.791 133.067  0.00  0.00    +0.011 C 
ATOM     20  C   LIG A   1      -7.208  -1.222 132.993  0.00  0.00    +0.007 C 
ATOM     21  C   LIG A   1      -7.469  -1.860 131.621  0.00  0.00    +0.008 C 
ATOM     22  C   LIG A   1      -5.600   0.136 134.427  0.00  0.00    +0.007 C 
ATOM     23  C   LIG A   1      -6.083   1.559 134.142  0.00  0.00    +0.009 C 
ATOM     24  C   LIG A   1      -6.227   1.699 132.605  0.00  0.00    +0.018 C 
ATOM     25  C   LIG A   1      -5.280  -2.271 126.165  0.00  0.00    +0.012 C 
ATOM     26  C   LIG A   1      -9.482  -3.327 124.474  0.00  0.00    +0.015 C 
ATOM     27  C   LIG A   1      -5.904  -2.890 129.186  0.00  0.00    +0.012 C 
ENDROOT
BRANCH  24  28
ATOM     28  C   LIG A   1      -5.739   3.066 132.133  0.00  0.00    -0.076 C 
ATOM     29  C   LIG A   1      -6.760   3.952 131.460  0.00  0.00    +0.038 C 
ATOM     30  C   LIG A   1      -4.488   3.523 132.308  0.00  0.00    +0.007 C 
ENDBRANCH  24  28
BRANCH   9  31
ATOM     31  O   LIG A   1      -9.097  -0.361 124.235  0.00  0.00    -0.461 OA
BRANCH  31  32
ATOM     32  C   LIG A   1      -9.776   0.417 123.349  0.00  0.00    +0.308 C 
ATOM     33  O   LIG A   1     -10.365   0.027 122.364  0.00  0.00    -0.251 OA
BRANCH  32  34
ATOM     34  C   LIG A   1      -9.783   1.840 123.849  0.00  0.00    +0.125 C 
BRANCH  34  35
ATOM     35  C   LIG A   1      -8.635   2.632 123.256  0.00  0.00    +0.046 C 
BRANCH  35  36
ATOM     36  C   LIG A   1      -7.643   3.018 124.323  0.00  0.00    -0.047 A 
ATOM     37  C   LIG A   1      -6.337   3.392 123.975  0.00  0.00    +0.003 A 
ATOM     38  C   LIG A   1      -5.407   3.713 124.965  0.00  0.00    +0.000 A 
ATOM     39  C   LIG A   1      -5.770   3.659 126.308  0.00  0.00    +0.000 A 
ATOM     40  C   LIG A   1      -7.064   3.284 126.666  0.00  0.00    +0.000 A 
ATOM     41  C   LIG A   1      -7.997   2.963 125.678  0.00  0.00    +0.003 A 
ENDBRANCH  35  36
ENDBRANCH  34  35
ENDBRANCH  32  34
ENDBRANCH  31  32
ENDBRANCH   9  31
TORSDOF 6
ENDMDL
MODEL 7
REMARK VINA RESULT:     -10.1      2.951      5.396
REMARK  Name = NuBBE_606
REMARK  13 active torsions:
REMARK  status: ('A' for Active; 'I' for Inactive)
REMARK    1  A    between atoms: C_1  and  C_2
REMARK    2  A    between atoms: C_3  and  C_47
REMARK    3  A    between atoms: C_8  and  C_9
REMARK    4  A    between atoms: C_8  and  C_46
REMARK    5  A    between atoms: C_10  and  O_35
REMARK    6  A    between atoms: C_14  and  C_34
REMARK    7  A    between atoms: C_23  and  C_24
REMARK    8  A    between atoms: C_29  and  C_31
REMARK    9  A    between atoms: C_31  and  C_32
REMARK   10  A    between atoms: O_35  and  C_36
REMARK   11  A    between atoms: C_36  and  C_37
REMARK   12  A    between atoms: C_37  and  C_38
REMARK   13  A    between atoms: C_38  and  C_39
REMARK                            x       y       z     vdW  Elec       q    Type
REMARK                         _______ _______ _______ _____ _____    ______ ____
ROOT
ATOM      1  C   LIG A   1      -6.500   3.678 130.110  0.00  0.00    +0.012 C 
ATOM      2  C   LIG A   1      -5.354   3.057 130.965  0.00  0.00    -0.023 C 
ATOM      3  C   LIG A   1      -5.423   1.413 130.914  0.00  0.00    -0.023 C 
ATOM      4  C   LIG A   1      -6.824   0.867 131.312  0.00  0.00    +0.008 C 
ATOM      5  C   LIG A   1      -6.986  -0.653 131.113  0.00  0.00    +0.005 C 
ATOM      6  C   LIG A   1      -6.724  -1.044 129.649  0.00  0.00    +0.004 C 
ATOM      7  C   LIG A   1      -7.184  -2.493 129.224  0.00  0.00    +0.005 C 
ATOM      8  C   LIG A   1      -6.327  -3.643 129.798  0.00  0.00    +0.015 C 
ATOM      9  C   LIG A   1      -7.177  -2.519 127.654  0.00  0.00    +0.182 C 
ATOM     10  C   LIG A   1      -5.775  -2.209 127.105  0.00  0.00    +0.046 C 
ATOM     11  C   LIG A   1      -5.231  -0.859 127.597  0.00  0.00    +0.011 C 
ATOM     12  C   LIG A   1      -5.289  -0.630 129.147  0.00  0.00    -0.025 C 
ATOM     13  C   LIG A   1      -5.115   0.928 129.433  0.00  0.00    +0.002 C 
ATOM     14  C   LIG A   1      -3.793   1.510 128.882  0.00  0.00    +0.005 C 
ATOM     15  C   LIG A   1      -3.721   3.034 128.973  0.00  0.00    +0.005 C 
ATOM     16  C   LIG A   1      -3.939   3.485 130.414  0.00  0.00    -0.000 C 
ATOM     17  C   LIG A   1      -3.406   4.906 130.722  0.00  0.00    +0.006 C 
ATOM     18  C   LIG A   1      -3.606   5.252 132.211  0.00  0.00    -0.028 C 
ATOM     19  C   LIG A   1      -2.676   4.433 133.131  0.00  0.00    +0.011 C 
ATOM     20  C   LIG A   1      -5.080   5.057 132.620  0.00  0.00    +0.007 C 
ATOM     21  C   LIG A   1      -5.569   3.616 132.410  0.00  0.00    +0.008 C 
ATOM     22  C   LIG A   1      -3.195   6.730 132.256  0.00  0.00    +0.007 C 
ATOM     23  C   LIG A   1      -3.594   7.333 130.908  0.00  0.00    +0.009 C 
ATOM     24  C   LIG A   1      -3.925   6.156 129.955  0.00  0.00    +0.018 C 
ATOM     25  C   LIG A   1      -4.150  -1.463 129.780  0.00  0.00    +0.012 C 
ATOM     26  C   LIG A   1      -8.608  -2.788 129.759  0.00  0.00    +0.015 C 
ATOM     27  C   LIG A   1      -4.423   0.804 131.944  0.00  0.00    +0.012 C 
ENDROOT
BRANCH  24  28
ATOM     28  C   LIG A   1      -3.394   6.426 128.550  0.00  0.00    -0.076 C 
ATOM     29  C   LIG A   1      -4.304   6.061 127.402  0.00  0.00    +0.038 C 
ATOM     30  C   LIG A   1      -2.201   6.985 128.288  0.00  0.00    +0.007 C 
ENDBRANCH  24  28
BRANCH   9  31
ATOM     31  O   LIG A   1      -8.019  -1.450 127.138  0.00  0.00    -0.461 OA
BRANCH  31  32
ATOM     32  C   LIG A   1      -8.970  -1.743 126.211  0.00  0.00    +0.308 C 
ATOM     33  O   LIG A   1      -9.638  -0.939 125.598  0.00  0.00    -0.251 OA
BRANCH  32  34
ATOM     34  C   LIG A   1      -8.983  -3.232 125.974  0.00  0.00    +0.125 C 
BRANCH  34  35
ATOM     35  C   LIG A   1      -8.900  -3.548 124.493  0.00  0.00    +0.046 C 
BRANCH  35  36
ATOM     36  C   LIG A   1      -7.502  -3.321 123.975  0.00  0.00    -0.047 A 
ATOM     37  C   LIG A   1      -6.464  -4.193 124.332  0.00  0.00    +0.003 A 
ATOM     38  C   LIG A   1      -5.163  -3.962 123.883  0.00  0.00    +0.000 A 
ATOM     39  C   LIG A   1      -4.886  -2.858 123.080  0.00  0.00    +0.000 A 
ATOM     40  C   LIG A   1      -5.910  -1.982 122.723  0.00  0.00    +0.000 A 
ATOM     41  C   LIG A   1      -7.213  -2.211 123.170  0.00  0.00    +0.003 A 
ENDBRANCH  35  36
ENDBRANCH  34  35
ENDBRANCH  32  34
ENDBRANCH  31  32
ENDBRANCH   9  31
TORSDOF 6
ENDMDL
MODEL 8
REMARK VINA RESULT:      -9.9      2.883      4.875
REMARK  Name = NuBBE_606
REMARK  13 active torsions:
REMARK  status: ('A' for Active; 'I' for Inactive)
REMARK    1  A    between atoms: C_1  and  C_2
REMARK    2  A    between atoms: C_3  and  C_47
REMARK    3  A    between atoms: C_8  and  C_9
REMARK    4  A    between atoms: C_8  and  C_46
REMARK    5  A    between atoms: C_10  and  O_35
REMARK    6  A    between atoms: C_14  and  C_34
REMARK    7  A    between atoms: C_23  and  C_24
REMARK    8  A    between atoms: C_29  and  C_31
REMARK    9  A    between atoms: C_31  and  C_32
REMARK   10  A    between atoms: O_35  and  C_36
REMARK   11  A    between atoms: C_36  and  C_37
REMARK   12  A    between atoms: C_37  and  C_38
REMARK   13  A    between atoms: C_38  and  C_39
REMARK                            x       y       z     vdW  Elec       q    Type
REMARK                         _______ _______ _______ _____ _____    ______ ____
ROOT
ATOM      1  C   LIG A   1      -6.452   4.990 130.397  0.00  0.00    +0.012 C 
ATOM      2  C   LIG A   1      -6.448   3.701 131.273  0.00  0.00    -0.023 C 
ATOM      3  C   LIG A   1      -6.939   2.401 130.391  0.00  0.00    -0.023 C 
ATOM      4  C   LIG A   1      -8.310   2.642 129.696  0.00  0.00    +0.008 C 
ATOM      5  C   LIG A   1      -8.726   1.521 128.723  0.00  0.00    +0.005 C 
ATOM      6  C   LIG A   1      -7.666   1.328 127.625  0.00  0.00    +0.004 C 
ATOM      7  C   LIG A   1      -8.109   0.469 126.377  0.00  0.00    +0.005 C 
ATOM      8  C   LIG A   1      -8.261  -1.044 126.648  0.00  0.00    +0.015 C 
ATOM      9  C   LIG A   1      -7.042   0.733 125.255  0.00  0.00    +0.182 C 
ATOM     10  C   LIG A   1      -5.636   0.327 125.727  0.00  0.00    +0.046 C 
ATOM     11  C   LIG A   1      -5.212   1.046 127.017  0.00  0.00    +0.011 C 
ATOM     12  C   LIG A   1      -6.241   0.980 128.198  0.00  0.00    -0.025 C 
ATOM     13  C   LIG A   1      -5.864   2.109 129.258  0.00  0.00    +0.002 C 
ATOM     14  C   LIG A   1      -4.432   1.969 129.822  0.00  0.00    +0.005 C 
ATOM     15  C   LIG A   1      -4.000   3.161 130.675  0.00  0.00    +0.005 C 
ATOM     16  C   LIG A   1      -4.998   3.384 131.809  0.00  0.00    -0.000 C 
ATOM     17  C   LIG A   1      -4.435   4.201 132.997  0.00  0.00    +0.006 C 
ATOM     18  C   LIG A   1      -5.484   4.320 134.122  0.00  0.00    -0.028 C 
ATOM     19  C   LIG A   1      -5.725   2.974 134.838  0.00  0.00    +0.011 C 
ATOM     20  C   LIG A   1      -6.808   4.885 133.572  0.00  0.00    +0.007 C 
ATOM     21  C   LIG A   1      -7.413   4.009 132.465  0.00  0.00    +0.008 C 
ATOM     22  C   LIG A   1      -4.807   5.298 135.091  0.00  0.00    +0.007 C 
ATOM     23  C   LIG A   1      -3.980   6.257 134.233  0.00  0.00    +0.009 C 
ATOM     24  C   LIG A   1      -3.895   5.648 132.810  0.00  0.00    +0.018 C 
ATOM     25  C   LIG A   1      -6.151  -0.438 128.810  0.00  0.00    +0.012 C 
ATOM     26  C   LIG A   1      -9.515   0.903 125.891  0.00  0.00    +0.015 C 
ATOM     27  C   LIG A   1      -7.148   1.169 131.324  0.00  0.00    +0.012 C 
ENDROOT
BRANCH  24  28
ATOM     28  C   LIG A   1      -2.503   5.840 132.216  0.00  0.00    -0.076 C 
ATOM     29  C   LIG A   1      -2.335   6.979 131.239  0.00  0.00    +0.038 C 
ATOM     30  C   LIG A   1      -1.437   5.085 132.531  0.00  0.00    +0.007 C 
ENDBRANCH  24  28
BRANCH   9  31
ATOM     31  O   LIG A   1      -6.943   2.161 124.994  0.00  0.00    -0.461 OA
BRANCH  31  32
ATOM     32  C   LIG A   1      -6.463   2.584 123.793  0.00  0.00    +0.308 C 
ATOM     33  O   LIG A   1      -6.732   2.108 122.711  0.00  0.00    -0.251 OA
BRANCH  32  34
ATOM     34  C   LIG A   1      -5.633   3.825 124.004  0.00  0.00    +0.125 C 
BRANCH  34  35
ATOM     35  C   LIG A   1      -5.940   4.464 125.344  0.00  0.00    +0.046 C 
BRANCH  35  36
ATOM     36  C   LIG A   1      -4.710   4.498 126.215  0.00  0.00    -0.047 A 
ATOM     37  C   LIG A   1      -4.624   5.398 127.287  0.00  0.00    +0.003 A 
ATOM     38  C   LIG A   1      -3.471   5.456 128.071  0.00  0.00    +0.000 A 
ATOM     39  C   LIG A   1      -2.393   4.620 127.789  0.00  0.00    +0.000 A 
ATOM     40  C   LIG A   1      -2.465   3.725 126.723  0.00  0.00    +0.000 A 
ATOM     41  C   LIG A   1      -3.617   3.664 125.938  0.00  0.00    +0.003 A 
ENDBRANCH  35  36
ENDBRANCH  34  35
ENDBRANCH  32  34
ENDBRANCH  31  32
ENDBRANCH   9  31
TORSDOF 6
ENDMDL
MODEL 9
REMARK VINA RESULT:      -9.8      4.256      8.881
REMARK  Name = NuBBE_606
REMARK  13 active torsions:
REMARK  status: ('A' for Active; 'I' for Inactive)
REMARK    1  A    between atoms: C_1  and  C_2
REMARK    2  A    between atoms: C_3  and  C_47
REMARK    3  A    between atoms: C_8  and  C_9
REMARK    4  A    between atoms: C_8  and  C_46
REMARK    5  A    between atoms: C_10  and  O_35
REMARK    6  A    between atoms: C_14  and  C_34
REMARK    7  A    between atoms: C_23  and  C_24
REMARK    8  A    between atoms: C_29  and  C_31
REMARK    9  A    between atoms: C_31  and  C_32
REMARK   10  A    between atoms: O_35  and  C_36
REMARK   11  A    between atoms: C_36  and  C_37
REMARK   12  A    between atoms: C_37  and  C_38
REMARK   13  A    between atoms: C_38  and  C_39
REMARK                            x       y       z     vdW  Elec       q    Type
REMARK                         _______ _______ _______ _____ _____    ______ ____
ROOT
ATOM      1  C   LIG A   1      -8.028   0.749 130.132  0.00  0.00    +0.012 C 
ATOM      2  C   LIG A   1      -7.098   0.794 128.882  0.00  0.00    -0.023 C 
ATOM      3  C   LIG A   1      -6.182   2.162 128.894  0.00  0.00    -0.023 C 
ATOM      4  C   LIG A   1      -7.042   3.449 129.041  0.00  0.00    +0.008 C 
ATOM      5  C   LIG A   1      -6.218   4.738 129.230  0.00  0.00    +0.005 C 
ATOM      6  C   LIG A   1      -5.311   4.630 130.468  0.00  0.00    +0.004 C 
ATOM      7  C   LIG A   1      -4.675   5.981 130.982  0.00  0.00    +0.005 C 
ATOM      8  C   LIG A   1      -3.562   6.561 130.082  0.00  0.00    +0.015 C 
ATOM      9  C   LIG A   1      -4.135   5.696 132.429  0.00  0.00    +0.182 C 
ATOM     10  C   LIG A   1      -3.087   4.570 132.412  0.00  0.00    +0.046 C 
ATOM     11  C   LIG A   1      -3.625   3.268 131.800  0.00  0.00    +0.011 C 
ATOM     12  C   LIG A   1      -4.315   3.412 130.400  0.00  0.00    -0.025 C 
ATOM     13  C   LIG A   1      -5.181   2.102 130.127  0.00  0.00    +0.002 C 
ATOM     14  C   LIG A   1      -4.349   0.800 130.152  0.00  0.00    +0.005 C 
ATOM     15  C   LIG A   1      -5.207  -0.464 130.098  0.00  0.00    +0.005 C 
ATOM     16  C   LIG A   1      -6.108  -0.435 128.867  0.00  0.00    -0.000 C 
ATOM     17  C   LIG A   1      -6.634  -1.824 128.432  0.00  0.00    +0.006 C 
ATOM     18  C   LIG A   1      -7.478  -1.710 127.146  0.00  0.00    -0.028 C 
ATOM     19  C   LIG A   1      -6.615  -1.372 125.911  0.00  0.00    +0.011 C 
ATOM     20  C   LIG A   1      -8.598  -0.666 127.323  0.00  0.00    +0.007 C 
ATOM     21  C   LIG A   1      -8.060   0.735 127.650  0.00  0.00    +0.008 C 
ATOM     22  C   LIG A   1      -8.040  -3.130 127.002  0.00  0.00    +0.007 C 
ATOM     23  C   LIG A   1      -8.240  -3.663 128.422  0.00  0.00    +0.009 C 
ATOM     24  C   LIG A   1      -7.490  -2.708 129.385  0.00  0.00    +0.018 C 
ATOM     25  C   LIG A   1      -3.193   3.591 129.349  0.00  0.00    +0.012 C 
ATOM     26  C   LIG A   1      -5.744   7.103 131.021  0.00  0.00    +0.015 C 
ATOM     27  C   LIG A   1      -5.425   2.310 127.539  0.00  0.00    +0.012 C 
ENDROOT
BRANCH  24  28
ATOM     28  C   LIG A   1      -6.785  -3.489 130.490  0.00  0.00    -0.076 C 
ATOM     29  C   LIG A   1      -7.128  -3.109 131.910  0.00  0.00    +0.038 C 
ATOM     30  C   LIG A   1      -5.919  -4.492 130.271  0.00  0.00    +0.007 C 
ENDBRANCH  24  28
BRANCH   9  31
ATOM     31  O   LIG A   1      -5.210   5.185 133.266  0.00  0.00    -0.461 OA
BRANCH  31  32
ATOM     32  C   LIG A   1      -5.330   5.638 134.543  0.00  0.00    +0.308 C 
ATOM     33  O   LIG A   1      -4.674   6.523 135.048  0.00  0.00    -0.251 OA
BRANCH  32  34
ATOM     34  C   LIG A   1      -6.497   4.948 135.202  0.00  0.00    +0.125 C 
BRANCH  34  35
ATOM     35  C   LIG A   1      -7.802   5.642 134.864  0.00  0.00    +0.046 C 
BRANCH  35  36
ATOM     36  C   LIG A   1      -8.500   4.944 133.724  0.00  0.00    -0.047 A 
ATOM     37  C   LIG A   1      -8.793   3.575 133.804  0.00  0.00    +0.003 A 
ATOM     38  C   LIG A   1      -9.405   2.921 132.734  0.00  0.00    +0.000 A 
ATOM     39  C   LIG A   1      -9.725   3.624 131.576  0.00  0.00    +0.000 A 
ATOM     40  C   LIG A   1      -9.434   4.984 131.483  0.00  0.00    +0.000 A 
ATOM     41  C   LIG A   1      -8.822   5.642 132.552  0.00  0.00    +0.003 A 
ENDBRANCH  35  36
ENDBRANCH  34  35
ENDBRANCH  32  34
ENDBRANCH  31  32
ENDBRANCH   9  31
TORSDOF 6
ENDMDL
