MODEL 1
REMARK VINA RESULT:      -9.3      0.000      0.000
REMARK  Name = NuBBE_1652
REMARK  11 active torsions:
REMARK  status: ('A' for Active; 'I' for Inactive)
REMARK    1  A    between atoms: C_1  and  C_2
REMARK    2  A    between atoms: C_3  and  C_4
REMARK    3  A    between atoms: C_7  and  C_11
REMARK    4  A    between atoms: C_11  and  C_13
REMARK    5  A    between atoms: C_13  and  C_14
REMARK    6  A    between atoms: C_14  and  C_15
REMARK    7  A    between atoms: C_16  and  C_17
REMARK    8  A    between atoms: C_16  and  C_19
REMARK    9  A    between atoms: C_24  and  C_25
REMARK   10  A    between atoms: C_30  and  C_31
REMARK   11  A    between atoms: C_30  and  C_32
REMARK                            x       y       z     vdW  Elec       q    Type
REMARK                         _______ _______ _______ _____ _____    ______ ____
ROOT
ATOM      1  C   LIG A   1      -6.537   1.515 131.447  0.00  0.00    +0.012 C 
ATOM      2  C   LIG A   1      -8.001   1.291 130.970  0.00  0.00    -0.023 C 
ATOM      3  C   LIG A   1      -8.989   2.423 131.568  0.00  0.00    -0.023 C 
ATOM      4  C   LIG A   1     -10.476   1.944 131.582  0.00  0.00    +0.012 C 
ATOM      5  C   LIG A   1      -8.990   3.781 130.771  0.00  0.00    +0.003 C 
ATOM      6  C   LIG A   1      -8.857   4.917 131.839  0.00  0.00    +0.018 C 
ATOM      7  C   LIG A   1      -9.228   4.257 133.165  0.00  0.00    +0.009 C 
ATOM      8  C   LIG A   1      -8.647   2.857 133.020  0.00  0.00    +0.008 C 
ATOM      9  C   LIG A   1      -7.914   3.874 129.688  0.00  0.00    +0.005 C 
ATOM     10  C   LIG A   1      -7.901   2.673 128.745  0.00  0.00    +0.005 C 
ATOM     11  C   LIG A   1      -8.138   1.289 129.402  0.00  0.00    +0.002 C 
ATOM     12  C   LIG A   1      -7.440   0.082 128.625  0.00  0.00    -0.025 C 
ATOM     13  C   LIG A   1      -5.897   0.236 128.607  0.00  0.00    +0.012 C 
ATOM     14  C   LIG A   1      -7.924  -1.268 129.273  0.00  0.00    +0.008 C 
ATOM     15  C   LIG A   1      -7.671  -1.286 130.794  0.00  0.00    +0.005 C 
ATOM     16  C   LIG A   1      -8.395  -0.125 131.488  0.00  0.00    +0.008 C 
ATOM     17  C   LIG A   1      -7.499  -2.583 128.527  0.00  0.00    +0.027 C 
ATOM     18  C   LIG A   1      -6.010  -2.946 128.634  0.00  0.00    +0.019 C 
ATOM     19  C   LIG A   1      -8.302  -3.784 129.088  0.00  0.00    +0.019 C 
ATOM     20  C   LIG A   1      -7.851  -2.446 127.035  0.00  0.00    +0.139 C 
ATOM     21  O   LIG A   1      -8.259  -3.400 126.368  0.00  0.00    -0.297 OA
ATOM     22  C   LIG A   1      -7.526  -1.143 126.343  0.00  0.00    +0.075 C 
ATOM     23  C   LIG A   1      -7.953   0.076 127.154  0.00  0.00    +0.015 C 
ENDROOT
BRANCH   6  24
ATOM     24  C   LIG A   1      -9.593   6.219 131.530  0.00  0.00    -0.073 C 
ATOM     25  C   LIG A   1      -8.976   7.134 130.758  0.00  0.00    +0.008 C 
BRANCH  24  26
ATOM     26  C   LIG A   1     -11.029   6.444 132.012  0.00  0.00    +0.034 C 
BRANCH  26  27
ATOM     27  C   LIG A   1     -12.122   6.490 130.916  0.00  0.00    +0.032 C 
BRANCH  27  28
ATOM     28  C   LIG A   1     -12.716   7.869 130.689  0.00  0.00    -0.020 C 
ATOM     29  C   LIG A   1     -12.475   8.722 129.664  0.00  0.00    -0.015 C 
ATOM     30  C   LIG A   1     -11.517   8.523 128.532  0.00  0.00    +0.046 C 
BRANCH  29  31
ATOM     31  C   LIG A   1     -13.236  10.006 129.625  0.00  0.00    +0.254 C 
ATOM     32  O   LIG A   1     -13.277  10.796 130.572  0.00  0.00    -0.296 OA
ENDBRANCH  29  31
ENDBRANCH  27  28
ENDBRANCH  26  27
ENDBRANCH  24  26
ENDBRANCH   6  24
TORSDOF 5
ENDMDL
MODEL 2
REMARK VINA RESULT:      -9.3      1.620      2.658
REMARK  Name = NuBBE_1652
REMARK  11 active torsions:
REMARK  status: ('A' for Active; 'I' for Inactive)
REMARK    1  A    between atoms: C_1  and  C_2
REMARK    2  A    between atoms: C_3  and  C_4
REMARK    3  A    between atoms: C_7  and  C_11
REMARK    4  A    between atoms: C_11  and  C_13
REMARK    5  A    between atoms: C_13  and  C_14
REMARK    6  A    between atoms: C_14  and  C_15
REMARK    7  A    between atoms: C_16  and  C_17
REMARK    8  A    between atoms: C_16  and  C_19
REMARK    9  A    between atoms: C_24  and  C_25
REMARK   10  A    between atoms: C_30  and  C_31
REMARK   11  A    between atoms: C_30  and  C_32
REMARK                            x       y       z     vdW  Elec       q    Type
REMARK                         _______ _______ _______ _____ _____    ______ ____
ROOT
ATOM      1  C   LIG A   1      -5.709   0.456 129.826  0.00  0.00    +0.012 C 
ATOM      2  C   LIG A   1      -7.246   0.247 129.944  0.00  0.00    -0.023 C 
ATOM      3  C   LIG A   1      -7.827   0.934 131.288  0.00  0.00    -0.023 C 
ATOM      4  C   LIG A   1      -9.189   0.303 131.719  0.00  0.00    +0.012 C 
ATOM      5  C   LIG A   1      -8.095   2.482 131.170  0.00  0.00    +0.003 C 
ATOM      6  C   LIG A   1      -7.463   3.135 132.443  0.00  0.00    +0.018 C 
ATOM      7  C   LIG A   1      -7.270   1.981 133.425  0.00  0.00    +0.009 C 
ATOM      8  C   LIG A   1      -6.878   0.826 132.514  0.00  0.00    +0.008 C 
ATOM      9  C   LIG A   1      -7.579   3.112 129.876  0.00  0.00    +0.005 C 
ATOM     10  C   LIG A   1      -8.029   2.370 128.621  0.00  0.00    +0.005 C 
ATOM     11  C   LIG A   1      -8.036   0.822 128.711  0.00  0.00    +0.002 C 
ATOM     12  C   LIG A   1      -7.798   0.097 127.308  0.00  0.00    -0.025 C 
ATOM     13  C   LIG A   1      -6.403   0.439 126.723  0.00  0.00    +0.012 C 
ATOM     14  C   LIG A   1      -8.030  -1.447 127.505  0.00  0.00    +0.008 C 
ATOM     15  C   LIG A   1      -7.156  -2.008 128.645  0.00  0.00    +0.005 C 
ATOM     16  C   LIG A   1      -7.455  -1.297 129.972  0.00  0.00    +0.008 C 
ATOM     17  C   LIG A   1      -8.031  -2.317 126.198  0.00  0.00    +0.027 C 
ATOM     18  C   LIG A   1      -6.658  -2.504 125.533  0.00  0.00    +0.019 C 
ATOM     19  C   LIG A   1      -8.580  -3.732 126.513  0.00  0.00    +0.019 C 
ATOM     20  C   LIG A   1      -8.975  -1.671 125.169  0.00  0.00    +0.139 C 
ATOM     21  O   LIG A   1      -9.677  -2.344 124.410  0.00  0.00    -0.297 OA
ATOM     22  C   LIG A   1      -8.908  -0.173 124.983  0.00  0.00    +0.075 C 
ATOM     23  C   LIG A   1      -8.887   0.584 126.306  0.00  0.00    +0.015 C 
ENDROOT
BRANCH   6  24
ATOM     24  C   LIG A   1      -8.193   4.354 133.005  0.00  0.00    -0.073 C 
ATOM     25  C   LIG A   1      -9.168   4.153 133.912  0.00  0.00    +0.008 C 
BRANCH  24  26
ATOM     26  C   LIG A   1      -7.770   5.774 132.615  0.00  0.00    +0.034 C 
BRANCH  26  27
ATOM     27  C   LIG A   1      -8.157   6.236 131.189  0.00  0.00    +0.032 C 
BRANCH  27  28
ATOM     28  C   LIG A   1      -9.559   6.807 131.080  0.00  0.00    -0.020 C 
ATOM     29  C   LIG A   1     -10.707   6.146 130.794  0.00  0.00    -0.015 C 
ATOM     30  C   LIG A   1     -10.855   4.694 130.464  0.00  0.00    +0.046 C 
BRANCH  29  31
ATOM     31  C   LIG A   1     -11.985   6.920 130.807  0.00  0.00    +0.254 C 
ATOM     32  O   LIG A   1     -12.774   6.907 131.756  0.00  0.00    -0.296 OA
ENDBRANCH  29  31
ENDBRANCH  27  28
ENDBRANCH  26  27
ENDBRANCH  24  26
ENDBRANCH   6  24
TORSDOF 5
ENDMDL
MODEL 3
REMARK VINA RESULT:      -8.7      2.183      3.586
REMARK  Name = NuBBE_1652
REMARK  11 active torsions:
REMARK  status: ('A' for Active; 'I' for Inactive)
REMARK    1  A    between atoms: C_1  and  C_2
REMARK    2  A    between atoms: C_3  and  C_4
REMARK    3  A    between atoms: C_7  and  C_11
REMARK    4  A    between atoms: C_11  and  C_13
REMARK    5  A    between atoms: C_13  and  C_14
REMARK    6  A    between atoms: C_14  and  C_15
REMARK    7  A    between atoms: C_16  and  C_17
REMARK    8  A    between atoms: C_16  and  C_19
REMARK    9  A    between atoms: C_24  and  C_25
REMARK   10  A    between atoms: C_30  and  C_31
REMARK   11  A    between atoms: C_30  and  C_32
REMARK                            x       y       z     vdW  Elec       q    Type
REMARK                         _______ _______ _______ _____ _____    ______ ____
ROOT
ATOM      1  C   LIG A   1      -5.417   0.588 128.447  0.00  0.00    +0.012 C 
ATOM      2  C   LIG A   1      -6.841   0.047 128.758  0.00  0.00    -0.023 C 
ATOM      3  C   LIG A   1      -7.293   0.423 130.265  0.00  0.00    -0.023 C 
ATOM      4  C   LIG A   1      -8.414  -0.530 130.789  0.00  0.00    +0.012 C 
ATOM      5  C   LIG A   1      -7.865   1.881 130.433  0.00  0.00    +0.003 C 
ATOM      6  C   LIG A   1      -7.150   2.490 131.684  0.00  0.00    +0.018 C 
ATOM      7  C   LIG A   1      -6.572   1.291 132.432  0.00  0.00    +0.009 C 
ATOM      8  C   LIG A   1      -6.139   0.367 131.303  0.00  0.00    +0.008 C 
ATOM      9  C   LIG A   1      -7.714   2.761 129.192  0.00  0.00    +0.005 C 
ATOM     10  C   LIG A   1      -8.232   2.102 127.917  0.00  0.00    +0.005 C 
ATOM     11  C   LIG A   1      -7.932   0.589 127.762  0.00  0.00    +0.002 C 
ATOM     12  C   LIG A   1      -7.814   0.111 126.243  0.00  0.00    -0.025 C 
ATOM     13  C   LIG A   1      -6.636   0.810 125.518  0.00  0.00    +0.012 C 
ATOM     14  C   LIG A   1      -7.714  -1.460 126.227  0.00  0.00    +0.008 C 
ATOM     15  C   LIG A   1      -6.561  -1.960 127.121  0.00  0.00    +0.005 C 
ATOM     16  C   LIG A   1      -6.748  -1.499 128.573  0.00  0.00    +0.008 C 
ATOM     17  C   LIG A   1      -7.783  -2.141 124.814  0.00  0.00    +0.027 C 
ATOM     18  C   LIG A   1      -6.540  -1.949 123.931  0.00  0.00    +0.019 C 
ATOM     19  C   LIG A   1      -7.992  -3.668 124.981  0.00  0.00    +0.019 C 
ATOM     20  C   LIG A   1      -9.000  -1.587 124.052  0.00  0.00    +0.139 C 
ATOM     21  O   LIG A   1      -9.686  -2.293 123.310  0.00  0.00    -0.297 OA
ATOM     22  C   LIG A   1      -9.250  -0.097 124.096  0.00  0.00    +0.075 C 
ATOM     23  C   LIG A   1      -9.137   0.477 125.503  0.00  0.00    +0.015 C 
ENDROOT
BRANCH   6  24
ATOM     24  C   LIG A   1      -7.984   3.448 132.534  0.00  0.00    -0.073 C 
ATOM     25  C   LIG A   1      -9.042   2.951 133.204  0.00  0.00    +0.008 C 
BRANCH  24  26
ATOM     26  C   LIG A   1      -7.581   4.917 132.689  0.00  0.00    +0.034 C 
BRANCH  26  27
ATOM     27  C   LIG A   1      -8.731   5.953 132.646  0.00  0.00    +0.032 C 
BRANCH  27  28
ATOM     28  C   LIG A   1      -9.057   6.461 131.253  0.00  0.00    -0.020 C 
ATOM     29  C   LIG A   1      -9.905   5.918 130.346  0.00  0.00    -0.015 C 
ATOM     30  C   LIG A   1     -10.686   4.649 130.487  0.00  0.00    +0.046 C 
BRANCH  29  31
ATOM     31  C   LIG A   1     -10.111   6.642 129.056  0.00  0.00    +0.254 C 
ATOM     32  O   LIG A   1      -9.744   6.198 127.965  0.00  0.00    -0.296 OA
ENDBRANCH  29  31
ENDBRANCH  27  28
ENDBRANCH  26  27
ENDBRANCH  24  26
ENDBRANCH   6  24
TORSDOF 5
ENDMDL
MODEL 4
REMARK VINA RESULT:      -8.7      3.591      6.261
REMARK  Name = NuBBE_1652
REMARK  11 active torsions:
REMARK  status: ('A' for Active; 'I' for Inactive)
REMARK    1  A    between atoms: C_1  and  C_2
REMARK    2  A    between atoms: C_3  and  C_4
REMARK    3  A    between atoms: C_7  and  C_11
REMARK    4  A    between atoms: C_11  and  C_13
REMARK    5  A    between atoms: C_13  and  C_14
REMARK    6  A    between atoms: C_14  and  C_15
REMARK    7  A    between atoms: C_16  and  C_17
REMARK    8  A    between atoms: C_16  and  C_19
REMARK    9  A    between atoms: C_24  and  C_25
REMARK   10  A    between atoms: C_30  and  C_31
REMARK   11  A    between atoms: C_30  and  C_32
REMARK                            x       y       z     vdW  Elec       q    Type
REMARK                         _______ _______ _______ _____ _____    ______ ____
ROOT
ATOM      1  C   LIG A   1      -5.428  -2.222 127.348  0.00  0.00    +0.012 C 
ATOM      2  C   LIG A   1      -6.953  -2.274 127.650  0.00  0.00    -0.023 C 
ATOM      3  C   LIG A   1      -7.229  -2.552 129.219  0.00  0.00    -0.023 C 
ATOM      4  C   LIG A   1      -8.653  -3.145 129.461  0.00  0.00    +0.012 C 
ATOM      5  C   LIG A   1      -7.142  -1.274 130.136  0.00  0.00    +0.003 C 
ATOM      6  C   LIG A   1      -6.257  -1.674 131.363  0.00  0.00    +0.018 C 
ATOM      7  C   LIG A   1      -6.244  -3.200 131.360  0.00  0.00    +0.009 C 
ATOM      8  C   LIG A   1      -6.219  -3.534 129.875  0.00  0.00    +0.008 C 
ATOM      9  C   LIG A   1      -6.619  -0.025 129.425  0.00  0.00    +0.005 C 
ATOM     10  C   LIG A   1      -7.346   0.274 128.117  0.00  0.00    +0.005 C 
ATOM     11  C   LIG A   1      -7.702  -0.953 127.239  0.00  0.00    +0.002 C 
ATOM     12  C   LIG A   1      -7.772  -0.627 125.678  0.00  0.00    -0.025 C 
ATOM     13  C   LIG A   1      -6.399  -0.156 125.135  0.00  0.00    +0.012 C 
ATOM     14  C   LIG A   1      -8.336  -1.894 124.934  0.00  0.00    +0.008 C 
ATOM     15  C   LIG A   1      -7.511  -3.154 125.263  0.00  0.00    +0.005 C 
ATOM     16  C   LIG A   1      -7.511  -3.435 126.772  0.00  0.00    +0.008 C 
ATOM     17  C   LIG A   1      -8.662  -1.710 123.409  0.00  0.00    +0.027 C 
ATOM     18  C   LIG A   1      -7.440  -1.585 122.487  0.00  0.00    +0.019 C 
ATOM     19  C   LIG A   1      -9.492  -2.918 122.904  0.00  0.00    +0.019 C 
ATOM     20  C   LIG A   1      -9.525  -0.448 123.232  0.00  0.00    +0.139 C 
ATOM     21  O   LIG A   1     -10.432  -0.385 122.399  0.00  0.00    -0.297 OA
ATOM     22  C   LIG A   1      -9.130   0.797 123.993  0.00  0.00    +0.075 C 
ATOM     23  C   LIG A   1      -8.810   0.515 125.455  0.00  0.00    +0.015 C 
ENDROOT
BRANCH   6  24
ATOM     24  C   LIG A   1      -6.628  -1.028 132.697  0.00  0.00    -0.073 C 
ATOM     25  C   LIG A   1      -7.484  -1.680 133.507  0.00  0.00    +0.008 C 
BRANCH  24  26
ATOM     26  C   LIG A   1      -5.979   0.286 133.143  0.00  0.00    +0.034 C 
BRANCH  26  27
ATOM     27  C   LIG A   1      -6.941   1.466 133.423  0.00  0.00    +0.032 C 
BRANCH  27  28
ATOM     28  C   LIG A   1      -7.375   2.222 132.180  0.00  0.00    -0.020 C 
ATOM     29  C   LIG A   1      -8.563   2.148 131.532  0.00  0.00    -0.015 C 
ATOM     30  C   LIG A   1      -9.717   1.255 131.864  0.00  0.00    +0.046 C 
BRANCH  29  31
ATOM     31  C   LIG A   1      -8.780   3.046 130.359  0.00  0.00    +0.254 C 
ATOM     32  O   LIG A   1      -9.816   3.046 129.690  0.00  0.00    -0.296 OA
ENDBRANCH  29  31
ENDBRANCH  27  28
ENDBRANCH  26  27
ENDBRANCH  24  26
ENDBRANCH   6  24
TORSDOF 5
ENDMDL
MODEL 5
REMARK VINA RESULT:      -8.5      2.878      5.389
REMARK  Name = NuBBE_1652
REMARK  11 active torsions:
REMARK  status: ('A' for Active; 'I' for Inactive)
REMARK    1  A    between atoms: C_1  and  C_2
REMARK    2  A    between atoms: C_3  and  C_4
REMARK    3  A    between atoms: C_7  and  C_11
REMARK    4  A    between atoms: C_11  and  C_13
REMARK    5  A    between atoms: C_13  and  C_14
REMARK    6  A    between atoms: C_14  and  C_15
REMARK    7  A    between atoms: C_16  and  C_17
REMARK    8  A    between atoms: C_16  and  C_19
REMARK    9  A    between atoms: C_24  and  C_25
REMARK   10  A    between atoms: C_30  and  C_31
REMARK   11  A    between atoms: C_30  and  C_32
REMARK                            x       y       z     vdW  Elec       q    Type
REMARK                         _______ _______ _______ _____ _____    ______ ____
ROOT
ATOM      1  C   LIG A   1      -7.759   3.396 125.585  0.00  0.00    +0.012 C 
ATOM      2  C   LIG A   1      -6.603   2.397 125.877  0.00  0.00    -0.023 C 
ATOM      3  C   LIG A   1      -5.412   3.109 126.708  0.00  0.00    -0.023 C 
ATOM      4  C   LIG A   1      -4.057   2.350 126.542  0.00  0.00    +0.012 C 
ATOM      5  C   LIG A   1      -5.659   3.200 128.261  0.00  0.00    +0.003 C 
ATOM      6  C   LIG A   1      -5.322   4.670 128.674  0.00  0.00    +0.018 C 
ATOM      7  C   LIG A   1      -4.498   5.226 127.515  0.00  0.00    +0.009 C 
ATOM      8  C   LIG A   1      -5.151   4.584 126.299  0.00  0.00    +0.008 C 
ATOM      9  C   LIG A   1      -7.064   2.781 128.698  0.00  0.00    +0.005 C 
ATOM     10  C   LIG A   1      -7.491   1.425 128.143  0.00  0.00    +0.005 C 
ATOM     11  C   LIG A   1      -7.080   1.129 126.678  0.00  0.00    +0.002 C 
ATOM     12  C   LIG A   1      -8.075   0.138 125.920  0.00  0.00    -0.025 C 
ATOM     13  C   LIG A   1      -9.498   0.742 125.802  0.00  0.00    +0.012 C 
ATOM     14  C   LIG A   1      -7.438  -0.234 124.530  0.00  0.00    +0.008 C 
ATOM     15  C   LIG A   1      -7.088   1.028 123.715  0.00  0.00    +0.005 C 
ATOM     16  C   LIG A   1      -6.102   1.922 124.479  0.00  0.00    +0.008 C 
ATOM     17  C   LIG A   1      -8.174  -1.353 123.710  0.00  0.00    +0.027 C 
ATOM     18  C   LIG A   1      -9.522  -0.940 123.099  0.00  0.00    +0.019 C 
ATOM     19  C   LIG A   1      -7.270  -1.825 122.543  0.00  0.00    +0.019 C 
ATOM     20  C   LIG A   1      -8.418  -2.564 124.628  0.00  0.00    +0.139 C 
ATOM     21  O   LIG A   1      -8.340  -3.724 124.216  0.00  0.00    -0.297 OA
ATOM     22  C   LIG A   1      -8.927  -2.307 126.027  0.00  0.00    +0.075 C 
ATOM     23  C   LIG A   1      -8.168  -1.189 126.733  0.00  0.00    +0.015 C 
ENDROOT
BRANCH   6  24
ATOM     24  C   LIG A   1      -4.705   4.854 130.059  0.00  0.00    -0.073 C 
ATOM     25  C   LIG A   1      -4.149   3.783 130.658  0.00  0.00    +0.008 C 
BRANCH  24  26
ATOM     26  C   LIG A   1      -4.642   6.236 130.716  0.00  0.00    +0.034 C 
BRANCH  26  27
ATOM     27  C   LIG A   1      -5.775   6.573 131.716  0.00  0.00    +0.032 C 
BRANCH  27  28
ATOM     28  C   LIG A   1      -7.077   6.995 131.059  0.00  0.00    -0.020 C 
ATOM     29  C   LIG A   1      -8.236   6.295 130.981  0.00  0.00    -0.015 C 
ATOM     30  C   LIG A   1      -8.489   4.909 131.483  0.00  0.00    +0.046 C 
BRANCH  29  31
ATOM     31  C   LIG A   1      -9.410   6.954 130.334  0.00  0.00    +0.254 C 
ATOM     32  O   LIG A   1      -9.309   7.906 129.557  0.00  0.00    -0.296 OA
ENDBRANCH  29  31
ENDBRANCH  27  28
ENDBRANCH  26  27
ENDBRANCH  24  26
ENDBRANCH   6  24
TORSDOF 5
ENDMDL
MODEL 6
REMARK VINA RESULT:      -8.5      3.459      4.384
REMARK  Name = NuBBE_1652
REMARK  11 active torsions:
REMARK  status: ('A' for Active; 'I' for Inactive)
REMARK    1  A    between atoms: C_1  and  C_2
REMARK    2  A    between atoms: C_3  and  C_4
REMARK    3  A    between atoms: C_7  and  C_11
REMARK    4  A    between atoms: C_11  and  C_13
REMARK    5  A    between atoms: C_13  and  C_14
REMARK    6  A    between atoms: C_14  and  C_15
REMARK    7  A    between atoms: C_16  and  C_17
REMARK    8  A    between atoms: C_16  and  C_19
REMARK    9  A    between atoms: C_24  and  C_25
REMARK   10  A    between atoms: C_30  and  C_31
REMARK   11  A    between atoms: C_30  and  C_32
REMARK                            x       y       z     vdW  Elec       q    Type
REMARK                         _______ _______ _______ _____ _____    ______ ____
ROOT
ATOM      1  C   LIG A   1      -5.642   0.450 129.815  0.00  0.00    +0.012 C 
ATOM      2  C   LIG A   1      -7.175   0.230 129.956  0.00  0.00    -0.023 C 
ATOM      3  C   LIG A   1      -7.732   0.868 131.334  0.00  0.00    -0.023 C 
ATOM      4  C   LIG A   1      -9.084   0.216 131.770  0.00  0.00    +0.012 C 
ATOM      5  C   LIG A   1      -8.010   2.417 131.275  0.00  0.00    +0.003 C 
ATOM      6  C   LIG A   1      -7.355   3.030 132.557  0.00  0.00    +0.018 C 
ATOM      7  C   LIG A   1      -7.137   1.844 133.494  0.00  0.00    +0.009 C 
ATOM      8  C   LIG A   1      -6.759   0.723 132.536  0.00  0.00    +0.008 C 
ATOM      9  C   LIG A   1      -7.522   3.094 129.993  0.00  0.00    +0.005 C 
ATOM     10  C   LIG A   1      -7.994   2.393 128.722  0.00  0.00    +0.005 C 
ATOM     11  C   LIG A   1      -7.993   0.843 128.759  0.00  0.00    +0.002 C 
ATOM     12  C   LIG A   1      -7.779   0.168 127.328  0.00  0.00    -0.025 C 
ATOM     13  C   LIG A   1      -6.398   0.536 126.728  0.00  0.00    +0.012 C 
ATOM     14  C   LIG A   1      -8.001  -1.384 127.476  0.00  0.00    +0.008 C 
ATOM     15  C   LIG A   1      -7.102  -1.979 128.579  0.00  0.00    +0.005 C 
ATOM     16  C   LIG A   1      -7.378  -1.315 129.935  0.00  0.00    +0.008 C 
ATOM     17  C   LIG A   1      -8.024  -2.208 126.140  0.00  0.00    +0.027 C 
ATOM     18  C   LIG A   1      -6.664  -2.365 125.442  0.00  0.00    +0.019 C 
ATOM     19  C   LIG A   1      -8.562  -3.635 126.417  0.00  0.00    +0.019 C 
ATOM     20  C   LIG A   1      -8.992  -1.531 125.153  0.00  0.00    +0.139 C 
ATOM     21  O   LIG A   1      -9.705  -2.181 124.386  0.00  0.00    -0.297 OA
ATOM     22  C   LIG A   1      -8.935  -0.027 125.018  0.00  0.00    +0.075 C 
ATOM     23  C   LIG A   1      -8.890   0.684 126.365  0.00  0.00    +0.015 C 
ENDROOT
BRANCH   6  24
ATOM     24  C   LIG A   1      -8.078   4.225 133.175  0.00  0.00    -0.073 C 
ATOM     25  C   LIG A   1      -9.186   3.993 133.905  0.00  0.00    +0.008 C 
BRANCH  24  26
ATOM     26  C   LIG A   1      -7.513   5.642 133.041  0.00  0.00    +0.034 C 
BRANCH  26  27
ATOM     27  C   LIG A   1      -5.973   5.760 132.937  0.00  0.00    +0.032 C 
BRANCH  27  28
ATOM     28  C   LIG A   1      -5.454   5.883 131.516  0.00  0.00    -0.020 C 
ATOM     29  C   LIG A   1      -4.646   5.025 130.847  0.00  0.00    -0.015 C 
ATOM     30  C   LIG A   1      -4.027   3.770 131.375  0.00  0.00    +0.046 C 
BRANCH  29  31
ATOM     31  C   LIG A   1      -4.322   5.333 129.421  0.00  0.00    +0.254 C 
ATOM     32  O   LIG A   1      -5.182   5.483 128.550  0.00  0.00    -0.296 OA
ENDBRANCH  29  31
ENDBRANCH  27  28
ENDBRANCH  26  27
ENDBRANCH  24  26
ENDBRANCH   6  24
TORSDOF 5
ENDMDL
MODEL 7
REMARK VINA RESULT:      -8.4      6.063      8.491
REMARK  Name = NuBBE_1652
REMARK  11 active torsions:
REMARK  status: ('A' for Active; 'I' for Inactive)
REMARK    1  A    between atoms: C_1  and  C_2
REMARK    2  A    between atoms: C_3  and  C_4
REMARK    3  A    between atoms: C_7  and  C_11
REMARK    4  A    between atoms: C_11  and  C_13
REMARK    5  A    between atoms: C_13  and  C_14
REMARK    6  A    between atoms: C_14  and  C_15
REMARK    7  A    between atoms: C_16  and  C_17
REMARK    8  A    between atoms: C_16  and  C_19
REMARK    9  A    between atoms: C_24  and  C_25
REMARK   10  A    between atoms: C_30  and  C_31
REMARK   11  A    between atoms: C_30  and  C_32
REMARK                            x       y       z     vdW  Elec       q    Type
REMARK                         _______ _______ _______ _____ _____    ______ ____
ROOT
ATOM      1  C   LIG A   1      -5.975  -0.884 130.592  0.00  0.00    +0.012 C 
ATOM      2  C   LIG A   1      -6.775  -2.206 130.418  0.00  0.00    -0.023 C 
ATOM      3  C   LIG A   1      -7.416  -2.311 128.937  0.00  0.00    -0.023 C 
ATOM      4  C   LIG A   1      -8.631  -3.293 128.900  0.00  0.00    +0.012 C 
ATOM      5  C   LIG A   1      -6.422  -2.826 127.828  0.00  0.00    +0.003 C 
ATOM      6  C   LIG A   1      -6.576  -1.850 126.615  0.00  0.00    +0.018 C 
ATOM      7  C   LIG A   1      -7.898  -1.125 126.856  0.00  0.00    +0.009 C 
ATOM      8  C   LIG A   1      -7.919  -0.956 128.368  0.00  0.00    +0.008 C 
ATOM      9  C   LIG A   1      -4.971  -2.950 128.294  0.00  0.00    +0.005 C 
ATOM     10  C   LIG A   1      -4.818  -3.740 129.591  0.00  0.00    +0.005 C 
ATOM     11  C   LIG A   1      -5.899  -3.488 130.673  0.00  0.00    +0.002 C 
ATOM     12  C   LIG A   1      -5.376  -3.711 132.165  0.00  0.00    -0.025 C 
ATOM     13  C   LIG A   1      -4.240  -2.719 132.523  0.00  0.00    +0.012 C 
ATOM     14  C   LIG A   1      -6.610  -3.623 133.139  0.00  0.00    +0.008 C 
ATOM     15  C   LIG A   1      -7.384  -2.303 132.949  0.00  0.00    +0.005 C 
ATOM     16  C   LIG A   1      -7.890  -2.162 131.507  0.00  0.00    +0.008 C 
ATOM     17  C   LIG A   1      -6.336  -4.005 134.637  0.00  0.00    +0.027 C 
ATOM     18  C   LIG A   1      -5.504  -2.988 135.433  0.00  0.00    +0.019 C 
ATOM     19  C   LIG A   1      -7.682  -4.179 135.386  0.00  0.00    +0.019 C 
ATOM     20  C   LIG A   1      -5.603  -5.359 134.679  0.00  0.00    +0.139 C 
ATOM     21  O   LIG A   1      -5.822  -6.195 135.559  0.00  0.00    -0.297 OA
ATOM     22  C   LIG A   1      -4.470  -5.587 133.706  0.00  0.00    +0.075 C 
ATOM     23  C   LIG A   1      -4.821  -5.163 132.285  0.00  0.00    +0.015 C 
ENDROOT
BRANCH   6  24
ATOM     24  C   LIG A   1      -6.416  -2.471 125.229  0.00  0.00    -0.073 C 
ATOM     25  C   LIG A   1      -7.110  -3.591 124.947  0.00  0.00    +0.008 C 
BRANCH  24  26
ATOM     26  C   LIG A   1      -5.556  -1.794 124.157  0.00  0.00    +0.034 C 
BRANCH  26  27
ATOM     27  C   LIG A   1      -6.313  -1.211 122.939  0.00  0.00    +0.032 C 
BRANCH  27  28
ATOM     28  C   LIG A   1      -7.359  -0.171 123.298  0.00  0.00    -0.020 C 
ATOM     29  C   LIG A   1      -8.706  -0.320 123.324  0.00  0.00    -0.015 C 
ATOM     30  C   LIG A   1      -9.487  -1.540 122.951  0.00  0.00    +0.046 C 
BRANCH  29  31
ATOM     31  C   LIG A   1      -9.531   0.840 123.776  0.00  0.00    +0.254 C 
ATOM     32  O   LIG A   1     -10.732   0.957 123.519  0.00  0.00    -0.296 OA
ENDBRANCH  29  31
ENDBRANCH  27  28
ENDBRANCH  26  27
ENDBRANCH  24  26
ENDBRANCH   6  24
TORSDOF 5
ENDMDL
MODEL 8
REMARK VINA RESULT:      -8.3      6.020      9.121
REMARK  Name = NuBBE_1652
REMARK  11 active torsions:
REMARK  status: ('A' for Active; 'I' for Inactive)
REMARK    1  A    between atoms: C_1  and  C_2
REMARK    2  A    between atoms: C_3  and  C_4
REMARK    3  A    between atoms: C_7  and  C_11
REMARK    4  A    between atoms: C_11  and  C_13
REMARK    5  A    between atoms: C_13  and  C_14
REMARK    6  A    between atoms: C_14  and  C_15
REMARK    7  A    between atoms: C_16  and  C_17
REMARK    8  A    between atoms: C_16  and  C_19
REMARK    9  A    between atoms: C_24  and  C_25
REMARK   10  A    between atoms: C_30  and  C_31
REMARK   11  A    between atoms: C_30  and  C_32
REMARK                            x       y       z     vdW  Elec       q    Type
REMARK                         _______ _______ _______ _____ _____    ______ ____
ROOT
ATOM      1  C   LIG A   1      -4.652  -2.974 128.834  0.00  0.00    +0.012 C 
ATOM      2  C   LIG A   1      -5.498  -1.841 129.481  0.00  0.00    -0.023 C 
ATOM      3  C   LIG A   1      -6.169  -0.896 128.352  0.00  0.00    -0.023 C 
ATOM      4  C   LIG A   1      -6.539   0.511 128.920  0.00  0.00    +0.012 C 
ATOM      5  C   LIG A   1      -7.499  -1.464 127.728  0.00  0.00    +0.003 C 
ATOM      6  C   LIG A   1      -7.354  -1.316 126.177  0.00  0.00    +0.018 C 
ATOM      7  C   LIG A   1      -6.223  -0.309 125.981  0.00  0.00    +0.009 C 
ATOM      8  C   LIG A   1      -5.265  -0.653 127.113  0.00  0.00    +0.008 C 
ATOM      9  C   LIG A   1      -7.827  -2.898 128.147  0.00  0.00    +0.005 C 
ATOM     10  C   LIG A   1      -7.783  -3.111 129.657  0.00  0.00    +0.005 C 
ATOM     11  C   LIG A   1      -6.640  -2.388 130.415  0.00  0.00    +0.002 C 
ATOM     12  C   LIG A   1      -6.177  -3.138 131.746  0.00  0.00    -0.025 C 
ATOM     13  C   LIG A   1      -5.599  -4.542 131.434  0.00  0.00    +0.012 C 
ATOM     14  C   LIG A   1      -5.168  -2.204 132.513  0.00  0.00    +0.008 C 
ATOM     15  C   LIG A   1      -3.996  -1.777 131.607  0.00  0.00    +0.005 C 
ATOM     16  C   LIG A   1      -4.501  -1.032 130.365  0.00  0.00    +0.008 C 
ATOM     17  C   LIG A   1      -4.742  -2.680 133.947  0.00  0.00    +0.027 C 
ATOM     18  C   LIG A   1      -3.804  -3.897 133.984  0.00  0.00    +0.019 C 
ATOM     19  C   LIG A   1      -4.019  -1.526 134.687  0.00  0.00    +0.019 C 
ATOM     20  C   LIG A   1      -6.006  -3.028 134.753  0.00  0.00    +0.139 C 
ATOM     21  O   LIG A   1      -6.100  -2.791 135.960  0.00  0.00    -0.297 OA
ATOM     22  C   LIG A   1      -7.089  -3.831 134.070  0.00  0.00    +0.075 C 
ATOM     23  C   LIG A   1      -7.416  -3.309 132.676  0.00  0.00    +0.015 C 
ENDROOT
BRANCH   6  24
ATOM     24  C   LIG A   1      -8.639  -1.012 125.409  0.00  0.00    -0.073 C 
ATOM     25  C   LIG A   1      -9.426  -0.012 125.850  0.00  0.00    +0.008 C 
BRANCH  24  26
ATOM     26  C   LIG A   1      -8.982  -1.766 124.120  0.00  0.00    +0.034 C 
BRANCH  26  27
ATOM     27  C   LIG A   1      -8.701  -3.289 124.121  0.00  0.00    +0.032 C 
BRANCH  27  28
ATOM     28  C   LIG A   1      -7.231  -3.648 124.243  0.00  0.00    -0.020 C 
ATOM     29  C   LIG A   1      -6.184  -3.116 123.565  0.00  0.00    -0.015 C 
ATOM     30  C   LIG A   1      -6.240  -2.077 122.490  0.00  0.00    +0.046 C 
BRANCH  29  31
ATOM     31  C   LIG A   1      -4.811  -3.592 123.908  0.00  0.00    +0.254 C 
ATOM     32  O   LIG A   1      -4.352  -4.669 123.521  0.00  0.00    -0.296 OA
ENDBRANCH  29  31
ENDBRANCH  27  28
ENDBRANCH  26  27
ENDBRANCH  24  26
ENDBRANCH   6  24
TORSDOF 5
ENDMDL
MODEL 9
REMARK VINA RESULT:      -8.3      6.634      9.977
REMARK  Name = NuBBE_1652
REMARK  11 active torsions:
REMARK  status: ('A' for Active; 'I' for Inactive)
REMARK    1  A    between atoms: C_1  and  C_2
REMARK    2  A    between atoms: C_3  and  C_4
REMARK    3  A    between atoms: C_7  and  C_11
REMARK    4  A    between atoms: C_11  and  C_13
REMARK    5  A    between atoms: C_13  and  C_14
REMARK    6  A    between atoms: C_14  and  C_15
REMARK    7  A    between atoms: C_16  and  C_17
REMARK    8  A    between atoms: C_16  and  C_19
REMARK    9  A    between atoms: C_24  and  C_25
REMARK   10  A    between atoms: C_30  and  C_31
REMARK   11  A    between atoms: C_30  and  C_32
REMARK                            x       y       z     vdW  Elec       q    Type
REMARK                         _______ _______ _______ _____ _____    ______ ____
ROOT
ATOM      1  C   LIG A   1      -5.119   6.927 130.872  0.00  0.00    +0.012 C 
ATOM      2  C   LIG A   1      -4.241   5.700 131.248  0.00  0.00    -0.023 C 
ATOM      3  C   LIG A   1      -4.507   4.462 130.242  0.00  0.00    -0.023 C 
ATOM      4  C   LIG A   1      -4.095   3.098 130.882  0.00  0.00    +0.012 C 
ATOM      5  C   LIG A   1      -3.721   4.544 128.879  0.00  0.00    +0.003 C 
ATOM      6  C   LIG A   1      -4.762   4.235 127.753  0.00  0.00    +0.018 C 
ATOM      7  C   LIG A   1      -5.933   3.568 128.471  0.00  0.00    +0.009 C 
ATOM      8  C   LIG A   1      -5.987   4.317 129.795  0.00  0.00    +0.008 C 
ATOM      9  C   LIG A   1      -2.996   5.871 128.651  0.00  0.00    +0.005 C 
ATOM     10  C   LIG A   1      -2.119   6.290 129.828  0.00  0.00    +0.005 C 
ATOM     11  C   LIG A   1      -2.701   6.026 131.240  0.00  0.00    +0.002 C 
ATOM     12  C   LIG A   1      -2.182   7.049 132.350  0.00  0.00    -0.025 C 
ATOM     13  C   LIG A   1      -2.611   8.503 132.027  0.00  0.00    +0.012 C 
ATOM     14  C   LIG A   1      -2.683   6.548 133.756  0.00  0.00    +0.008 C 
ATOM     15  C   LIG A   1      -4.213   6.349 133.770  0.00  0.00    +0.005 C 
ATOM     16  C   LIG A   1      -4.646   5.331 132.707  0.00  0.00    +0.008 C 
ATOM     17  C   LIG A   1      -2.116   7.314 135.004  0.00  0.00    +0.027 C 
ATOM     18  C   LIG A   1      -2.658   8.738 135.202  0.00  0.00    +0.019 C 
ATOM     19  C   LIG A   1      -2.439   6.519 136.295  0.00  0.00    +0.019 C 
ATOM     20  C   LIG A   1      -0.584   7.399 134.882  0.00  0.00    +0.139 C 
ATOM     21  O   LIG A   1       0.157   7.310 135.864  0.00  0.00    -0.297 OA
ATOM     22  C   LIG A   1       0.005   7.766 133.540  0.00  0.00    +0.075 C 
ATOM     23  C   LIG A   1      -0.625   6.990 132.390  0.00  0.00    +0.015 C 
ENDROOT
BRANCH   6  24
ATOM     24  C   LIG A   1      -4.230   3.482 126.535  0.00  0.00    -0.073 C 
ATOM     25  C   LIG A   1      -2.967   3.016 126.574  0.00  0.00    +0.008 C 
BRANCH  24  26
ATOM     26  C   LIG A   1      -5.134   3.188 125.334  0.00  0.00    +0.034 C 
BRANCH  26  27
ATOM     27  C   LIG A   1      -5.469   4.389 124.417  0.00  0.00    +0.032 C 
BRANCH  27  28
ATOM     28  C   LIG A   1      -6.031   3.998 123.062  0.00  0.00    -0.020 C 
ATOM     29  C   LIG A   1      -5.495   4.230 121.839  0.00  0.00    -0.015 C 
ATOM     30  C   LIG A   1      -4.238   4.981 121.533  0.00  0.00    +0.046 C 
BRANCH  29  31
ATOM     31  C   LIG A   1      -6.209   3.686 120.645  0.00  0.00    +0.254 C 
ATOM     32  O   LIG A   1      -7.420   3.829 120.458  0.00  0.00    -0.296 OA
ENDBRANCH  29  31
ENDBRANCH  27  28
ENDBRANCH  26  27
ENDBRANCH  24  26
ENDBRANCH   6  24
TORSDOF 5
ENDMDL
