MODEL 1
REMARK VINA RESULT:      -7.7      0.000      0.000
REMARK  Name = NuBBE_1259
REMARK  22 active torsions:
REMARK  status: ('A' for Active; 'I' for Inactive)
REMARK    1  A    between atoms: C_3  and  C_4
REMARK    2  A    between atoms: C_4  and  C_5
REMARK    3  A    between atoms: C_4  and  C_8
REMARK    4  A    between atoms: C_5  and  C_6
REMARK    5  A    between atoms: C_6  and  C_7
REMARK    6  A    between atoms: C_8  and  C_9
REMARK    7  A    between atoms: C_9  and  O_10
REMARK    8  A    between atoms: O_10  and  C_11
REMARK    9  A    between atoms: C_15  and  C_17
REMARK   10  A    between atoms: C_18  and  C_20
REMARK   11  A    between atoms: C_24  and  O_25
REMARK   12  A    between atoms: O_25  and  C_26
REMARK   13  A    between atoms: C_27  and  C_28
REMARK   14  A    between atoms: C_27  and  C_38
REMARK   15  A    between atoms: C_28  and  C_29
REMARK   16  A    between atoms: C_30  and  C_36
REMARK   17  A    between atoms: C_30  and  C_37
REMARK   18  A    between atoms: C_31  and  C_32
REMARK   19  A    between atoms: C_32  and  C_33
REMARK   20  A    between atoms: C_38  and  C_39
REMARK   21  A    between atoms: C_40  and  C_41
REMARK   22  A    between atoms: C_40  and  C_42
REMARK                            x       y       z     vdW  Elec       q    Type
REMARK                         _______ _______ _______ _____ _____    ______ ____
ROOT
ATOM      1  O   LIG A   1      -4.763   6.325 128.811  0.00  0.00    -0.291 OA
ATOM      2  C   LIG A   1      -5.342   5.581 129.603  0.00  0.00    +0.177 C 
ATOM      3  C   LIG A   1      -5.866   4.266 129.084  0.00  0.00    +0.042 C 
ATOM      4  C   LIG A   1      -6.063   3.338 130.044  0.00  0.00    +0.141 C 
ATOM      5  O   LIG A   1      -6.705   2.141 129.754  0.00  0.00    -0.487 OA
ATOM      6  C   LIG A   1      -6.777   1.046 130.698  0.00  0.00    +0.181 C 
ATOM      7  C   LIG A   1      -8.008   0.198 130.367  0.00  0.00    +0.052 C 
ATOM      8  C   LIG A   1      -6.804   1.522 132.154  0.00  0.00    +0.098 C 
ATOM      9  C   LIG A   1      -6.862   0.444 133.220  0.00  0.00    +0.020 C 
ATOM     10  C   LIG A   1      -5.536   2.320 132.221  0.00  0.00    +0.176 C 
ATOM     11  O   LIG A   1      -4.459   1.879 132.603  0.00  0.00    -0.291 OA
ATOM     12  C   LIG A   1      -5.657   3.570 131.433  0.00  0.00    +0.098 C 
ATOM     13  C   LIG A   1      -5.547   4.801 131.983  0.00  0.00    +0.125 C 
ATOM     14  C   LIG A   1      -5.610   6.023 131.069  0.00  0.00    +0.095 C 
ENDROOT
BRANCH  13  15
ATOM     15  O   LIG A   1      -5.325   4.976 133.350  0.00  0.00    -0.497 OA
ATOM     16  C   LIG A   1      -6.449   5.180 134.217  0.00  0.00    +0.276 C 
ENDBRANCH  13  15
BRANCH   3  17
ATOM     17  C   LIG A   1      -6.178   4.262 127.568  0.00  0.00    +0.037 C 
BRANCH  17  18
ATOM     18  C   LIG A   1      -5.267   3.310 126.721  0.00  0.00    +0.009 C 
BRANCH  18  19
ATOM     19  C   LIG A   1      -3.919   3.888 126.286  0.00  0.00    -0.003 C 
ATOM     20  C   LIG A   1      -2.705   3.505 127.118  0.00  0.00    +0.004 C 
ENDBRANCH  18  19
ENDBRANCH  17  18
BRANCH  17  21
ATOM     21  C   LIG A   1      -7.634   4.021 127.116  0.00  0.00    +0.129 C 
BRANCH  21  22
ATOM     22  C   LIG A   1      -8.264   4.841 126.042  0.00  0.00    +0.307 C 
ATOM     23  O   LIG A   1      -9.073   5.795 126.193  0.00  0.00    -0.251 OA
BRANCH  22  24
ATOM     24  O   LIG A   1      -8.152   4.195 124.886  0.00  0.00    -0.468 OA
ATOM     25  C   LIG A   1      -8.594   2.844 125.023  0.00  0.00    +0.280 C 
ENDBRANCH  22  24
ENDBRANCH  21  22
ENDBRANCH  17  21
ENDBRANCH   3  17
BRANCH  14  26
ATOM     26  C   LIG A   1      -7.040   6.764 131.164  0.00  0.00    +0.027 C 
BRANCH  26  27
ATOM     27  C   LIG A   1      -8.229   6.096 130.425  0.00  0.00    -0.003 C 
ATOM     28  C   LIG A   1      -9.523   5.447 131.123  0.00  0.00    -0.025 C 
ATOM     29  C   LIG A   1     -10.242   6.832 130.943  0.00  0.00    +0.020 C 
ATOM     30  C   LIG A   1      -9.218   7.129 129.866  0.00  0.00    +0.012 C 
ATOM     31  C   LIG A   1     -10.001   4.228 130.309  0.00  0.00    +0.012 C 
ATOM     32  C   LIG A   1      -9.518   5.123 132.609  0.00  0.00    +0.012 C 
BRANCH  29  33
ATOM     33  C   LIG A   1     -11.689   6.902 130.541  0.00  0.00    -0.076 C 
ATOM     34  C   LIG A   1     -12.057   6.813 129.086  0.00  0.00    +0.038 C 
ATOM     35  C   LIG A   1     -12.642   7.154 131.451  0.00  0.00    +0.007 C 
ENDBRANCH  29  33
ENDBRANCH  26  27
ENDBRANCH  14  26
BRANCH  14  36
ATOM     36  C   LIG A   1      -4.421   7.061 131.390  0.00  0.00    +0.049 C 
BRANCH  36  37
ATOM     37  C   LIG A   1      -2.990   6.634 131.675  0.00  0.00    -0.027 C 
ATOM     38  C   LIG A   1      -2.057   7.418 132.265  0.00  0.00    -0.080 C 
ATOM     39  C   LIG A   1      -2.272   8.793 132.849  0.00  0.00    +0.038 C 
ATOM     40  C   LIG A   1      -0.615   7.002 132.356  0.00  0.00    +0.038 C 
ENDBRANCH  36  37
ENDBRANCH  14  36
TORSDOF 12
ENDMDL
MODEL 2
REMARK VINA RESULT:      -7.7      2.520      3.459
REMARK  Name = NuBBE_1259
REMARK  22 active torsions:
REMARK  status: ('A' for Active; 'I' for Inactive)
REMARK    1  A    between atoms: C_3  and  C_4
REMARK    2  A    between atoms: C_4  and  C_5
REMARK    3  A    between atoms: C_4  and  C_8
REMARK    4  A    between atoms: C_5  and  C_6
REMARK    5  A    between atoms: C_6  and  C_7
REMARK    6  A    between atoms: C_8  and  C_9
REMARK    7  A    between atoms: C_9  and  O_10
REMARK    8  A    between atoms: O_10  and  C_11
REMARK    9  A    between atoms: C_15  and  C_17
REMARK   10  A    between atoms: C_18  and  C_20
REMARK   11  A    between atoms: C_24  and  O_25
REMARK   12  A    between atoms: O_25  and  C_26
REMARK   13  A    between atoms: C_27  and  C_28
REMARK   14  A    between atoms: C_27  and  C_38
REMARK   15  A    between atoms: C_28  and  C_29
REMARK   16  A    between atoms: C_30  and  C_36
REMARK   17  A    between atoms: C_30  and  C_37
REMARK   18  A    between atoms: C_31  and  C_32
REMARK   19  A    between atoms: C_32  and  C_33
REMARK   20  A    between atoms: C_38  and  C_39
REMARK   21  A    between atoms: C_40  and  C_41
REMARK   22  A    between atoms: C_40  and  C_42
REMARK                            x       y       z     vdW  Elec       q    Type
REMARK                         _______ _______ _______ _____ _____    ______ ____
ROOT
ATOM      1  O   LIG A   1      -5.913   4.921 129.145  0.00  0.00    -0.291 OA
ATOM      2  C   LIG A   1      -6.508   3.843 129.109  0.00  0.00    +0.177 C 
ATOM      3  C   LIG A   1      -6.240   2.926 127.943  0.00  0.00    +0.042 C 
ATOM      4  C   LIG A   1      -6.543   1.633 128.183  0.00  0.00    +0.141 C 
ATOM      5  O   LIG A   1      -6.520   0.696 127.158  0.00  0.00    -0.487 OA
ATOM      6  C   LIG A   1      -6.658  -0.726 127.397  0.00  0.00    +0.181 C 
ATOM      7  C   LIG A   1      -7.212  -1.381 126.129  0.00  0.00    +0.052 C 
ATOM      8  C   LIG A   1      -7.534  -1.037 128.615  0.00  0.00    +0.098 C 
ATOM      9  C   LIG A   1      -7.725  -2.503 128.956  0.00  0.00    +0.020 C 
ATOM     10  C   LIG A   1      -6.808  -0.291 129.693  0.00  0.00    +0.176 C 
ATOM     11  O   LIG A   1      -5.966  -0.787 130.433  0.00  0.00    -0.291 OA
ATOM     12  C   LIG A   1      -6.954   1.173 129.512  0.00  0.00    +0.098 C 
ATOM     13  C   LIG A   1      -7.544   1.973 130.430  0.00  0.00    +0.125 C 
ATOM     14  C   LIG A   1      -7.573   3.480 130.181  0.00  0.00    +0.095 C 
ENDROOT
BRANCH  13  15
ATOM     15  O   LIG A   1      -8.074   1.462 131.615  0.00  0.00    -0.497 OA
ATOM     16  C   LIG A   1      -9.462   1.101 131.658  0.00  0.00    +0.276 C 
ENDBRANCH  13  15
BRANCH   3  17
ATOM     17  C   LIG A   1      -5.770   3.652 126.660  0.00  0.00    +0.037 C 
BRANCH  17  18
ATOM     18  C   LIG A   1      -4.377   3.182 126.122  0.00  0.00    +0.009 C 
BRANCH  18  19
ATOM     19  C   LIG A   1      -3.254   3.096 127.158  0.00  0.00    -0.003 C 
ATOM     20  C   LIG A   1      -1.830   3.058 126.628  0.00  0.00    +0.004 C 
ENDBRANCH  18  19
ENDBRANCH  17  18
BRANCH  17  21
ATOM     21  C   LIG A   1      -6.729   3.711 125.452  0.00  0.00    +0.129 C 
BRANCH  21  22
ATOM     22  C   LIG A   1      -8.079   4.335 125.556  0.00  0.00    +0.307 C 
ATOM     23  O   LIG A   1      -8.432   5.248 126.349  0.00  0.00    -0.251 OA
BRANCH  22  24
ATOM     24  O   LIG A   1      -8.966   3.544 124.960  0.00  0.00    -0.468 OA
ATOM     25  C   LIG A   1      -8.327   2.377 124.443  0.00  0.00    +0.280 C 
ENDBRANCH  22  24
ENDBRANCH  21  22
ENDBRANCH  17  21
ENDBRANCH   3  17
BRANCH  14  26
ATOM     26  C   LIG A   1      -9.030   3.974 129.693  0.00  0.00    +0.027 C 
BRANCH  26  27
ATOM     27  C   LIG A   1      -9.921   4.685 130.743  0.00  0.00    -0.003 C 
ATOM     28  C   LIG A   1      -9.878   6.250 131.106  0.00  0.00    -0.025 C 
ATOM     29  C   LIG A   1     -11.020   6.466 130.051  0.00  0.00    +0.020 C 
ATOM     30  C   LIG A   1     -11.325   4.989 130.202  0.00  0.00    +0.012 C 
ATOM     31  C   LIG A   1     -10.178   6.448 132.606  0.00  0.00    +0.012 C 
ATOM     32  C   LIG A   1      -8.695   7.108 130.684  0.00  0.00    +0.012 C 
BRANCH  29  33
ATOM     33  C   LIG A   1     -12.148   7.423 130.322  0.00  0.00    -0.076 C 
ATOM     34  C   LIG A   1     -12.285   8.661 129.479  0.00  0.00    +0.038 C 
ATOM     35  C   LIG A   1     -12.963   7.243 131.372  0.00  0.00    +0.007 C 
ENDBRANCH  29  33
ENDBRANCH  26  27
ENDBRANCH  14  26
BRANCH  14  36
ATOM     36  C   LIG A   1      -7.114   4.303 131.487  0.00  0.00    +0.049 C 
BRANCH  36  37
ATOM     37  C   LIG A   1      -6.320   3.687 132.629  0.00  0.00    -0.027 C 
ATOM     38  C   LIG A   1      -6.748   3.616 133.911  0.00  0.00    -0.080 C 
ATOM     39  C   LIG A   1      -8.106   4.015 134.433  0.00  0.00    +0.038 C 
ATOM     40  C   LIG A   1      -5.845   3.159 135.023  0.00  0.00    +0.038 C 
ENDBRANCH  36  37
ENDBRANCH  14  36
TORSDOF 12
ENDMDL
MODEL 3
REMARK VINA RESULT:      -7.7      2.613      7.496
REMARK  Name = NuBBE_1259
REMARK  22 active torsions:
REMARK  status: ('A' for Active; 'I' for Inactive)
REMARK    1  A    between atoms: C_3  and  C_4
REMARK    2  A    between atoms: C_4  and  C_5
REMARK    3  A    between atoms: C_4  and  C_8
REMARK    4  A    between atoms: C_5  and  C_6
REMARK    5  A    between atoms: C_6  and  C_7
REMARK    6  A    between atoms: C_8  and  C_9
REMARK    7  A    between atoms: C_9  and  O_10
REMARK    8  A    between atoms: O_10  and  C_11
REMARK    9  A    between atoms: C_15  and  C_17
REMARK   10  A    between atoms: C_18  and  C_20
REMARK   11  A    between atoms: C_24  and  O_25
REMARK   12  A    between atoms: O_25  and  C_26
REMARK   13  A    between atoms: C_27  and  C_28
REMARK   14  A    between atoms: C_27  and  C_38
REMARK   15  A    between atoms: C_28  and  C_29
REMARK   16  A    between atoms: C_30  and  C_36
REMARK   17  A    between atoms: C_30  and  C_37
REMARK   18  A    between atoms: C_31  and  C_32
REMARK   19  A    between atoms: C_32  and  C_33
REMARK   20  A    between atoms: C_38  and  C_39
REMARK   21  A    between atoms: C_40  and  C_41
REMARK   22  A    between atoms: C_40  and  C_42
REMARK                            x       y       z     vdW  Elec       q    Type
REMARK                         _______ _______ _______ _____ _____    ______ ____
ROOT
ATOM      1  O   LIG A   1      -8.748   2.222 129.273  0.00  0.00    -0.291 OA
ATOM      2  C   LIG A   1      -7.775   2.910 128.964  0.00  0.00    +0.177 C 
ATOM      3  C   LIG A   1      -7.596   4.235 129.661  0.00  0.00    +0.042 C 
ATOM      4  C   LIG A   1      -6.332   4.706 129.626  0.00  0.00    +0.141 C 
ATOM      5  O   LIG A   1      -6.039   5.990 130.066  0.00  0.00    -0.487 OA
ATOM      6  C   LIG A   1      -4.683   6.473 130.220  0.00  0.00    +0.181 C 
ATOM      7  C   LIG A   1      -4.692   7.998 130.093  0.00  0.00    +0.052 C 
ATOM      8  C   LIG A   1      -3.713   5.835 129.221  0.00  0.00    +0.098 C 
ATOM      9  C   LIG A   1      -2.261   6.265 129.314  0.00  0.00    +0.020 C 
ATOM     10  C   LIG A   1      -3.896   4.379 129.528  0.00  0.00    +0.176 C 
ATOM     11  O   LIG A   1      -3.191   3.740 130.301  0.00  0.00    -0.291 OA
ATOM     12  C   LIG A   1      -5.229   3.908 129.083  0.00  0.00    +0.098 C 
ATOM     13  C   LIG A   1      -5.396   2.937 128.155  0.00  0.00    +0.125 C 
ATOM     14  C   LIG A   1      -6.813   2.472 127.825  0.00  0.00    +0.095 C 
ENDROOT
BRANCH  13  15
ATOM     15  O   LIG A   1      -4.308   2.319 127.539  0.00  0.00    -0.497 OA
ATOM     16  C   LIG A   1      -3.536   3.060 126.583  0.00  0.00    +0.276 C 
ENDBRANCH  13  15
BRANCH   3  17
ATOM     17  C   LIG A   1      -8.912   4.856 130.190  0.00  0.00    +0.037 C 
BRANCH  17  18
ATOM     18  C   LIG A   1      -9.090   4.772 131.743  0.00  0.00    +0.009 C 
BRANCH  18  19
ATOM     19  C   LIG A   1      -8.552   5.959 132.543  0.00  0.00    -0.003 C 
ATOM     20  C   LIG A   1      -7.228   5.760 133.265  0.00  0.00    +0.004 C 
ENDBRANCH  18  19
ENDBRANCH  17  18
BRANCH  17  21
ATOM     21  C   LIG A   1      -9.270   6.297 129.767  0.00  0.00    +0.129 C 
BRANCH  21  22
ATOM     22  C   LIG A   1     -10.676   6.700 129.480  0.00  0.00    +0.307 C 
ATOM     23  O   LIG A   1     -11.603   5.962 129.053  0.00  0.00    -0.251 OA
BRANCH  22  24
ATOM     24  O   LIG A   1     -10.731   8.024 129.377  0.00  0.00    -0.468 OA
ATOM     25  C   LIG A   1     -10.614   8.425 128.012  0.00  0.00    +0.280 C 
ENDBRANCH  22  24
ENDBRANCH  21  22
ENDBRANCH  17  21
ENDBRANCH   3  17
BRANCH  14  26
ATOM     26  C   LIG A   1      -7.323   3.074 126.417  0.00  0.00    +0.027 C 
BRANCH  26  27
ATOM     27  C   LIG A   1      -6.827   2.369 125.129  0.00  0.00    -0.003 C 
ATOM     28  C   LIG A   1      -7.747   1.931 123.885  0.00  0.00    -0.025 C 
ATOM     29  C   LIG A   1      -7.398   3.308 123.217  0.00  0.00    +0.020 C 
ATOM     30  C   LIG A   1      -6.193   3.353 124.136  0.00  0.00    +0.012 C 
ATOM     31  C   LIG A   1      -7.206   0.624 123.269  0.00  0.00    +0.012 C 
ATOM     32  C   LIG A   1      -9.259   1.862 124.030  0.00  0.00    +0.012 C 
BRANCH  29  33
ATOM     33  C   LIG A   1      -7.128   3.401 121.741  0.00  0.00    -0.076 C 
ATOM     34  C   LIG A   1      -5.713   3.308 121.240  0.00  0.00    +0.038 C 
ATOM     35  C   LIG A   1      -8.119   3.677 120.879  0.00  0.00    +0.007 C 
ENDBRANCH  29  33
ENDBRANCH  26  27
ENDBRANCH  14  26
BRANCH  14  36
ATOM     36  C   LIG A   1      -6.919   0.865 127.817  0.00  0.00    +0.049 C 
BRANCH  36  37
ATOM     37  C   LIG A   1      -8.077   0.105 127.190  0.00  0.00    -0.027 C 
ATOM     38  C   LIG A   1      -7.946  -1.019 126.447  0.00  0.00    -0.080 C 
ATOM     39  C   LIG A   1      -6.674  -1.790 126.193  0.00  0.00    +0.038 C 
ATOM     40  C   LIG A   1      -9.109  -1.620 125.708  0.00  0.00    +0.038 C 
ENDBRANCH  36  37
ENDBRANCH  14  36
TORSDOF 12
ENDMDL
MODEL 4
REMARK VINA RESULT:      -7.7      2.216      6.487
REMARK  Name = NuBBE_1259
REMARK  22 active torsions:
REMARK  status: ('A' for Active; 'I' for Inactive)
REMARK    1  A    between atoms: C_3  and  C_4
REMARK    2  A    between atoms: C_4  and  C_5
REMARK    3  A    between atoms: C_4  and  C_8
REMARK    4  A    between atoms: C_5  and  C_6
REMARK    5  A    between atoms: C_6  and  C_7
REMARK    6  A    between atoms: C_8  and  C_9
REMARK    7  A    between atoms: C_9  and  O_10
REMARK    8  A    between atoms: O_10  and  C_11
REMARK    9  A    between atoms: C_15  and  C_17
REMARK   10  A    between atoms: C_18  and  C_20
REMARK   11  A    between atoms: C_24  and  O_25
REMARK   12  A    between atoms: O_25  and  C_26
REMARK   13  A    between atoms: C_27  and  C_28
REMARK   14  A    between atoms: C_27  and  C_38
REMARK   15  A    between atoms: C_28  and  C_29
REMARK   16  A    between atoms: C_30  and  C_36
REMARK   17  A    between atoms: C_30  and  C_37
REMARK   18  A    between atoms: C_31  and  C_32
REMARK   19  A    between atoms: C_32  and  C_33
REMARK   20  A    between atoms: C_38  and  C_39
REMARK   21  A    between atoms: C_40  and  C_41
REMARK   22  A    between atoms: C_40  and  C_42
REMARK                            x       y       z     vdW  Elec       q    Type
REMARK                         _______ _______ _______ _____ _____    ______ ____
ROOT
ATOM      1  O   LIG A   1      -6.780   4.893 130.712  0.00  0.00    -0.291 OA
ATOM      2  C   LIG A   1      -6.556   4.434 129.592  0.00  0.00    +0.177 C 
ATOM      3  C   LIG A   1      -7.734   4.021 128.747  0.00  0.00    +0.042 C 
ATOM      4  C   LIG A   1      -7.468   3.969 127.425  0.00  0.00    +0.141 C 
ATOM      5  O   LIG A   1      -8.393   3.439 126.535  0.00  0.00    -0.487 OA
ATOM      6  C   LIG A   1      -8.233   3.526 125.099  0.00  0.00    +0.181 C 
ATOM      7  C   LIG A   1      -9.004   2.373 124.452  0.00  0.00    +0.052 C 
ATOM      8  C   LIG A   1      -6.763   3.526 124.668  0.00  0.00    +0.098 C 
ATOM      9  C   LIG A   1      -6.492   3.633 123.178  0.00  0.00    +0.020 C 
ATOM     10  C   LIG A   1      -6.238   4.707 125.427  0.00  0.00    +0.176 C 
ATOM     11  O   LIG A   1      -6.155   5.843 124.973  0.00  0.00    -0.291 OA
ATOM     12  C   LIG A   1      -6.185   4.420 126.880  0.00  0.00    +0.098 C 
ATOM     13  C   LIG A   1      -5.034   4.432 127.592  0.00  0.00    +0.125 C 
ATOM     14  C   LIG A   1      -5.100   4.198 129.100  0.00  0.00    +0.095 C 
ENDROOT
BRANCH  13  15
ATOM     15  O   LIG A   1      -3.805   4.705 126.992  0.00  0.00    -0.497 OA
ATOM     16  C   LIG A   1      -2.985   3.611 126.555  0.00  0.00    +0.276 C 
ENDBRANCH  13  15
BRANCH   3  17
ATOM     17  C   LIG A   1      -8.993   3.634 129.561  0.00  0.00    +0.037 C 
BRANCH  17  18
ATOM     18  C   LIG A   1      -8.735   2.581 130.691  0.00  0.00    +0.009 C 
BRANCH  18  19
ATOM     19  C   LIG A   1      -9.651   2.675 131.913  0.00  0.00    -0.003 C 
ATOM     20  C   LIG A   1      -8.984   2.934 133.255  0.00  0.00    +0.004 C 
ENDBRANCH  18  19
ENDBRANCH  17  18
BRANCH  17  21
ATOM     21  C   LIG A   1      -9.850   4.762 130.174  0.00  0.00    +0.129 C 
BRANCH  21  22
ATOM     22  C   LIG A   1      -9.983   6.090 129.511  0.00  0.00    +0.307 C 
ATOM     23  O   LIG A   1      -9.288   7.118 129.726  0.00  0.00    -0.251 OA
BRANCH  22  24
ATOM     24  O   LIG A   1     -11.176   6.161 128.928  0.00  0.00    -0.468 OA
ATOM     25  C   LIG A   1     -11.599   7.520 128.818  0.00  0.00    +0.280 C 
ENDBRANCH  22  24
ENDBRANCH  21  22
ENDBRANCH  17  21
ENDBRANCH   3  17
BRANCH  14  26
ATOM     26  C   LIG A   1      -4.626   2.706 129.492  0.00  0.00    +0.027 C 
BRANCH  26  27
ATOM     27  C   LIG A   1      -5.714   1.602 129.503  0.00  0.00    -0.003 C 
ATOM     28  C   LIG A   1      -5.975   0.529 128.335  0.00  0.00    -0.025 C 
ATOM     29  C   LIG A   1      -5.026  -0.455 129.108  0.00  0.00    +0.020 C 
ATOM     30  C   LIG A   1      -5.296   0.385 130.340  0.00  0.00    +0.012 C 
ATOM     31  C   LIG A   1      -7.482   0.216 128.238  0.00  0.00    +0.012 C 
ATOM     32  C   LIG A   1      -5.387   0.739 126.948  0.00  0.00    +0.012 C 
BRANCH  29  33
ATOM     33  C   LIG A   1      -5.348  -1.921 129.202  0.00  0.00    -0.076 C 
ATOM     34  C   LIG A   1      -6.233  -2.413 130.313  0.00  0.00    +0.038 C 
ATOM     35  C   LIG A   1      -4.767  -2.805 128.376  0.00  0.00    +0.007 C 
ENDBRANCH  29  33
ENDBRANCH  26  27
ENDBRANCH  14  26
BRANCH  14  36
ATOM     36  C   LIG A   1      -4.231   5.290 129.904  0.00  0.00    +0.049 C 
BRANCH  36  37
ATOM     37  C   LIG A   1      -2.934   4.962 130.626  0.00  0.00    -0.027 C 
ATOM     38  C   LIG A   1      -2.839   4.685 131.948  0.00  0.00    -0.080 C 
ATOM     39  C   LIG A   1      -3.981   4.535 132.923  0.00  0.00    +0.038 C 
ATOM     40  C   LIG A   1      -1.509   4.546 132.634  0.00  0.00    +0.038 C 
ENDBRANCH  36  37
ENDBRANCH  14  36
TORSDOF 12
ENDMDL
MODEL 5
REMARK VINA RESULT:      -7.7      1.869      5.418
REMARK  Name = NuBBE_1259
REMARK  22 active torsions:
REMARK  status: ('A' for Active; 'I' for Inactive)
REMARK    1  A    between atoms: C_3  and  C_4
REMARK    2  A    between atoms: C_4  and  C_5
REMARK    3  A    between atoms: C_4  and  C_8
REMARK    4  A    between atoms: C_5  and  C_6
REMARK    5  A    between atoms: C_6  and  C_7
REMARK    6  A    between atoms: C_8  and  C_9
REMARK    7  A    between atoms: C_9  and  O_10
REMARK    8  A    between atoms: O_10  and  C_11
REMARK    9  A    between atoms: C_15  and  C_17
REMARK   10  A    between atoms: C_18  and  C_20
REMARK   11  A    between atoms: C_24  and  O_25
REMARK   12  A    between atoms: O_25  and  C_26
REMARK   13  A    between atoms: C_27  and  C_28
REMARK   14  A    between atoms: C_27  and  C_38
REMARK   15  A    between atoms: C_28  and  C_29
REMARK   16  A    between atoms: C_30  and  C_36
REMARK   17  A    between atoms: C_30  and  C_37
REMARK   18  A    between atoms: C_31  and  C_32
REMARK   19  A    between atoms: C_32  and  C_33
REMARK   20  A    between atoms: C_38  and  C_39
REMARK   21  A    between atoms: C_40  and  C_41
REMARK   22  A    between atoms: C_40  and  C_42
REMARK                            x       y       z     vdW  Elec       q    Type
REMARK                         _______ _______ _______ _____ _____    ______ ____
ROOT
ATOM      1  O   LIG A   1      -6.066   6.678 130.522  0.00  0.00    -0.291 OA
ATOM      2  C   LIG A   1      -6.437   5.505 130.576  0.00  0.00    +0.177 C 
ATOM      3  C   LIG A   1      -5.385   4.437 130.732  0.00  0.00    +0.042 C 
ATOM      4  C   LIG A   1      -5.854   3.274 131.231  0.00  0.00    +0.141 C 
ATOM      5  O   LIG A   1      -5.052   2.142 131.269  0.00  0.00    -0.487 OA
ATOM      6  C   LIG A   1      -5.444   0.930 131.956  0.00  0.00    +0.181 C 
ATOM      7  C   LIG A   1      -4.714  -0.253 131.313  0.00  0.00    +0.052 C 
ATOM      8  C   LIG A   1      -6.962   0.716 131.955  0.00  0.00    +0.098 C 
ATOM      9  C   LIG A   1      -7.473  -0.523 132.668  0.00  0.00    +0.020 C 
ATOM     10  C   LIG A   1      -7.433   1.982 132.605  0.00  0.00    +0.176 C 
ATOM     11  O   LIG A   1      -7.660   2.103 133.803  0.00  0.00    -0.291 OA
ATOM     12  C   LIG A   1      -7.235   3.143 131.705  0.00  0.00    +0.098 C 
ATOM     13  C   LIG A   1      -8.255   3.909 131.255  0.00  0.00    +0.125 C 
ATOM     14  C   LIG A   1      -7.934   5.129 130.394  0.00  0.00    +0.095 C 
ENDROOT
BRANCH  13  15
ATOM     15  O   LIG A   1      -9.580   3.642 131.602  0.00  0.00    -0.497 OA
ATOM     16  C   LIG A   1     -10.499   3.233 130.578  0.00  0.00    +0.276 C 
ENDBRANCH  13  15
BRANCH   3  17
ATOM     17  C   LIG A   1      -3.990   4.838 130.193  0.00  0.00    +0.037 C 
BRANCH  17  18
ATOM     18  C   LIG A   1      -2.815   4.609 131.202  0.00  0.00    +0.009 C 
BRANCH  18  19
ATOM     19  C   LIG A   1      -1.991   5.848 131.560  0.00  0.00    -0.003 C 
ATOM     20  C   LIG A   1      -2.637   7.201 131.310  0.00  0.00    +0.004 C 
ENDBRANCH  18  19
ENDBRANCH  17  18
BRANCH  17  21
ATOM     21  C   LIG A   1      -3.536   4.274 128.829  0.00  0.00    +0.129 C 
BRANCH  21  22
ATOM     22  C   LIG A   1      -3.719   5.044 127.566  0.00  0.00    +0.307 C 
ATOM     23  O   LIG A   1      -4.367   6.114 127.419  0.00  0.00    -0.251 OA
BRANCH  22  24
ATOM     24  O   LIG A   1      -3.424   4.257 126.536  0.00  0.00    -0.468 OA
ATOM     25  C   LIG A   1      -2.270   3.468 126.824  0.00  0.00    +0.280 C 
ENDBRANCH  22  24
ENDBRANCH  21  22
ENDBRANCH  17  21
ENDBRANCH   3  17
BRANCH  14  26
ATOM     26  C   LIG A   1      -8.242   4.854 128.834  0.00  0.00    +0.027 C 
BRANCH  26  27
ATOM     27  C   LIG A   1      -7.186   4.045 128.039  0.00  0.00    -0.003 C 
ATOM     28  C   LIG A   1      -7.270   2.478 127.691  0.00  0.00    -0.025 C 
ATOM     29  C   LIG A   1      -7.932   2.878 126.324  0.00  0.00    +0.020 C 
ATOM     30  C   LIG A   1      -7.318   4.250 126.523  0.00  0.00    +0.012 C 
ATOM     31  C   LIG A   1      -5.856   1.862 127.702  0.00  0.00    +0.012 C 
ATOM     32  C   LIG A   1      -8.247   1.575 128.427  0.00  0.00    +0.012 C 
BRANCH  29  33
ATOM     33  C   LIG A   1      -7.577   2.154 125.055  0.00  0.00    -0.076 C 
ATOM     34  C   LIG A   1      -6.506   2.713 124.160  0.00  0.00    +0.038 C 
ATOM     35  C   LIG A   1      -8.278   1.081 124.659  0.00  0.00    +0.007 C 
ENDBRANCH  29  33
ENDBRANCH  26  27
ENDBRANCH  14  26
BRANCH  14  36
ATOM     36  C   LIG A   1      -8.732   6.434 130.900  0.00  0.00    +0.049 C 
BRANCH  36  37
ATOM     37  C   LIG A   1      -9.761   7.167 130.054  0.00  0.00    -0.027 C 
ATOM     38  C   LIG A   1     -11.088   7.200 130.318  0.00  0.00    -0.080 C 
ATOM     39  C   LIG A   1     -11.782   6.633 131.531  0.00  0.00    +0.038 C 
ATOM     40  C   LIG A   1     -12.073   7.790 129.347  0.00  0.00    +0.038 C 
ENDBRANCH  36  37
ENDBRANCH  14  36
TORSDOF 12
ENDMDL
MODEL 6
REMARK VINA RESULT:      -7.6      1.834      5.941
REMARK  Name = NuBBE_1259
REMARK  22 active torsions:
REMARK  status: ('A' for Active; 'I' for Inactive)
REMARK    1  A    between atoms: C_3  and  C_4
REMARK    2  A    between atoms: C_4  and  C_5
REMARK    3  A    between atoms: C_4  and  C_8
REMARK    4  A    between atoms: C_5  and  C_6
REMARK    5  A    between atoms: C_6  and  C_7
REMARK    6  A    between atoms: C_8  and  C_9
REMARK    7  A    between atoms: C_9  and  O_10
REMARK    8  A    between atoms: O_10  and  C_11
REMARK    9  A    between atoms: C_15  and  C_17
REMARK   10  A    between atoms: C_18  and  C_20
REMARK   11  A    between atoms: C_24  and  O_25
REMARK   12  A    between atoms: O_25  and  C_26
REMARK   13  A    between atoms: C_27  and  C_28
REMARK   14  A    between atoms: C_27  and  C_38
REMARK   15  A    between atoms: C_28  and  C_29
REMARK   16  A    between atoms: C_30  and  C_36
REMARK   17  A    between atoms: C_30  and  C_37
REMARK   18  A    between atoms: C_31  and  C_32
REMARK   19  A    between atoms: C_32  and  C_33
REMARK   20  A    between atoms: C_38  and  C_39
REMARK   21  A    between atoms: C_40  and  C_41
REMARK   22  A    between atoms: C_40  and  C_42
REMARK                            x       y       z     vdW  Elec       q    Type
REMARK                         _______ _______ _______ _____ _____    ______ ____
ROOT
ATOM      1  O   LIG A   1      -6.013   1.812 128.573  0.00  0.00    -0.291 OA
ATOM      2  C   LIG A   1      -6.710   2.575 129.242  0.00  0.00    +0.177 C 
ATOM      3  C   LIG A   1      -7.195   3.845 128.591  0.00  0.00    +0.042 C 
ATOM      4  C   LIG A   1      -8.281   4.384 129.183  0.00  0.00    +0.141 C 
ATOM      5  O   LIG A   1      -8.742   5.641 128.813  0.00  0.00    -0.487 OA
ATOM      6  C   LIG A   1      -9.999   6.181 129.285  0.00  0.00    +0.181 C 
ATOM      7  C   LIG A   1      -9.920   7.709 129.241  0.00  0.00    +0.052 C 
ATOM      8  C   LIG A   1     -10.368   5.682 130.686  0.00  0.00    +0.098 C 
ATOM      9  C   LIG A   1     -11.681   6.181 131.260  0.00  0.00    +0.020 C 
ATOM     10  C   LIG A   1     -10.367   4.198 130.474  0.00  0.00    +0.176 C 
ATOM     11  O   LIG A   1     -11.362   3.536 130.203  0.00  0.00    -0.291 OA
ATOM     12  C   LIG A   1      -8.989   3.695 130.266  0.00  0.00    +0.098 C 
ATOM     13  C   LIG A   1      -8.400   2.797 131.090  0.00  0.00    +0.125 C 
ATOM     14  C   LIG A   1      -7.003   2.285 130.741  0.00  0.00    +0.095 C 
ENDROOT
BRANCH  13  15
ATOM     15  O   LIG A   1      -9.057   2.291 132.211  0.00  0.00    -0.497 OA
ATOM     16  C   LIG A   1      -9.067   3.066 133.419  0.00  0.00    +0.276 C 
ENDBRANCH  13  15
BRANCH   3  17
ATOM     17  C   LIG A   1      -6.296   4.348 127.435  0.00  0.00    +0.037 C 
BRANCH  17  18
ATOM     18  C   LIG A   1      -4.761   4.297 127.739  0.00  0.00    +0.009 C 
BRANCH  18  19
ATOM     19  C   LIG A   1      -4.039   5.645 127.761  0.00  0.00    -0.003 C 
ATOM     20  C   LIG A   1      -2.633   5.664 128.341  0.00  0.00    +0.004 C 
ENDBRANCH  18  19
ENDBRANCH  17  18
BRANCH  17  21
ATOM     21  C   LIG A   1      -6.503   3.749 126.027  0.00  0.00    +0.129 C 
BRANCH  21  22
ATOM     22  C   LIG A   1      -7.852   3.684 125.397  0.00  0.00    +0.307 C 
ATOM     23  O   LIG A   1      -8.801   4.497 125.553  0.00  0.00    -0.251 OA
BRANCH  22  24
ATOM     24  O   LIG A   1      -8.054   2.452 124.941  0.00  0.00    -0.468 OA
ATOM     25  C   LIG A   1      -8.604   1.623 125.964  0.00  0.00    +0.280 C 
ENDBRANCH  22  24
ENDBRANCH  21  22
ENDBRANCH  17  21
ENDBRANCH   3  17
BRANCH  14  26
ATOM     26  C   LIG A   1      -5.871   2.974 131.662  0.00  0.00    +0.027 C 
BRANCH  26  27
ATOM     27  C   LIG A   1      -5.340   4.358 131.208  0.00  0.00    -0.003 C 
ATOM     28  C   LIG A   1      -5.660   5.765 131.916  0.00  0.00    -0.025 C 
ATOM     29  C   LIG A   1      -4.342   5.578 132.749  0.00  0.00    +0.020 C 
ATOM     30  C   LIG A   1      -3.898   4.608 131.673  0.00  0.00    +0.012 C 
ATOM     31  C   LIG A   1      -5.739   6.880 130.854  0.00  0.00    +0.012 C 
ATOM     32  C   LIG A   1      -6.812   5.889 132.901  0.00  0.00    +0.012 C 
BRANCH  29  33
ATOM     33  C   LIG A   1      -3.434   6.745 133.027  0.00  0.00    -0.076 C 
ATOM     34  C   LIG A   1      -2.499   7.226 131.952  0.00  0.00    +0.038 C 
ATOM     35  C   LIG A   1      -3.370   7.287 134.252  0.00  0.00    +0.007 C 
ENDBRANCH  29  33
ENDBRANCH  26  27
ENDBRANCH  14  26
BRANCH  14  36
ATOM     36  C   LIG A   1      -6.917   0.681 130.856  0.00  0.00    +0.049 C 
BRANCH  36  37
ATOM     37  C   LIG A   1      -7.725  -0.266 129.982  0.00  0.00    -0.027 C 
ATOM     38  C   LIG A   1      -7.671  -1.616 130.060  0.00  0.00    -0.080 C 
ATOM     39  C   LIG A   1      -6.912  -2.433 131.077  0.00  0.00    +0.038 C 
ATOM     40  C   LIG A   1      -8.355  -2.495 129.051  0.00  0.00    +0.038 C 
ENDBRANCH  36  37
ENDBRANCH  14  36
TORSDOF 12
ENDMDL
MODEL 7
REMARK VINA RESULT:      -7.5      2.037      6.065
REMARK  Name = NuBBE_1259
REMARK  22 active torsions:
REMARK  status: ('A' for Active; 'I' for Inactive)
REMARK    1  A    between atoms: C_3  and  C_4
REMARK    2  A    between atoms: C_4  and  C_5
REMARK    3  A    between atoms: C_4  and  C_8
REMARK    4  A    between atoms: C_5  and  C_6
REMARK    5  A    between atoms: C_6  and  C_7
REMARK    6  A    between atoms: C_8  and  C_9
REMARK    7  A    between atoms: C_9  and  O_10
REMARK    8  A    between atoms: O_10  and  C_11
REMARK    9  A    between atoms: C_15  and  C_17
REMARK   10  A    between atoms: C_18  and  C_20
REMARK   11  A    between atoms: C_24  and  O_25
REMARK   12  A    between atoms: O_25  and  C_26
REMARK   13  A    between atoms: C_27  and  C_28
REMARK   14  A    between atoms: C_27  and  C_38
REMARK   15  A    between atoms: C_28  and  C_29
REMARK   16  A    between atoms: C_30  and  C_36
REMARK   17  A    between atoms: C_30  and  C_37
REMARK   18  A    between atoms: C_31  and  C_32
REMARK   19  A    between atoms: C_32  and  C_33
REMARK   20  A    between atoms: C_38  and  C_39
REMARK   21  A    between atoms: C_40  and  C_41
REMARK   22  A    between atoms: C_40  and  C_42
REMARK                            x       y       z     vdW  Elec       q    Type
REMARK                         _______ _______ _______ _____ _____    ______ ____
ROOT
ATOM      1  O   LIG A   1      -5.205   6.645 131.713  0.00  0.00    -0.291 OA
ATOM      2  C   LIG A   1      -5.152   5.767 130.851  0.00  0.00    +0.177 C 
ATOM      3  C   LIG A   1      -6.441   5.105 130.435  0.00  0.00    +0.042 C 
ATOM      4  C   LIG A   1      -6.387   4.517 129.221  0.00  0.00    +0.141 C 
ATOM      5  O   LIG A   1      -7.431   3.718 128.772  0.00  0.00    -0.487 OA
ATOM      6  C   LIG A   1      -7.503   3.217 127.416  0.00  0.00    +0.181 C 
ATOM      7  C   LIG A   1      -8.343   1.938 127.413  0.00  0.00    +0.052 C 
ATOM      8  C   LIG A   1      -6.120   2.978 126.801  0.00  0.00    +0.098 C 
ATOM      9  C   LIG A   1      -6.091   2.467 125.372  0.00  0.00    +0.020 C 
ATOM     10  C   LIG A   1      -5.504   4.338 126.932  0.00  0.00    +0.176 C 
ATOM     11  O   LIG A   1      -5.517   5.192 126.053  0.00  0.00    -0.291 OA
ATOM     12  C   LIG A   1      -5.216   4.653 128.351  0.00  0.00    +0.098 C 
ATOM     13  C   LIG A   1      -3.967   4.896 128.813  0.00  0.00    +0.125 C 
ATOM     14  C   LIG A   1      -3.789   5.287 130.279  0.00  0.00    +0.095 C 
ENDROOT
BRANCH  13  15
ATOM     15  O   LIG A   1      -2.854   4.850 127.974  0.00  0.00    -0.497 OA
ATOM     16  C   LIG A   1      -2.321   3.573 127.594  0.00  0.00    +0.276 C 
ENDBRANCH  13  15
BRANCH   3  17
ATOM     17  C   LIG A   1      -7.547   5.133 131.518  0.00  0.00    +0.037 C 
BRANCH  17  18
ATOM     18  C   LIG A   1      -7.049   4.789 132.961  0.00  0.00    +0.009 C 
BRANCH  18  19
ATOM     19  C   LIG A   1      -8.128   4.351 133.954  0.00  0.00    -0.003 C 
ATOM     20  C   LIG A   1      -9.100   3.280 133.485  0.00  0.00    +0.004 C 
ENDBRANCH  18  19
ENDBRANCH  17  18
BRANCH  17  21
ATOM     21  C   LIG A   1      -8.437   6.390 131.630  0.00  0.00    +0.129 C 
BRANCH  21  22
ATOM     22  C   LIG A   1      -9.352   6.799 130.526  0.00  0.00    +0.307 C 
ATOM     23  O   LIG A   1      -9.246   7.816 129.791  0.00  0.00    -0.251 OA
BRANCH  22  24
ATOM     24  O   LIG A   1     -10.505   6.151 130.662  0.00  0.00    -0.468 OA
ATOM     25  C   LIG A   1     -11.050   6.365 131.964  0.00  0.00    +0.280 C 
ENDBRANCH  22  24
ENDBRANCH  21  22
ENDBRANCH  17  21
ENDBRANCH   3  17
BRANCH  14  26
ATOM     26  C   LIG A   1      -3.229   4.056 131.159  0.00  0.00    +0.027 C 
BRANCH  26  27
ATOM     27  C   LIG A   1      -4.280   3.102 131.783  0.00  0.00    -0.003 C 
ATOM     28  C   LIG A   1      -4.739   1.686 131.178  0.00  0.00    -0.025 C 
ATOM     29  C   LIG A   1      -3.648   1.011 132.083  0.00  0.00    +0.020 C 
ATOM     30  C   LIG A   1      -3.695   2.267 132.931  0.00  0.00    +0.012 C 
ATOM     31  C   LIG A   1      -6.233   1.448 131.477  0.00  0.00    +0.012 C 
ATOM     32  C   LIG A   1      -4.424   1.325 129.734  0.00  0.00    +0.012 C 
BRANCH  29  33
ATOM     33  C   LIG A   1      -3.925  -0.291 132.783  0.00  0.00    -0.076 C 
ATOM     34  C   LIG A   1      -4.501  -0.275 134.172  0.00  0.00    +0.038 C 
ATOM     35  C   LIG A   1      -3.563  -1.458 132.229  0.00  0.00    +0.007 C 
ENDBRANCH  29  33
ENDBRANCH  26  27
ENDBRANCH  14  26
BRANCH  14  36
ATOM     36  C   LIG A   1      -2.825   6.569 130.434  0.00  0.00    +0.049 C 
BRANCH  36  37
ATOM     37  C   LIG A   1      -1.574   6.576 131.298  0.00  0.00    -0.027 C 
ATOM     38  C   LIG A   1      -1.388   7.380 132.372  0.00  0.00    -0.080 C 
ATOM     39  C   LIG A   1      -2.398   8.320 132.982  0.00  0.00    +0.038 C 
ATOM     40  C   LIG A   1      -0.062   7.467 133.075  0.00  0.00    +0.038 C 
ENDBRANCH  36  37
ENDBRANCH  14  36
TORSDOF 12
ENDMDL
MODEL 8
REMARK VINA RESULT:      -7.5      2.699      6.935
REMARK  Name = NuBBE_1259
REMARK  22 active torsions:
REMARK  status: ('A' for Active; 'I' for Inactive)
REMARK    1  A    between atoms: C_3  and  C_4
REMARK    2  A    between atoms: C_4  and  C_5
REMARK    3  A    between atoms: C_4  and  C_8
REMARK    4  A    between atoms: C_5  and  C_6
REMARK    5  A    between atoms: C_6  and  C_7
REMARK    6  A    between atoms: C_8  and  C_9
REMARK    7  A    between atoms: C_9  and  O_10
REMARK    8  A    between atoms: O_10  and  C_11
REMARK    9  A    between atoms: C_15  and  C_17
REMARK   10  A    between atoms: C_18  and  C_20
REMARK   11  A    between atoms: C_24  and  O_25
REMARK   12  A    between atoms: O_25  and  C_26
REMARK   13  A    between atoms: C_27  and  C_28
REMARK   14  A    between atoms: C_27  and  C_38
REMARK   15  A    between atoms: C_28  and  C_29
REMARK   16  A    between atoms: C_30  and  C_36
REMARK   17  A    between atoms: C_30  and  C_37
REMARK   18  A    between atoms: C_31  and  C_32
REMARK   19  A    between atoms: C_32  and  C_33
REMARK   20  A    between atoms: C_38  and  C_39
REMARK   21  A    between atoms: C_40  and  C_41
REMARK   22  A    between atoms: C_40  and  C_42
REMARK                            x       y       z     vdW  Elec       q    Type
REMARK                         _______ _______ _______ _____ _____    ______ ____
ROOT
ATOM      1  O   LIG A   1      -7.450   0.214 132.945  0.00  0.00    -0.291 OA
ATOM      2  C   LIG A   1      -7.189   0.752 131.869  0.00  0.00    +0.177 C 
ATOM      3  C   LIG A   1      -6.666  -0.116 130.752  0.00  0.00    +0.042 C 
ATOM      4  C   LIG A   1      -6.834   0.414 129.523  0.00  0.00    +0.141 C 
ATOM      5  O   LIG A   1      -6.252  -0.178 128.409  0.00  0.00    -0.487 OA
ATOM      6  C   LIG A   1      -6.550   0.243 127.056  0.00  0.00    +0.181 C 
ATOM      7  C   LIG A   1      -5.361  -0.115 126.162  0.00  0.00    +0.052 C 
ATOM      8  C   LIG A   1      -6.889   1.735 126.963  0.00  0.00    +0.098 C 
ATOM      9  C   LIG A   1      -7.233   2.268 125.585  0.00  0.00    +0.020 C 
ATOM     10  C   LIG A   1      -8.043   1.830 127.915  0.00  0.00    +0.176 C 
ATOM     11  O   LIG A   1      -9.221   1.755 127.585  0.00  0.00    -0.291 OA
ATOM     12  C   LIG A   1      -7.590   1.652 129.315  0.00  0.00    +0.098 C 
ATOM     13  C   LIG A   1      -7.733   2.607 130.263  0.00  0.00    +0.125 C 
ATOM     14  C   LIG A   1      -7.302   2.292 131.694  0.00  0.00    +0.095 C 
ENDROOT
BRANCH  13  15
ATOM     15  O   LIG A   1      -8.312   3.843 129.975  0.00  0.00    -0.497 OA
ATOM     16  C   LIG A   1      -9.728   4.006 130.148  0.00  0.00    +0.276 C 
ENDBRANCH  13  15
BRANCH   3  17
ATOM     17  C   LIG A   1      -5.944  -1.398 131.232  0.00  0.00    +0.037 C 
BRANCH  17  18
ATOM     18  C   LIG A   1      -6.818  -2.696 131.173  0.00  0.00    +0.009 C 
BRANCH  18  19
ATOM     19  C   LIG A   1      -6.937  -3.360 129.800  0.00  0.00    -0.003 C 
ATOM     20  C   LIG A   1      -8.250  -3.174 129.056  0.00  0.00    +0.004 C 
ENDBRANCH  18  19
ENDBRANCH  17  18
BRANCH  17  21
ATOM     21  C   LIG A   1      -4.571  -1.745 130.616  0.00  0.00    +0.129 C 
BRANCH  21  22
ATOM     22  C   LIG A   1      -3.510  -2.429 131.409  0.00  0.00    +0.307 C 
ATOM     23  O   LIG A   1      -2.755  -1.909 132.273  0.00  0.00    -0.251 OA
BRANCH  22  24
ATOM     24  O   LIG A   1      -3.208  -3.581 130.819  0.00  0.00    -0.468 OA
ATOM     25  C   LIG A   1      -3.218  -3.434 129.399  0.00  0.00    +0.280 C 
ENDBRANCH  22  24
ENDBRANCH  21  22
ENDBRANCH  17  21
ENDBRANCH   3  17
BRANCH  14  26
ATOM     26  C   LIG A   1      -5.893   2.989 132.057  0.00  0.00    +0.027 C 
BRANCH  26  27
ATOM     27  C   LIG A   1      -5.537   4.295 131.301  0.00  0.00    -0.003 C 
ATOM     28  C   LIG A   1      -4.787   5.570 131.930  0.00  0.00    -0.025 C 
ATOM     29  C   LIG A   1      -3.436   4.954 131.418  0.00  0.00    +0.020 C 
ATOM     30  C   LIG A   1      -4.272   4.144 130.446  0.00  0.00    +0.012 C 
ATOM     31  C   LIG A   1      -5.327   6.864 131.290  0.00  0.00    +0.012 C 
ATOM     32  C   LIG A   1      -4.673   5.732 133.439  0.00  0.00    +0.012 C 
BRANCH  29  33
ATOM     33  C   LIG A   1      -2.366   5.829 130.827  0.00  0.00    -0.076 C 
ATOM     34  C   LIG A   1      -2.331   6.052 129.340  0.00  0.00    +0.038 C 
ATOM     35  C   LIG A   1      -1.381   6.321 131.594  0.00  0.00    +0.007 C 
ENDBRANCH  29  33
ENDBRANCH  26  27
ENDBRANCH  14  26
BRANCH  14  36
ATOM     36  C   LIG A   1      -8.431   2.727 132.759  0.00  0.00    +0.049 C 
BRANCH  36  37
ATOM     37  C   LIG A   1      -8.123   3.465 134.051  0.00  0.00    -0.027 C 
ATOM     38  C   LIG A   1      -8.187   4.809 134.202  0.00  0.00    -0.080 C 
ATOM     39  C   LIG A   1      -8.677   5.810 133.184  0.00  0.00    +0.038 C 
ATOM     40  C   LIG A   1      -7.699   5.490 135.450  0.00  0.00    +0.038 C 
ENDBRANCH  36  37
ENDBRANCH  14  36
TORSDOF 12
ENDMDL
MODEL 9
REMARK VINA RESULT:      -7.4      1.998      5.674
REMARK  Name = NuBBE_1259
REMARK  22 active torsions:
REMARK  status: ('A' for Active; 'I' for Inactive)
REMARK    1  A    between atoms: C_3  and  C_4
REMARK    2  A    between atoms: C_4  and  C_5
REMARK    3  A    between atoms: C_4  and  C_8
REMARK    4  A    between atoms: C_5  and  C_6
REMARK    5  A    between atoms: C_6  and  C_7
REMARK    6  A    between atoms: C_8  and  C_9
REMARK    7  A    between atoms: C_9  and  O_10
REMARK    8  A    between atoms: O_10  and  C_11
REMARK    9  A    between atoms: C_15  and  C_17
REMARK   10  A    between atoms: C_18  and  C_20
REMARK   11  A    between atoms: C_24  and  O_25
REMARK   12  A    between atoms: O_25  and  C_26
REMARK   13  A    between atoms: C_27  and  C_28
REMARK   14  A    between atoms: C_27  and  C_38
REMARK   15  A    between atoms: C_28  and  C_29
REMARK   16  A    between atoms: C_30  and  C_36
REMARK   17  A    between atoms: C_30  and  C_37
REMARK   18  A    between atoms: C_31  and  C_32
REMARK   19  A    between atoms: C_32  and  C_33
REMARK   20  A    between atoms: C_38  and  C_39
REMARK   21  A    between atoms: C_40  and  C_41
REMARK   22  A    between atoms: C_40  and  C_42
REMARK                            x       y       z     vdW  Elec       q    Type
REMARK                         _______ _______ _______ _____ _____    ______ ____
ROOT
ATOM      1  O   LIG A   1      -7.299   7.536 130.666  0.00  0.00    -0.291 OA
ATOM      2  C   LIG A   1      -7.103   6.431 131.172  0.00  0.00    +0.177 C 
ATOM      3  C   LIG A   1      -5.677   5.996 131.392  0.00  0.00    +0.042 C 
ATOM      4  C   LIG A   1      -5.536   5.034 132.328  0.00  0.00    +0.141 C 
ATOM      5  O   LIG A   1      -4.314   4.404 132.520  0.00  0.00    -0.487 OA
ATOM      6  C   LIG A   1      -4.066   3.502 133.626  0.00  0.00    +0.181 C 
ATOM      7  C   LIG A   1      -2.944   2.539 133.227  0.00  0.00    +0.052 C 
ATOM      8  C   LIG A   1      -5.323   2.744 134.062  0.00  0.00    +0.098 C 
ATOM      9  C   LIG A   1      -5.168   1.785 135.228  0.00  0.00    +0.020 C 
ATOM     10  C   LIG A   1      -6.251   3.878 134.378  0.00  0.00    +0.176 C 
ATOM     11  O   LIG A   1      -6.405   4.357 135.496  0.00  0.00    -0.291 OA
ATOM     12  C   LIG A   1      -6.668   4.580 133.141  0.00  0.00    +0.098 C 
ATOM     13  C   LIG A   1      -7.957   4.660 132.737  0.00  0.00    +0.125 C 
ATOM     14  C   LIG A   1      -8.287   5.474 131.487  0.00  0.00    +0.095 C 
ENDROOT
BRANCH  13  15
ATOM     15  O   LIG A   1      -8.989   4.065 133.462  0.00  0.00    -0.497 OA
ATOM     16  C   LIG A   1      -9.432   2.751 133.093  0.00  0.00    +0.276 C 
ENDBRANCH  13  15
BRANCH   3  17
ATOM     17  C   LIG A   1      -4.658   6.656 130.432  0.00  0.00    +0.037 C 
BRANCH  17  18
ATOM     18  C   LIG A   1      -3.724   7.716 131.107  0.00  0.00    +0.009 C 
BRANCH  18  19
ATOM     19  C   LIG A   1      -2.810   7.193 132.216  0.00  0.00    -0.003 C 
ATOM     20  C   LIG A   1      -1.372   6.880 131.834  0.00  0.00    +0.004 C 
ENDBRANCH  18  19
ENDBRANCH  17  18
BRANCH  17  21
ATOM     21  C   LIG A   1      -3.761   5.744 129.567  0.00  0.00    +0.129 C 
BRANCH  21  22
ATOM     22  C   LIG A   1      -3.210   6.203 128.261  0.00  0.00    +0.307 C 
ATOM     23  O   LIG A   1      -2.095   6.755 128.061  0.00  0.00    -0.251 OA
BRANCH  22  24
ATOM     24  O   LIG A   1      -4.204   6.297 127.383  0.00  0.00    -0.468 OA
ATOM     25  C   LIG A   1      -4.555   5.006 126.885  0.00  0.00    +0.280 C 
ENDBRANCH  22  24
ENDBRANCH  21  22
ENDBRANCH  17  21
ENDBRANCH   3  17
BRANCH  14  26
ATOM     26  C   LIG A   1      -8.573   4.522 130.216  0.00  0.00    +0.027 C 
BRANCH  26  27
ATOM     27  C   LIG A   1      -7.339   3.941 129.479  0.00  0.00    -0.003 C 
ATOM     28  C   LIG A   1      -6.750   2.457 129.660  0.00  0.00    -0.025 C 
ATOM     29  C   LIG A   1      -7.634   2.020 128.438  0.00  0.00    +0.020 C 
ATOM     30  C   LIG A   1      -7.677   3.485 128.053  0.00  0.00    +0.012 C 
ATOM     31  C   LIG A   1      -5.214   2.482 129.520  0.00  0.00    +0.012 C 
ATOM     32  C   LIG A   1      -7.159   1.603 130.851  0.00  0.00    +0.012 C 
BRANCH  29  33
ATOM     33  C   LIG A   1      -7.104   1.062 127.407  0.00  0.00    -0.076 C 
ATOM     34  C   LIG A   1      -6.366   1.598 126.212  0.00  0.00    +0.038 C 
ATOM     35  C   LIG A   1      -7.378  -0.249 127.484  0.00  0.00    +0.007 C 
ENDBRANCH  29  33
ENDBRANCH  26  27
ENDBRANCH  14  26
BRANCH  14  36
ATOM     36  C   LIG A   1      -9.535   6.460 131.739  0.00  0.00    +0.049 C 
BRANCH  36  37
ATOM     37  C   LIG A   1     -10.884   6.295 131.059  0.00  0.00    -0.027 C 
ATOM     38  C   LIG A   1     -11.265   6.952 129.938  0.00  0.00    -0.080 C 
ATOM     39  C   LIG A   1     -10.412   7.868 129.095  0.00  0.00    +0.038 C 
ATOM     40  C   LIG A   1     -12.674   6.880 129.418  0.00  0.00    +0.038 C 
ENDBRANCH  36  37
ENDBRANCH  14  36
TORSDOF 12
ENDMDL
