MODEL 1
REMARK VINA RESULT:      -7.5      0.000      0.000
REMARK  Name = NuBBE_2018
REMARK  9 active torsions:
REMARK  status: ('A' for Active; 'I' for Inactive)
REMARK    1  A    between atoms: C_4  and  O_5
REMARK    2  A    between atoms: C_7  and  O_8
REMARK    3  A    between atoms: C_9  and  O_10
REMARK    4  A    between atoms: O_10  and  C_11
REMARK    5  A    between atoms: C_15  and  C_16
REMARK    6  A    between atoms: C_18  and  O_19
REMARK    7  A    between atoms: O_19  and  C_20
REMARK    8  A    between atoms: C_21  and  O_22
REMARK    9  A    between atoms: O_22  and  C_23
REMARK                            x       y       z     vdW  Elec       q    Type
REMARK                         _______ _______ _______ _____ _____    ______ ____
ROOT
ATOM      1  O   LIG A   1      -9.014   6.429 132.603  0.00  0.00    -0.286 OA
ATOM      2  C   LIG A   1      -9.375   5.374 132.078  0.00  0.00    +0.204 A 
ATOM      3  C   LIG A   1      -8.747   4.121 132.523  0.00  0.00    +0.110 A 
ATOM      4  C   LIG A   1      -7.770   4.116 133.521  0.00  0.00    +0.135 A 
ATOM      5  C   LIG A   1      -7.184   2.923 133.923  0.00  0.00    +0.095 A 
ATOM      6  C   LIG A   1      -7.575   1.718 133.332  0.00  0.00    +0.166 A 
ATOM      7  C   LIG A   1      -8.562   1.697 132.333  0.00  0.00    +0.205 A 
ATOM      8  C   LIG A   1      -9.138   2.920 131.933  0.00  0.00    +0.187 A 
ATOM      9  O   LIG A   1     -10.094   2.885 130.944  0.00  0.00    -0.458 OA
ATOM     10  C   LIG A   1     -10.672   4.065 130.547  0.00  0.00    +0.208 A 
ATOM     11  C   LIG A   1     -10.409   5.300 131.008  0.00  0.00    +0.065 A 
ENDROOT
BRANCH  11  12
ATOM     12  C   LIG A   1     -11.135   6.491 130.497  0.00  0.00    -0.008 A 
ATOM     13  C   LIG A   1     -10.766   7.126 129.300  0.00  0.00    +0.058 A 
ATOM     14  C   LIG A   1     -11.454   8.248 128.805  0.00  0.00    +0.162 A 
ATOM     15  C   LIG A   1     -12.554   8.757 129.508  0.00  0.00    +0.162 A 
ATOM     16  C   LIG A   1     -12.928   8.134 130.702  0.00  0.00    +0.050 A 
ATOM     17  C   LIG A   1     -12.225   7.025 131.190  0.00  0.00    +0.012 A 
BRANCH  14  18
ATOM     18  O   LIG A   1     -10.951   8.694 127.610  0.00  0.00    -0.491 OA
ATOM     19  C   LIG A   1     -10.952   7.775 126.525  0.00  0.00    +0.277 C 
ENDBRANCH  14  18
BRANCH  15  20
ATOM     20  O   LIG A   1     -13.278   9.781 128.958  0.00  0.00    -0.491 OA
ATOM     21  C   LIG A   1     -13.512  10.904 129.804  0.00  0.00    +0.277 C 
ENDBRANCH  15  20
ENDBRANCH  11  12
BRANCH   4  22
ATOM     22  O   LIG A   1      -7.332   5.250 134.150  0.00  0.00    -0.506 OA
ATOM     23  H   LIG A   1      -6.447   5.479 133.782  0.00  0.00    +0.292 HD
ENDBRANCH   4  22
BRANCH   6  24
ATOM     24  O   LIG A   1      -6.962   0.572 133.761  0.00  0.00    -0.503 OA
ATOM     25  H   LIG A   1      -6.279   0.311 133.120  0.00  0.00    +0.292 HD
ENDBRANCH   6  24
BRANCH   7  26
ATOM     26  O   LIG A   1      -9.058   0.599 131.677  0.00  0.00    -0.488 OA
ATOM     27  C   LIG A   1      -8.260  -0.027 130.685  0.00  0.00    +0.277 C 
ENDBRANCH   7  26
TORSDOF 6
ENDMDL
MODEL 2
REMARK VINA RESULT:      -7.2      0.959      2.548
REMARK  Name = NuBBE_2018
REMARK  9 active torsions:
REMARK  status: ('A' for Active; 'I' for Inactive)
REMARK    1  A    between atoms: C_4  and  O_5
REMARK    2  A    between atoms: C_7  and  O_8
REMARK    3  A    between atoms: C_9  and  O_10
REMARK    4  A    between atoms: O_10  and  C_11
REMARK    5  A    between atoms: C_15  and  C_16
REMARK    6  A    between atoms: C_18  and  O_19
REMARK    7  A    between atoms: O_19  and  C_20
REMARK    8  A    between atoms: C_21  and  O_22
REMARK    9  A    between atoms: O_22  and  C_23
REMARK                            x       y       z     vdW  Elec       q    Type
REMARK                         _______ _______ _______ _____ _____    ______ ____
ROOT
ATOM      1  O   LIG A   1     -10.278   4.102 129.700  0.00  0.00    -0.286 OA
ATOM      2  C   LIG A   1      -9.886   4.481 130.806  0.00  0.00    +0.204 A 
ATOM      3  C   LIG A   1      -9.045   3.571 131.599  0.00  0.00    +0.110 A 
ATOM      4  C   LIG A   1      -8.690   2.309 131.117  0.00  0.00    +0.135 A 
ATOM      5  C   LIG A   1      -7.901   1.462 131.884  0.00  0.00    +0.095 A 
ATOM      6  C   LIG A   1      -7.454   1.873 133.143  0.00  0.00    +0.166 A 
ATOM      7  C   LIG A   1      -7.791   3.140 133.645  0.00  0.00    +0.205 A 
ATOM      8  C   LIG A   1      -8.600   3.982 132.854  0.00  0.00    +0.187 A 
ATOM      9  O   LIG A   1      -8.933   5.215 133.365  0.00  0.00    -0.458 OA
ATOM     10  C   LIG A   1      -9.714   6.051 132.607  0.00  0.00    +0.208 A 
ATOM     11  C   LIG A   1     -10.224   5.811 131.387  0.00  0.00    +0.065 A 
ENDROOT
BRANCH  11  12
ATOM     12  C   LIG A   1     -11.038   6.825 130.671  0.00  0.00    -0.008 A 
ATOM     13  C   LIG A   1     -10.641   7.356 129.433  0.00  0.00    +0.058 A 
ATOM     14  C   LIG A   1     -11.411   8.311 128.745  0.00  0.00    +0.162 A 
ATOM     15  C   LIG A   1     -12.625   8.751 129.290  0.00  0.00    +0.162 A 
ATOM     16  C   LIG A   1     -13.029   8.230 130.523  0.00  0.00    +0.050 A 
ATOM     17  C   LIG A   1     -12.245   7.290 131.203  0.00  0.00    +0.012 A 
BRANCH  14  18
ATOM     18  O   LIG A   1     -10.857   8.673 127.544  0.00  0.00    -0.491 OA
ATOM     19  C   LIG A   1     -10.929   7.725 126.487  0.00  0.00    +0.277 C 
ENDBRANCH  14  18
BRANCH  15  20
ATOM     20  O   LIG A   1     -13.414   9.597 128.557  0.00  0.00    -0.491 OA
ATOM     21  C   LIG A   1     -13.748  10.834 129.181  0.00  0.00    +0.277 C 
ENDBRANCH  15  20
ENDBRANCH  11  12
BRANCH   4  22
ATOM     22  O   LIG A   1      -9.084   1.833 129.896  0.00  0.00    -0.506 OA
ATOM     23  H   LIG A   1     -10.068   1.781 129.893  0.00  0.00    +0.292 HD
ENDBRANCH   4  22
BRANCH   6  24
ATOM     24  O   LIG A   1      -6.684   0.997 133.860  0.00  0.00    -0.503 OA
ATOM     25  H   LIG A   1      -5.867   1.442 134.141  0.00  0.00    +0.292 HD
ENDBRANCH   6  24
BRANCH   7  26
ATOM     26  O   LIG A   1      -7.417   3.685 134.847  0.00  0.00    -0.488 OA
ATOM     27  C   LIG A   1      -6.091   4.164 135.001  0.00  0.00    +0.277 C 
ENDBRANCH   7  26
TORSDOF 6
ENDMDL
MODEL 3
REMARK VINA RESULT:      -6.9      2.637      3.692
REMARK  Name = NuBBE_2018
REMARK  9 active torsions:
REMARK  status: ('A' for Active; 'I' for Inactive)
REMARK    1  A    between atoms: C_4  and  O_5
REMARK    2  A    between atoms: C_7  and  O_8
REMARK    3  A    between atoms: C_9  and  O_10
REMARK    4  A    between atoms: O_10  and  C_11
REMARK    5  A    between atoms: C_15  and  C_16
REMARK    6  A    between atoms: C_18  and  O_19
REMARK    7  A    between atoms: O_19  and  C_20
REMARK    8  A    between atoms: C_21  and  O_22
REMARK    9  A    between atoms: O_22  and  C_23
REMARK                            x       y       z     vdW  Elec       q    Type
REMARK                         _______ _______ _______ _____ _____    ______ ____
ROOT
ATOM      1  O   LIG A   1      -7.026   7.517 130.436  0.00  0.00    -0.286 OA
ATOM      2  C   LIG A   1      -7.267   6.735 131.358  0.00  0.00    +0.204 A 
ATOM      3  C   LIG A   1      -6.139   6.211 132.144  0.00  0.00    +0.110 A 
ATOM      4  C   LIG A   1      -4.824   6.591 131.864  0.00  0.00    +0.135 A 
ATOM      5  C   LIG A   1      -3.772   6.081 132.613  0.00  0.00    +0.095 A 
ATOM      6  C   LIG A   1      -4.027   5.187 133.657  0.00  0.00    +0.166 A 
ATOM      7  C   LIG A   1      -5.341   4.798 133.963  0.00  0.00    +0.205 A 
ATOM      8  C   LIG A   1      -6.394   5.321 133.185  0.00  0.00    +0.187 A 
ATOM      9  O   LIG A   1      -7.675   4.919 133.487  0.00  0.00    -0.458 OA
ATOM     10  C   LIG A   1      -8.714   5.424 132.746  0.00  0.00    +0.208 A 
ATOM     11  C   LIG A   1      -8.641   6.284 131.715  0.00  0.00    +0.065 A 
ENDROOT
BRANCH  11  12
ATOM     12  C   LIG A   1      -9.860   6.764 131.016  0.00  0.00    -0.008 A 
ATOM     13  C   LIG A   1      -9.793   7.438 129.786  0.00  0.00    +0.058 A 
ATOM     14  C   LIG A   1     -10.943   7.888 129.114  0.00  0.00    +0.162 A 
ATOM     15  C   LIG A   1     -12.210   7.654 129.668  0.00  0.00    +0.162 A 
ATOM     16  C   LIG A   1     -12.288   6.985 130.893  0.00  0.00    +0.050 A 
ATOM     17  C   LIG A   1     -11.133   6.556 131.558  0.00  0.00    +0.012 A 
BRANCH  14  18
ATOM     18  O   LIG A   1     -10.656   8.494 127.919  0.00  0.00    -0.491 OA
ATOM     19  C   LIG A   1     -10.652   7.669 126.761  0.00  0.00    +0.277 C 
ENDBRANCH  14  18
BRANCH  15  20
ATOM     20  O   LIG A   1     -13.323   8.001 128.950  0.00  0.00    -0.491 OA
ATOM     21  C   LIG A   1     -13.871   6.982 128.118  0.00  0.00    +0.277 C 
ENDBRANCH  15  20
ENDBRANCH  11  12
BRANCH   4  22
ATOM     22  O   LIG A   1      -4.491   7.461 130.861  0.00  0.00    -0.506 OA
ATOM     23  H   LIG A   1      -3.568   7.767 131.019  0.00  0.00    +0.292 HD
ENDBRANCH   4  22
BRANCH   6  24
ATOM     24  O   LIG A   1      -2.954   4.710 134.360  0.00  0.00    -0.503 OA
ATOM     25  H   LIG A   1      -2.484   5.453 134.774  0.00  0.00    +0.292 HD
ENDBRANCH   6  24
BRANCH   7  26
ATOM     26  O   LIG A   1      -5.746   3.947 134.960  0.00  0.00    -0.488 OA
ATOM     27  C   LIG A   1      -5.739   4.409 136.301  0.00  0.00    +0.277 C 
ENDBRANCH   7  26
TORSDOF 6
ENDMDL
MODEL 4
REMARK VINA RESULT:      -6.8      8.796     11.428
REMARK  Name = NuBBE_2018
REMARK  9 active torsions:
REMARK  status: ('A' for Active; 'I' for Inactive)
REMARK    1  A    between atoms: C_4  and  O_5
REMARK    2  A    between atoms: C_7  and  O_8
REMARK    3  A    between atoms: C_9  and  O_10
REMARK    4  A    between atoms: O_10  and  C_11
REMARK    5  A    between atoms: C_15  and  C_16
REMARK    6  A    between atoms: C_18  and  O_19
REMARK    7  A    between atoms: O_19  and  C_20
REMARK    8  A    between atoms: C_21  and  O_22
REMARK    9  A    between atoms: O_22  and  C_23
REMARK                            x       y       z     vdW  Elec       q    Type
REMARK                         _______ _______ _______ _____ _____    ______ ____
ROOT
ATOM      1  O   LIG A   1      -5.193  -1.448 128.685  0.00  0.00    -0.286 OA
ATOM      2  C   LIG A   1      -6.229  -1.960 128.256  0.00  0.00    +0.204 A 
ATOM      3  C   LIG A   1      -6.729  -1.531 126.941  0.00  0.00    +0.110 A 
ATOM      4  C   LIG A   1      -6.049  -0.571 126.187  0.00  0.00    +0.135 A 
ATOM      5  C   LIG A   1      -6.540  -0.174 124.951  0.00  0.00    +0.095 A 
ATOM      6  C   LIG A   1      -7.718  -0.739 124.452  0.00  0.00    +0.166 A 
ATOM      7  C   LIG A   1      -8.413  -1.712 125.188  0.00  0.00    +0.205 A 
ATOM      8  C   LIG A   1      -7.902  -2.095 126.445  0.00  0.00    +0.187 A 
ATOM      9  O   LIG A   1      -8.602  -3.039 127.160  0.00  0.00    -0.458 OA
ATOM     10  C   LIG A   1      -8.115  -3.431 128.383  0.00  0.00    +0.208 A 
ATOM     11  C   LIG A   1      -7.008  -2.988 129.002  0.00  0.00    +0.065 A 
ENDROOT
BRANCH  11  12
ATOM     12  C   LIG A   1      -6.589  -3.523 130.323  0.00  0.00    -0.008 A 
ATOM     13  C   LIG A   1      -7.017  -2.942 131.527  0.00  0.00    +0.058 A 
ATOM     14  C   LIG A   1      -6.633  -3.448 132.782  0.00  0.00    +0.162 A 
ATOM     15  C   LIG A   1      -5.805  -4.577 132.853  0.00  0.00    +0.162 A 
ATOM     16  C   LIG A   1      -5.372  -5.163 131.660  0.00  0.00    +0.050 A 
ATOM     17  C   LIG A   1      -5.752  -4.639 130.418  0.00  0.00    +0.012 A 
BRANCH  14  18
ATOM     18  O   LIG A   1      -7.184  -2.753 133.826  0.00  0.00    -0.491 OA
ATOM     19  C   LIG A   1      -8.419  -3.233 134.342  0.00  0.00    +0.277 C 
ENDBRANCH  14  18
BRANCH  15  20
ATOM     20  O   LIG A   1      -5.529  -5.122 134.079  0.00  0.00    -0.491 OA
ATOM     21  C   LIG A   1      -4.336  -5.898 134.162  0.00  0.00    +0.277 C 
ENDBRANCH  15  20
ENDBRANCH  11  12
BRANCH   4  22
ATOM     22  O   LIG A   1      -4.891   0.029 126.602  0.00  0.00    -0.506 OA
ATOM     23  H   LIG A   1      -4.170  -0.249 125.991  0.00  0.00    +0.292 HD
ENDBRANCH   4  22
BRANCH   6  24
ATOM     24  O   LIG A   1      -8.162  -0.308 123.231  0.00  0.00    -0.503 OA
ATOM     25  H   LIG A   1      -7.775  -0.863 122.533  0.00  0.00    +0.292 HD
ENDBRANCH   6  24
BRANCH   7  26
ATOM     26  O   LIG A   1      -9.565  -2.363 124.826  0.00  0.00    -0.488 OA
ATOM     27  C   LIG A   1      -9.502  -3.358 123.817  0.00  0.00    +0.277 C 
ENDBRANCH   7  26
TORSDOF 6
ENDMDL
MODEL 5
REMARK VINA RESULT:      -6.6      7.194     11.306
REMARK  Name = NuBBE_2018
REMARK  9 active torsions:
REMARK  status: ('A' for Active; 'I' for Inactive)
REMARK    1  A    between atoms: C_4  and  O_5
REMARK    2  A    between atoms: C_7  and  O_8
REMARK    3  A    between atoms: C_9  and  O_10
REMARK    4  A    between atoms: O_10  and  C_11
REMARK    5  A    between atoms: C_15  and  C_16
REMARK    6  A    between atoms: C_18  and  O_19
REMARK    7  A    between atoms: O_19  and  C_20
REMARK    8  A    between atoms: C_21  and  O_22
REMARK    9  A    between atoms: O_22  and  C_23
REMARK                            x       y       z     vdW  Elec       q    Type
REMARK                         _______ _______ _______ _____ _____    ______ ____
ROOT
ATOM      1  O   LIG A   1      -7.890  -3.383 125.921  0.00  0.00    -0.286 OA
ATOM      2  C   LIG A   1      -8.068  -2.186 126.153  0.00  0.00    +0.204 A 
ATOM      3  C   LIG A   1      -8.626  -1.342 125.086  0.00  0.00    +0.110 A 
ATOM      4  C   LIG A   1      -8.956  -1.878 123.838  0.00  0.00    +0.135 A 
ATOM      5  C   LIG A   1      -9.477  -1.064 122.841  0.00  0.00    +0.095 A 
ATOM      6  C   LIG A   1      -9.677   0.298 123.084  0.00  0.00    +0.166 A 
ATOM      7  C   LIG A   1      -9.362   0.857 124.333  0.00  0.00    +0.205 A 
ATOM      8  C   LIG A   1      -8.827   0.015 125.329  0.00  0.00    +0.187 A 
ATOM      9  O   LIG A   1      -8.509   0.580 126.543  0.00  0.00    -0.458 OA
ATOM     10  C   LIG A   1      -7.995  -0.226 127.528  0.00  0.00    +0.208 A 
ATOM     11  C   LIG A   1      -7.740  -1.544 127.457  0.00  0.00    +0.065 A 
ENDROOT
BRANCH  11  12
ATOM     12  C   LIG A   1      -7.200  -2.294 128.619  0.00  0.00    -0.008 A 
ATOM     13  C   LIG A   1      -5.878  -2.767 128.646  0.00  0.00    +0.058 A 
ATOM     14  C   LIG A   1      -5.357  -3.471 129.747  0.00  0.00    +0.162 A 
ATOM     15  C   LIG A   1      -6.165  -3.708 130.868  0.00  0.00    +0.162 A 
ATOM     16  C   LIG A   1      -7.483  -3.243 130.850  0.00  0.00    +0.050 A 
ATOM     17  C   LIG A   1      -7.992  -2.556 129.741  0.00  0.00    +0.012 A 
BRANCH  14  18
ATOM     18  O   LIG A   1      -4.040  -3.815 129.581  0.00  0.00    -0.491 OA
ATOM     19  C   LIG A   1      -3.084  -2.765 129.658  0.00  0.00    +0.277 C 
ENDBRANCH  14  18
BRANCH  15  20
ATOM     20  O   LIG A   1      -5.610  -4.298 131.972  0.00  0.00    -0.491 OA
ATOM     21  C   LIG A   1      -5.039  -3.413 132.932  0.00  0.00    +0.277 C 
ENDBRANCH  15  20
ENDBRANCH  11  12
BRANCH   4  22
ATOM     22  O   LIG A   1      -8.792  -3.199 123.521  0.00  0.00    -0.506 OA
ATOM     23  H   LIG A   1      -7.870  -3.456 123.756  0.00  0.00    +0.292 HD
ENDBRANCH   4  22
BRANCH   6  24
ATOM     24  O   LIG A   1     -10.187   1.056 122.065  0.00  0.00    -0.503 OA
ATOM     25  H   LIG A   1      -9.925   0.670 121.212  0.00  0.00    +0.292 HD
ENDBRANCH   6  24
BRANCH   7  26
ATOM     26  O   LIG A   1      -9.517   2.163 124.722  0.00  0.00    -0.488 OA
ATOM     27  C   LIG A   1      -8.544   3.117 124.330  0.00  0.00    +0.277 C 
ENDBRANCH   7  26
TORSDOF 6
ENDMDL
MODEL 6
REMARK VINA RESULT:      -6.6      6.808      9.188
REMARK  Name = NuBBE_2018
REMARK  9 active torsions:
REMARK  status: ('A' for Active; 'I' for Inactive)
REMARK    1  A    between atoms: C_4  and  O_5
REMARK    2  A    between atoms: C_7  and  O_8
REMARK    3  A    between atoms: C_9  and  O_10
REMARK    4  A    between atoms: O_10  and  C_11
REMARK    5  A    between atoms: C_15  and  C_16
REMARK    6  A    between atoms: C_18  and  O_19
REMARK    7  A    between atoms: O_19  and  C_20
REMARK    8  A    between atoms: C_21  and  O_22
REMARK    9  A    between atoms: O_22  and  C_23
REMARK                            x       y       z     vdW  Elec       q    Type
REMARK                         _______ _______ _______ _____ _____    ______ ____
ROOT
ATOM      1  O   LIG A   1      -6.907   4.000 124.503  0.00  0.00    -0.286 OA
ATOM      2  C   LIG A   1      -6.834   2.833 124.895  0.00  0.00    +0.204 A 
ATOM      3  C   LIG A   1      -7.720   1.833 124.283  0.00  0.00    +0.110 A 
ATOM      4  C   LIG A   1      -8.623   2.185 123.277  0.00  0.00    +0.135 A 
ATOM      5  C   LIG A   1      -9.456   1.227 122.715  0.00  0.00    +0.095 A 
ATOM      6  C   LIG A   1      -9.392  -0.099 123.155  0.00  0.00    +0.166 A 
ATOM      7  C   LIG A   1      -8.487  -0.478 124.159  0.00  0.00    +0.205 A 
ATOM      8  C   LIG A   1      -7.655   0.511 124.721  0.00  0.00    +0.187 A 
ATOM      9  O   LIG A   1      -6.783   0.127 125.713  0.00  0.00    -0.458 OA
ATOM     10  C   LIG A   1      -5.960   1.076 126.268  0.00  0.00    +0.208 A 
ATOM     11  C   LIG A   1      -5.898   2.384 125.964  0.00  0.00    +0.065 A 
ENDROOT
BRANCH  11  12
ATOM     12  C   LIG A   1      -4.935   3.292 126.635  0.00  0.00    -0.008 A 
ATOM     13  C   LIG A   1      -5.350   4.250 127.574  0.00  0.00    +0.058 A 
ATOM     14  C   LIG A   1      -4.443   5.109 128.220  0.00  0.00    +0.162 A 
ATOM     15  C   LIG A   1      -3.072   5.012 127.941  0.00  0.00    +0.162 A 
ATOM     16  C   LIG A   1      -2.648   4.062 127.006  0.00  0.00    +0.050 A 
ATOM     17  C   LIG A   1      -3.565   3.224 126.361  0.00  0.00    +0.012 A 
BRANCH  14  18
ATOM     18  O   LIG A   1      -5.052   5.945 129.119  0.00  0.00    -0.491 OA
ATOM     19  C   LIG A   1      -5.309   5.424 130.416  0.00  0.00    +0.277 C 
ENDBRANCH  14  18
BRANCH  15  20
ATOM     20  O   LIG A   1      -2.193   5.779 128.658  0.00  0.00    -0.491 OA
ATOM     21  C   LIG A   1      -2.076   7.139 128.249  0.00  0.00    +0.277 C 
ENDBRANCH  15  20
ENDBRANCH  11  12
BRANCH   4  22
ATOM     22  O   LIG A   1      -8.747   3.458 122.791  0.00  0.00    -0.506 OA
ATOM     23  H   LIG A   1      -8.750   3.408 121.807  0.00  0.00    +0.292 HD
ENDBRANCH   4  22
BRANCH   6  24
ATOM     24  O   LIG A   1     -10.240  -1.003 122.572  0.00  0.00    -0.503 OA
ATOM     25  H   LIG A   1     -10.145  -1.864 123.012  0.00  0.00    +0.292 HD
ENDBRANCH   6  24
BRANCH   7  26
ATOM     26  O   LIG A   1      -8.299  -1.734 124.678  0.00  0.00    -0.488 OA
ATOM     27  C   LIG A   1      -9.231  -2.234 125.623  0.00  0.00    +0.277 C 
ENDBRANCH   7  26
TORSDOF 6
ENDMDL
MODEL 7
REMARK VINA RESULT:      -6.5      4.604      9.021
REMARK  Name = NuBBE_2018
REMARK  9 active torsions:
REMARK  status: ('A' for Active; 'I' for Inactive)
REMARK    1  A    between atoms: C_4  and  O_5
REMARK    2  A    between atoms: C_7  and  O_8
REMARK    3  A    between atoms: C_9  and  O_10
REMARK    4  A    between atoms: O_10  and  C_11
REMARK    5  A    between atoms: C_15  and  C_16
REMARK    6  A    between atoms: C_18  and  O_19
REMARK    7  A    between atoms: O_19  and  C_20
REMARK    8  A    between atoms: C_21  and  O_22
REMARK    9  A    between atoms: O_22  and  C_23
REMARK                            x       y       z     vdW  Elec       q    Type
REMARK                         _______ _______ _______ _____ _____    ______ ____
ROOT
ATOM      1  O   LIG A   1      -7.382  -1.055 129.827  0.00  0.00    -0.286 OA
ATOM      2  C   LIG A   1      -7.848  -0.044 129.298  0.00  0.00    +0.204 A 
ATOM      3  C   LIG A   1      -8.381   1.017 130.166  0.00  0.00    +0.110 A 
ATOM      4  C   LIG A   1      -8.358   0.892 131.557  0.00  0.00    +0.135 A 
ATOM      5  C   LIG A   1      -8.872   1.902 132.360  0.00  0.00    +0.095 A 
ATOM      6  C   LIG A   1      -9.411   3.053 131.777  0.00  0.00    +0.166 A 
ATOM      7  C   LIG A   1      -9.436   3.204 130.381  0.00  0.00    +0.205 A 
ATOM      8  C   LIG A   1      -8.917   2.164 129.583  0.00  0.00    +0.187 A 
ATOM      9  O   LIG A   1      -8.961   2.320 128.218  0.00  0.00    -0.458 OA
ATOM     10  C   LIG A   1      -8.453   1.321 127.425  0.00  0.00    +0.208 A 
ATOM     11  C   LIG A   1      -7.907   0.159 127.823  0.00  0.00    +0.065 A 
ENDROOT
BRANCH  11  12
ATOM     12  C   LIG A   1      -7.374  -0.824 126.846  0.00  0.00    -0.008 A 
ATOM     13  C   LIG A   1      -8.172  -1.853 126.320  0.00  0.00    +0.058 A 
ATOM     14  C   LIG A   1      -7.678  -2.782 125.388  0.00  0.00    +0.162 A 
ATOM     15  C   LIG A   1      -6.351  -2.688 124.947  0.00  0.00    +0.162 A 
ATOM     16  C   LIG A   1      -5.547  -1.669 125.466  0.00  0.00    +0.050 A 
ATOM     17  C   LIG A   1      -6.049  -0.759 126.404  0.00  0.00    +0.012 A 
BRANCH  14  18
ATOM     18  O   LIG A   1      -8.628  -3.683 124.982  0.00  0.00    -0.491 OA
ATOM     19  C   LIG A   1      -9.418  -3.325 123.855  0.00  0.00    +0.277 C 
ENDBRANCH  14  18
BRANCH  15  20
ATOM     20  O   LIG A   1      -5.918  -3.532 123.959  0.00  0.00    -0.491 OA
ATOM     21  C   LIG A   1      -4.573  -3.346 123.525  0.00  0.00    +0.277 C 
ENDBRANCH  15  20
ENDBRANCH  11  12
BRANCH   4  22
ATOM     22  O   LIG A   1      -7.848  -0.199 132.206  0.00  0.00    -0.506 OA
ATOM     23  H   LIG A   1      -8.556  -0.567 132.784  0.00  0.00    +0.292 HD
ENDBRANCH   4  22
BRANCH   6  24
ATOM     24  O   LIG A   1      -9.909   4.015 132.613  0.00  0.00    -0.503 OA
ATOM     25  H   LIG A   1      -9.603   4.889 132.318  0.00  0.00    +0.292 HD
ENDBRANCH   6  24
BRANCH   7  26
ATOM     26  O   LIG A   1      -9.914   4.275 129.669  0.00  0.00    -0.488 OA
ATOM     27  C   LIG A   1      -9.132   5.456 129.598  0.00  0.00    +0.277 C 
ENDBRANCH   7  26
TORSDOF 6
ENDMDL
MODEL 8
REMARK VINA RESULT:      -6.5      6.115      8.867
REMARK  Name = NuBBE_2018
REMARK  9 active torsions:
REMARK  status: ('A' for Active; 'I' for Inactive)
REMARK    1  A    between atoms: C_4  and  O_5
REMARK    2  A    between atoms: C_7  and  O_8
REMARK    3  A    between atoms: C_9  and  O_10
REMARK    4  A    between atoms: O_10  and  C_11
REMARK    5  A    between atoms: C_15  and  C_16
REMARK    6  A    between atoms: C_18  and  O_19
REMARK    7  A    between atoms: O_19  and  C_20
REMARK    8  A    between atoms: C_21  and  O_22
REMARK    9  A    between atoms: O_22  and  C_23
REMARK                            x       y       z     vdW  Elec       q    Type
REMARK                         _______ _______ _______ _____ _____    ______ ____
ROOT
ATOM      1  O   LIG A   1      -4.506   1.019 126.189  0.00  0.00    -0.286 OA
ATOM      2  C   LIG A   1      -5.116   1.882 126.825  0.00  0.00    +0.204 A 
ATOM      3  C   LIG A   1      -4.371   3.057 127.300  0.00  0.00    +0.110 A 
ATOM      4  C   LIG A   1      -3.007   3.205 127.037  0.00  0.00    +0.135 A 
ATOM      5  C   LIG A   1      -2.320   4.319 127.500  0.00  0.00    +0.095 A 
ATOM      6  C   LIG A   1      -2.995   5.303 128.230  0.00  0.00    +0.166 A 
ATOM      7  C   LIG A   1      -4.367   5.180 128.499  0.00  0.00    +0.205 A 
ATOM      8  C   LIG A   1      -5.045   4.037 128.027  0.00  0.00    +0.187 A 
ATOM      9  O   LIG A   1      -6.386   3.925 128.310  0.00  0.00    -0.458 OA
ATOM     10  C   LIG A   1      -7.064   2.822 127.852  0.00  0.00    +0.208 A 
ATOM     11  C   LIG A   1      -6.568   1.793 127.144  0.00  0.00    +0.065 A 
ENDROOT
BRANCH  11  12
ATOM     12  C   LIG A   1      -7.432   0.672 126.694  0.00  0.00    -0.008 A 
ATOM     13  C   LIG A   1      -8.290   0.795 125.590  0.00  0.00    +0.058 A 
ATOM     14  C   LIG A   1      -9.104  -0.265 125.152  0.00  0.00    +0.162 A 
ATOM     15  C   LIG A   1      -9.062  -1.497 125.820  0.00  0.00    +0.162 A 
ATOM     16  C   LIG A   1      -8.212  -1.630 126.922  0.00  0.00    +0.050 A 
ATOM     17  C   LIG A   1      -7.418  -0.561 127.354  0.00  0.00    +0.012 A 
BRANCH  14  18
ATOM     18  O   LIG A   1      -9.841   0.055 124.042  0.00  0.00    -0.491 OA
ATOM     19  C   LIG A   1     -10.213   1.419 123.885  0.00  0.00    +0.277 C 
ENDBRANCH  14  18
BRANCH  15  20
ATOM     20  O   LIG A   1      -9.778  -2.550 125.315  0.00  0.00    -0.491 OA
ATOM     21  C   LIG A   1      -9.127  -3.322 124.309  0.00  0.00    +0.277 C 
ENDBRANCH  15  20
ENDBRANCH  11  12
BRANCH   4  22
ATOM     22  O   LIG A   1      -2.275   2.290 126.330  0.00  0.00    -0.506 OA
ATOM     23  H   LIG A   1      -1.353   2.307 126.676  0.00  0.00    +0.292 HD
ENDBRANCH   4  22
BRANCH   6  24
ATOM     24  O   LIG A   1      -2.270   6.378 128.668  0.00  0.00    -0.503 OA
ATOM     25  H   LIG A   1      -2.699   6.758 129.453  0.00  0.00    +0.292 HD
ENDBRANCH   6  24
BRANCH   7  26
ATOM     26  O   LIG A   1      -5.163   6.064 129.183  0.00  0.00    -0.488 OA
ATOM     27  C   LIG A   1      -5.077   6.113 130.598  0.00  0.00    +0.277 C 
ENDBRANCH   7  26
TORSDOF 6
ENDMDL
MODEL 9
REMARK VINA RESULT:      -6.5      6.250     10.284
REMARK  Name = NuBBE_2018
REMARK  9 active torsions:
REMARK  status: ('A' for Active; 'I' for Inactive)
REMARK    1  A    between atoms: C_4  and  O_5
REMARK    2  A    between atoms: C_7  and  O_8
REMARK    3  A    between atoms: C_9  and  O_10
REMARK    4  A    between atoms: O_10  and  C_11
REMARK    5  A    between atoms: C_15  and  C_16
REMARK    6  A    between atoms: C_18  and  O_19
REMARK    7  A    between atoms: O_19  and  C_20
REMARK    8  A    between atoms: C_21  and  O_22
REMARK    9  A    between atoms: O_22  and  C_23
REMARK                            x       y       z     vdW  Elec       q    Type
REMARK                         _______ _______ _______ _____ _____    ______ ____
ROOT
ATOM      1  O   LIG A   1      -5.712  -0.684 128.355  0.00  0.00    -0.286 OA
ATOM      2  C   LIG A   1      -6.515  -1.499 127.896  0.00  0.00    +0.204 A 
ATOM      3  C   LIG A   1      -6.564  -1.686 126.438  0.00  0.00    +0.110 A 
ATOM      4  C   LIG A   1      -5.722  -0.967 125.587  0.00  0.00    +0.135 A 
ATOM      5  C   LIG A   1      -5.787  -1.153 124.213  0.00  0.00    +0.095 A 
ATOM      6  C   LIG A   1      -6.698  -2.068 123.675  0.00  0.00    +0.166 A 
ATOM      7  C   LIG A   1      -7.548  -2.808 124.510  0.00  0.00    +0.205 A 
ATOM      8  C   LIG A   1      -7.471  -2.598 125.903  0.00  0.00    +0.187 A 
ATOM      9  O   LIG A   1      -8.321  -3.321 126.708  0.00  0.00    -0.458 OA
ATOM     10  C   LIG A   1      -8.255  -3.136 128.066  0.00  0.00    +0.208 A 
ATOM     11  C   LIG A   1      -7.445  -2.301 128.739  0.00  0.00    +0.065 A 
ENDROOT
BRANCH  11  12
ATOM     12  C   LIG A   1      -7.469  -2.222 130.222  0.00  0.00    -0.008 A 
ATOM     13  C   LIG A   1      -7.901  -1.069 130.896  0.00  0.00    +0.058 A 
ATOM     14  C   LIG A   1      -7.935  -0.990 132.300  0.00  0.00    +0.162 A 
ATOM     15  C   LIG A   1      -7.540  -2.093 133.069  0.00  0.00    +0.162 A 
ATOM     16  C   LIG A   1      -7.107  -3.246 132.408  0.00  0.00    +0.050 A 
ATOM     17  C   LIG A   1      -7.065  -3.305 131.010  0.00  0.00    +0.012 A 
BRANCH  14  18
ATOM     18  O   LIG A   1      -8.416   0.211 132.753  0.00  0.00    -0.491 OA
ATOM     19  C   LIG A   1      -9.387   0.864 131.945  0.00  0.00    +0.277 C 
ENDBRANCH  14  18
BRANCH  15  20
ATOM     20  O   LIG A   1      -7.682  -2.039 134.431  0.00  0.00    -0.491 OA
ATOM     21  C   LIG A   1      -8.137  -3.235 135.059  0.00  0.00    +0.277 C 
ENDBRANCH  15  20
ENDBRANCH  11  12
BRANCH   4  22
ATOM     22  O   LIG A   1      -4.803  -0.055 126.034  0.00  0.00    -0.506 OA
ATOM     23  H   LIG A   1      -4.922   0.044 127.007  0.00  0.00    +0.292 HD
ENDBRANCH   4  22
BRANCH   6  24
ATOM     24  O   LIG A   1      -6.725  -2.209 122.314  0.00  0.00    -0.503 OA
ATOM     25  H   LIG A   1      -6.729  -3.155 122.087  0.00  0.00    +0.292 HD
ENDBRANCH   6  24
BRANCH   7  26
ATOM     26  O   LIG A   1      -8.475  -3.747 124.133  0.00  0.00    -0.488 OA
ATOM     27  C   LIG A   1      -9.650  -3.321 123.462  0.00  0.00    +0.277 C 
ENDBRANCH   7  26
TORSDOF 6
ENDMDL
