MODEL 1
REMARK VINA RESULT:      -7.8      0.000      0.000
REMARK  Name = NuBBE_1849
REMARK  6 active torsions:
REMARK  status: ('A' for Active; 'I' for Inactive)
REMARK    1  A    between atoms: C_2  and  C_3
REMARK    2  A    between atoms: C_3  and  C_4
REMARK    3  A    between atoms: C_7  and  C_9
REMARK    4  A    between atoms: C_18  and  C_20
REMARK    5  A    between atoms: C_23  and  O_24
REMARK    6  A    between atoms: O_24  and  C_25
REMARK                            x       y       z     vdW  Elec       q    Type
REMARK                         _______ _______ _______ _____ _____    ______ ____
ROOT
ATOM      1  C   LIG A   1      -7.747   0.500 124.875  0.00  0.00    +0.059 C 
ATOM      2  C   LIG A   1      -8.619   0.506 123.652  0.00  0.00    +0.113 C 
ATOM      3  O   LIG A   1      -8.767   1.768 123.094  0.00  0.00    -0.487 OA
ATOM      4  C   LIG A   1      -7.680   2.565 123.635  0.00  0.00    +0.207 C 
ATOM      5  C   LIG A   1      -6.759   1.580 124.394  0.00  0.00    +0.049 C 
ATOM      6  C   LIG A   1      -5.902   2.211 125.487  0.00  0.00    +0.013 C 
ATOM      7  C   LIG A   1      -9.019  -0.590 123.001  0.00  0.00    +0.096 C 
ATOM      8  C   LIG A   1      -8.552  -1.926 123.445  0.00  0.00    +0.223 C 
ATOM      9  C   LIG A   1      -7.400  -1.961 124.429  0.00  0.00    +0.164 C 
ATOM     10  C   LIG A   1      -7.062  -0.831 125.072  0.00  0.00    +0.038 C 
ATOM     11  O   LIG A   1      -9.060  -2.926 122.969  0.00  0.00    -0.284 OA
ENDROOT
BRANCH   4  12
ATOM     12  C   LIG A   1      -7.028   3.321 122.487  0.00  0.00    -0.003 A 
ATOM     13  C   LIG A   1      -7.720   3.500 121.274  0.00  0.00    +0.056 A 
ATOM     14  C   LIG A   1      -7.085   4.161 120.240  0.00  0.00    +0.167 A 
ATOM     15  C   LIG A   1      -5.804   4.642 120.359  0.00  0.00    +0.166 A 
ATOM     16  O   LIG A   1      -5.370   5.255 119.225  0.00  0.00    -0.453 OA
ATOM     17  C   LIG A   1      -6.530   5.112 118.378  0.00  0.00    +0.466 C 
ATOM     18  O   LIG A   1      -7.620   4.412 119.014  0.00  0.00    -0.453 OA
ATOM     19  C   LIG A   1      -5.085   4.487 121.523  0.00  0.00    +0.050 A 
ATOM     20  C   LIG A   1      -5.704   3.820 122.590  0.00  0.00    +0.011 A 
ENDBRANCH   4  12
BRANCH   9  21
ATOM     21  O   LIG A   1      -6.705  -3.124 124.730  0.00  0.00    -0.492 OA
ATOM     22  C   LIG A   1      -5.524  -3.352 123.969  0.00  0.00    +0.277 C 
ENDBRANCH   9  21
BRANCH   1  23
ATOM     23  C   LIG A   1      -8.539   0.900 126.165  0.00  0.00    +0.045 C 
BRANCH  23  25
ATOM     24  C   LIG A   1      -7.804   0.760 128.582  0.00  0.00    +0.004 C 
ATOM     25  C   LIG A   1      -8.167   0.168 127.436  0.00  0.00    -0.033 C 
ENDBRANCH  23  25
ENDBRANCH   1  23
TORSDOF 4
ENDMDL
MODEL 2
REMARK VINA RESULT:      -7.8      8.429      9.966
REMARK  Name = NuBBE_1849
REMARK  6 active torsions:
REMARK  status: ('A' for Active; 'I' for Inactive)
REMARK    1  A    between atoms: C_2  and  C_3
REMARK    2  A    between atoms: C_3  and  C_4
REMARK    3  A    between atoms: C_7  and  C_9
REMARK    4  A    between atoms: C_18  and  C_20
REMARK    5  A    between atoms: C_23  and  O_24
REMARK    6  A    between atoms: O_24  and  C_25
REMARK                            x       y       z     vdW  Elec       q    Type
REMARK                         _______ _______ _______ _____ _____    ______ ____
ROOT
ATOM      1  C   LIG A   1      -7.454   4.803 132.596  0.00  0.00    +0.059 C 
ATOM      2  C   LIG A   1      -8.726   4.126 133.025  0.00  0.00    +0.113 C 
ATOM      3  O   LIG A   1      -9.817   4.982 133.049  0.00  0.00    -0.487 OA
ATOM      4  C   LIG A   1      -9.438   6.125 132.238  0.00  0.00    +0.207 C 
ATOM      5  C   LIG A   1      -8.097   5.748 131.563  0.00  0.00    +0.049 C 
ATOM      6  C   LIG A   1      -7.234   6.932 131.138  0.00  0.00    +0.013 C 
ATOM      7  C   LIG A   1      -8.880   2.803 133.136  0.00  0.00    +0.096 C 
ATOM      8  C   LIG A   1      -7.764   1.896 132.769  0.00  0.00    +0.223 C 
ATOM      9  C   LIG A   1      -6.610   2.500 131.997  0.00  0.00    +0.164 C 
ATOM     10  C   LIG A   1      -6.494   3.837 131.944  0.00  0.00    +0.038 C 
ATOM     11  O   LIG A   1      -7.843   0.711 133.044  0.00  0.00    -0.284 OA
ENDROOT
BRANCH   4  12
ATOM     12  C   LIG A   1     -10.585   6.438 131.289  0.00  0.00    -0.003 A 
ATOM     13  C   LIG A   1     -10.392   6.360 129.897  0.00  0.00    +0.056 A 
ATOM     14  C   LIG A   1     -11.446   6.685 129.063  0.00  0.00    +0.167 A 
ATOM     15  C   LIG A   1     -12.667   7.082 129.552  0.00  0.00    +0.166 A 
ATOM     16  O   LIG A   1     -13.559   7.356 128.562  0.00  0.00    -0.453 OA
ATOM     17  C   LIG A   1     -12.761   7.078 127.392  0.00  0.00    +0.466 C 
ATOM     18  O   LIG A   1     -11.416   6.658 127.702  0.00  0.00    -0.453 OA
ATOM     19  C   LIG A   1     -12.902   7.176 130.904  0.00  0.00    +0.050 A 
ATOM     20  C   LIG A   1     -11.851   6.854 131.775  0.00  0.00    +0.011 A 
ENDBRANCH   4  12
BRANCH   9  21
ATOM     21  O   LIG A   1      -5.635   1.730 131.378  0.00  0.00    -0.492 OA
ATOM     22  C   LIG A   1      -4.560   2.453 130.788  0.00  0.00    +0.277 C 
ENDBRANCH   9  21
BRANCH   1  23
ATOM     23  C   LIG A   1      -6.755   5.548 133.782  0.00  0.00    +0.045 C 
BRANCH  23  25
ATOM     24  C   LIG A   1      -7.642   5.939 136.119  0.00  0.00    +0.004 C 
ATOM     25  C   LIG A   1      -7.157   5.119 135.176  0.00  0.00    -0.033 C 
ENDBRANCH  23  25
ENDBRANCH   1  23
TORSDOF 4
ENDMDL
MODEL 3
REMARK VINA RESULT:      -7.7      3.915      8.179
REMARK  Name = NuBBE_1849
REMARK  6 active torsions:
REMARK  status: ('A' for Active; 'I' for Inactive)
REMARK    1  A    between atoms: C_2  and  C_3
REMARK    2  A    between atoms: C_3  and  C_4
REMARK    3  A    between atoms: C_7  and  C_9
REMARK    4  A    between atoms: C_18  and  C_20
REMARK    5  A    between atoms: C_23  and  O_24
REMARK    6  A    between atoms: O_24  and  C_25
REMARK                            x       y       z     vdW  Elec       q    Type
REMARK                         _______ _______ _______ _____ _____    ______ ____
ROOT
ATOM      1  C   LIG A   1      -6.703  -1.759 124.963  0.00  0.00    +0.059 C 
ATOM      2  C   LIG A   1      -7.501  -2.866 125.592  0.00  0.00    +0.113 C 
ATOM      3  O   LIG A   1      -7.118  -3.141 126.896  0.00  0.00    -0.487 OA
ATOM      4  C   LIG A   1      -6.375  -1.975 127.341  0.00  0.00    +0.207 C 
ATOM      5  C   LIG A   1      -6.551  -0.905 126.237  0.00  0.00    +0.049 C 
ATOM      6  C   LIG A   1      -5.453   0.153 126.184  0.00  0.00    +0.013 C 
ATOM      7  C   LIG A   1      -8.622  -3.380 125.076  0.00  0.00    +0.096 C 
ATOM      8  C   LIG A   1      -9.188  -2.814 123.826  0.00  0.00    +0.223 C 
ATOM      9  C   LIG A   1      -8.635  -1.483 123.360  0.00  0.00    +0.164 C 
ATOM     10  C   LIG A   1      -7.489  -1.032 123.898  0.00  0.00    +0.038 C 
ATOM     11  O   LIG A   1     -10.098  -3.398 123.264  0.00  0.00    -0.284 OA
ENDROOT
BRANCH   4  12
ATOM     12  C   LIG A   1      -6.883  -1.584 128.720  0.00  0.00    -0.003 A 
ATOM     13  C   LIG A   1      -6.749  -2.476 129.802  0.00  0.00    +0.056 A 
ATOM     14  C   LIG A   1      -7.253  -2.104 131.034  0.00  0.00    +0.167 A 
ATOM     15  C   LIG A   1      -7.882  -0.898 131.230  0.00  0.00    +0.166 A 
ATOM     16  O   LIG A   1      -8.304  -0.734 132.513  0.00  0.00    -0.453 OA
ATOM     17  C   LIG A   1      -7.862  -1.974 133.105  0.00  0.00    +0.466 C 
ATOM     18  O   LIG A   1      -7.200  -2.851 132.170  0.00  0.00    -0.453 OA
ATOM     19  C   LIG A   1      -8.040   0.005 130.203  0.00  0.00    +0.050 A 
ATOM     20  C   LIG A   1      -7.539  -0.346 128.941  0.00  0.00    +0.011 A 
ENDBRANCH   4  12
BRANCH   9  21
ATOM     21  O   LIG A   1      -9.237  -0.727 122.364  0.00  0.00    -0.492 OA
ATOM     22  C   LIG A   1      -9.980   0.403 122.811  0.00  0.00    +0.277 C 
ENDBRANCH   9  21
BRANCH   1  23
ATOM     23  C   LIG A   1      -5.343  -2.270 124.381  0.00  0.00    +0.045 C 
BRANCH  23  25
ATOM     24  C   LIG A   1      -4.186  -4.399 123.651  0.00  0.00    +0.004 C 
ATOM     25  C   LIG A   1      -5.304  -3.716 123.935  0.00  0.00    -0.033 C 
ENDBRANCH  23  25
ENDBRANCH   1  23
TORSDOF 4
ENDMDL
MODEL 4
REMARK VINA RESULT:      -7.6      3.991      6.930
REMARK  Name = NuBBE_1849
REMARK  6 active torsions:
REMARK  status: ('A' for Active; 'I' for Inactive)
REMARK    1  A    between atoms: C_2  and  C_3
REMARK    2  A    between atoms: C_3  and  C_4
REMARK    3  A    between atoms: C_7  and  C_9
REMARK    4  A    between atoms: C_18  and  C_20
REMARK    5  A    between atoms: C_23  and  O_24
REMARK    6  A    between atoms: O_24  and  C_25
REMARK                            x       y       z     vdW  Elec       q    Type
REMARK                         _______ _______ _______ _____ _____    ______ ____
ROOT
ATOM      1  C   LIG A   1      -7.191  -2.402 129.180  0.00  0.00    +0.059 C 
ATOM      2  C   LIG A   1      -6.405  -1.356 128.442  0.00  0.00    +0.113 C 
ATOM      3  O   LIG A   1      -6.268  -1.630 127.089  0.00  0.00    -0.487 OA
ATOM      4  C   LIG A   1      -7.298  -2.607 126.780  0.00  0.00    +0.207 C 
ATOM      5  C   LIG A   1      -8.186  -2.710 128.044  0.00  0.00    +0.049 C 
ATOM      6  C   LIG A   1      -8.953  -4.021 128.187  0.00  0.00    +0.013 C 
ATOM      7  C   LIG A   1      -6.074  -0.162 128.944  0.00  0.00    +0.096 C 
ATOM      8  C   LIG A   1      -6.539   0.224 130.299  0.00  0.00    +0.223 C 
ATOM      9  C   LIG A   1      -7.621  -0.630 130.926  0.00  0.00    +0.164 C 
ATOM     10  C   LIG A   1      -7.890  -1.833 130.391  0.00  0.00    +0.038 C 
ATOM     11  O   LIG A   1      -6.087   1.228 130.822  0.00  0.00    -0.284 OA
ENDROOT
BRANCH   4  12
ATOM     12  C   LIG A   1      -8.010  -2.162 125.512  0.00  0.00    -0.003 A 
ATOM     13  C   LIG A   1      -8.349  -0.808 125.329  0.00  0.00    +0.056 A 
ATOM     14  C   LIG A   1      -9.027  -0.444 124.181  0.00  0.00    +0.167 A 
ATOM     15  C   LIG A   1      -9.381  -1.361 123.221  0.00  0.00    +0.166 A 
ATOM     16  O   LIG A   1     -10.043  -0.793 122.177  0.00  0.00    -0.453 OA
ATOM     17  C   LIG A   1     -10.058   0.591 122.586  0.00  0.00    +0.466 C 
ATOM     18  O   LIG A   1      -9.421   0.819 123.860  0.00  0.00    -0.453 OA
ATOM     19  C   LIG A   1      -9.075  -2.696 123.358  0.00  0.00    +0.050 A 
ATOM     20  C   LIG A   1      -8.389  -3.095 124.513  0.00  0.00    +0.011 A 
ENDBRANCH   4  12
BRANCH   9  21
ATOM     21  O   LIG A   1      -8.319  -0.244 132.062  0.00  0.00    -0.492 OA
ATOM     22  C   LIG A   1      -9.386   0.675 131.848  0.00  0.00    +0.277 C 
ENDBRANCH   9  21
BRANCH   1  23
ATOM     23  C   LIG A   1      -6.304  -3.626 129.589  0.00  0.00    +0.045 C 
BRANCH  23  25
ATOM     24  C   LIG A   1      -3.800  -3.666 129.236  0.00  0.00    +0.004 C 
ATOM     25  C   LIG A   1      -4.870  -3.321 129.964  0.00  0.00    -0.033 C 
ENDBRANCH  23  25
ENDBRANCH   1  23
TORSDOF 4
ENDMDL
MODEL 5
REMARK VINA RESULT:      -7.5      3.159      8.076
REMARK  Name = NuBBE_1849
REMARK  6 active torsions:
REMARK  status: ('A' for Active; 'I' for Inactive)
REMARK    1  A    between atoms: C_2  and  C_3
REMARK    2  A    between atoms: C_3  and  C_4
REMARK    3  A    between atoms: C_7  and  C_9
REMARK    4  A    between atoms: C_18  and  C_20
REMARK    5  A    between atoms: C_23  and  O_24
REMARK    6  A    between atoms: O_24  and  C_25
REMARK                            x       y       z     vdW  Elec       q    Type
REMARK                         _______ _______ _______ _____ _____    ______ ____
ROOT
ATOM      1  C   LIG A   1      -7.332  -0.742 124.379  0.00  0.00    +0.059 C 
ATOM      2  C   LIG A   1      -8.410  -0.545 125.408  0.00  0.00    +0.113 C 
ATOM      3  O   LIG A   1      -8.512  -1.604 126.299  0.00  0.00    -0.487 OA
ATOM      4  C   LIG A   1      -7.258  -2.329 126.191  0.00  0.00    +0.207 C 
ATOM      5  C   LIG A   1      -6.332  -1.461 125.305  0.00  0.00    +0.049 C 
ATOM      6  C   LIG A   1      -5.219  -2.224 124.594  0.00  0.00    +0.013 C 
ATOM      7  C   LIG A   1      -9.048   0.608 125.625  0.00  0.00    +0.096 C 
ATOM      8  C   LIG A   1      -8.664   1.822 124.862  0.00  0.00    +0.223 C 
ATOM      9  C   LIG A   1      -7.362   1.767 124.091  0.00  0.00    +0.164 C 
ATOM     10  C   LIG A   1      -6.781   0.573 123.882  0.00  0.00    +0.038 C 
ATOM     11  O   LIG A   1      -9.364   2.817 124.930  0.00  0.00    -0.284 OA
ENDROOT
BRANCH   4  12
ATOM     12  C   LIG A   1      -6.747  -2.609 127.597  0.00  0.00    -0.003 A 
ATOM     13  C   LIG A   1      -5.398  -2.370 127.919  0.00  0.00    +0.056 A 
ATOM     14  C   LIG A   1      -4.959  -2.668 129.196  0.00  0.00    +0.167 A 
ATOM     15  C   LIG A   1      -5.796  -3.191 130.151  0.00  0.00    +0.166 A 
ATOM     16  O   LIG A   1      -5.162  -3.412 131.334  0.00  0.00    -0.453 OA
ATOM     17  C   LIG A   1      -3.828  -2.960 131.016  0.00  0.00    +0.466 C 
ATOM     18  O   LIG A   1      -3.691  -2.493 129.658  0.00  0.00    -0.453 OA
ATOM     19  C   LIG A   1      -7.122  -3.445 129.882  0.00  0.00    +0.050 A 
ATOM     20  C   LIG A   1      -7.595  -3.153 128.595  0.00  0.00    +0.011 A 
ENDBRANCH   4  12
BRANCH   9  21
ATOM     21  O   LIG A   1      -6.762   2.895 123.549  0.00  0.00    -0.492 OA
ATOM     22  C   LIG A   1      -7.086   3.173 122.190  0.00  0.00    +0.277 C 
ENDBRANCH   9  21
BRANCH   1  23
ATOM     23  C   LIG A   1      -7.818  -1.618 123.176  0.00  0.00    +0.045 C 
BRANCH  23  25
ATOM     24  C   LIG A   1      -9.624  -3.371 123.432  0.00  0.00    +0.004 C 
ATOM     25  C   LIG A   1      -9.252  -2.099 123.231  0.00  0.00    -0.033 C 
ENDBRANCH  23  25
ENDBRANCH   1  23
TORSDOF 4
ENDMDL
MODEL 6
REMARK VINA RESULT:      -7.3      3.599      8.731
REMARK  Name = NuBBE_1849
REMARK  6 active torsions:
REMARK  status: ('A' for Active; 'I' for Inactive)
REMARK    1  A    between atoms: C_2  and  C_3
REMARK    2  A    between atoms: C_3  and  C_4
REMARK    3  A    between atoms: C_7  and  C_9
REMARK    4  A    between atoms: C_18  and  C_20
REMARK    5  A    between atoms: C_23  and  O_24
REMARK    6  A    between atoms: O_24  and  C_25
REMARK                            x       y       z     vdW  Elec       q    Type
REMARK                         _______ _______ _______ _____ _____    ______ ____
ROOT
ATOM      1  C   LIG A   1      -6.991  -1.967 125.609  0.00  0.00    +0.059 C 
ATOM      2  C   LIG A   1      -8.427  -1.919 126.051  0.00  0.00    +0.113 C 
ATOM      3  O   LIG A   1      -8.651  -2.579 127.251  0.00  0.00    -0.487 OA
ATOM      4  C   LIG A   1      -7.345  -2.711 127.875  0.00  0.00    +0.207 C 
ATOM      5  C   LIG A   1      -6.370  -1.870 127.016  0.00  0.00    +0.049 C 
ATOM      6  C   LIG A   1      -4.905  -2.285 127.111  0.00  0.00    +0.013 C 
ATOM      7  C   LIG A   1      -9.361  -1.132 125.509  0.00  0.00    +0.096 C 
ATOM      8  C   LIG A   1      -8.992  -0.181 124.431  0.00  0.00    +0.223 C 
ATOM      9  C   LIG A   1      -7.515   0.067 124.207  0.00  0.00    +0.164 C 
ATOM     10  C   LIG A   1      -6.624  -0.776 124.757  0.00  0.00    +0.038 C 
ATOM     11  O   LIG A   1      -9.872   0.398 123.818  0.00  0.00    -0.284 OA
ENDROOT
BRANCH   4  12
ATOM     12  C   LIG A   1      -7.469  -2.290 129.331  0.00  0.00    -0.003 A 
ATOM     13  C   LIG A   1      -7.209  -3.216 130.359  0.00  0.00    +0.056 A 
ATOM     14  C   LIG A   1      -7.365  -2.810 131.671  0.00  0.00    +0.167 A 
ATOM     15  C   LIG A   1      -7.767  -1.538 131.998  0.00  0.00    +0.166 A 
ATOM     16  O   LIG A   1      -7.859  -1.350 133.342  0.00  0.00    -0.453 OA
ATOM     17  C   LIG A   1      -7.460  -2.650 133.826  0.00  0.00    +0.466 C 
ATOM     18  O   LIG A   1      -7.152  -3.584 132.770  0.00  0.00    -0.453 OA
ATOM     19  C   LIG A   1      -8.036  -0.599 131.028  0.00  0.00    +0.050 A 
ATOM     20  C   LIG A   1      -7.888  -0.983 129.687  0.00  0.00    +0.011 A 
ENDBRANCH   4  12
BRANCH   9  21
ATOM     21  O   LIG A   1      -7.039   1.104 123.418  0.00  0.00    -0.492 OA
ATOM     22  C   LIG A   1      -6.844   2.348 124.083  0.00  0.00    +0.277 C 
ENDBRANCH   9  21
BRANCH   1  23
ATOM     23  C   LIG A   1      -6.649  -3.298 124.860  0.00  0.00    +0.045 C 
BRANCH  23  25
ATOM     24  C   LIG A   1      -4.533  -3.915 123.619  0.00  0.00    +0.004 C 
ATOM     25  C   LIG A   1      -5.657  -3.193 123.722  0.00  0.00    -0.033 C 
ENDBRANCH  23  25
ENDBRANCH   1  23
TORSDOF 4
ENDMDL
MODEL 7
REMARK VINA RESULT:      -7.2      3.374      5.012
REMARK  Name = NuBBE_1849
REMARK  6 active torsions:
REMARK  status: ('A' for Active; 'I' for Inactive)
REMARK    1  A    between atoms: C_2  and  C_3
REMARK    2  A    between atoms: C_3  and  C_4
REMARK    3  A    between atoms: C_7  and  C_9
REMARK    4  A    between atoms: C_18  and  C_20
REMARK    5  A    between atoms: C_23  and  O_24
REMARK    6  A    between atoms: O_24  and  C_25
REMARK                            x       y       z     vdW  Elec       q    Type
REMARK                         _______ _______ _______ _____ _____    ______ ____
ROOT
ATOM      1  C   LIG A   1      -8.251   0.647 125.415  0.00  0.00    +0.059 C 
ATOM      2  C   LIG A   1      -7.212   0.850 124.349  0.00  0.00    +0.113 C 
ATOM      3  O   LIG A   1      -6.638   2.113 124.382  0.00  0.00    -0.487 OA
ATOM      4  C   LIG A   1      -6.932   2.644 125.702  0.00  0.00    +0.207 C 
ATOM      5  C   LIG A   1      -7.549   1.476 126.508  0.00  0.00    +0.049 C 
ATOM      6  C   LIG A   1      -8.435   1.896 127.677  0.00  0.00    +0.013 C 
ATOM      7  C   LIG A   1      -6.694  -0.127 123.599  0.00  0.00    +0.096 C 
ATOM      8  C   LIG A   1      -7.102  -1.534 123.834  0.00  0.00    +0.223 C 
ATOM      9  C   LIG A   1      -7.855  -1.828 125.115  0.00  0.00    +0.164 C 
ATOM     10  C   LIG A   1      -8.375  -0.805 125.812  0.00  0.00    +0.038 C 
ATOM     11  O   LIG A   1      -6.771  -2.393 123.035  0.00  0.00    -0.284 OA
ENDROOT
BRANCH   4  12
ATOM     12  C   LIG A   1      -5.651   3.232 126.274  0.00  0.00    -0.003 A 
ATOM     13  C   LIG A   1      -5.627   4.564 126.731  0.00  0.00    +0.056 A 
ATOM     14  C   LIG A   1      -4.438   5.078 127.212  0.00  0.00    +0.167 A 
ATOM     15  C   LIG A   1      -3.285   4.332 127.255  0.00  0.00    +0.166 A 
ATOM     16  O   LIG A   1      -2.233   5.030 127.761  0.00  0.00    -0.453 OA
ATOM     17  C   LIG A   1      -2.857   6.300 128.040  0.00  0.00    +0.466 C 
ATOM     18  O   LIG A   1      -4.256   6.340 127.688  0.00  0.00    -0.453 OA
ATOM     19  C   LIG A   1      -3.258   3.027 126.817  0.00  0.00    +0.050 A 
ATOM     20  C   LIG A   1      -4.450   2.479 126.321  0.00  0.00    +0.011 A 
ENDBRANCH   4  12
BRANCH   9  21
ATOM     21  O   LIG A   1      -8.072  -3.118 125.579  0.00  0.00    -0.492 OA
ATOM     22  C   LIG A   1      -9.326  -3.342 126.216  0.00  0.00    +0.277 C 
ENDBRANCH   9  21
BRANCH   1  23
ATOM     23  C   LIG A   1      -9.647   1.216 124.993  0.00  0.00    +0.045 C 
BRANCH  23  25
ATOM     24  C   LIG A   1     -10.292   0.575 122.632  0.00  0.00    +0.004 C 
ATOM     25  C   LIG A   1      -9.847   1.479 123.516  0.00  0.00    -0.033 C 
ENDBRANCH  23  25
ENDBRANCH   1  23
TORSDOF 4
ENDMDL
MODEL 8
REMARK VINA RESULT:      -7.1      5.041      8.387
REMARK  Name = NuBBE_1849
REMARK  6 active torsions:
REMARK  status: ('A' for Active; 'I' for Inactive)
REMARK    1  A    between atoms: C_2  and  C_3
REMARK    2  A    between atoms: C_3  and  C_4
REMARK    3  A    between atoms: C_7  and  C_9
REMARK    4  A    between atoms: C_18  and  C_20
REMARK    5  A    between atoms: C_23  and  O_24
REMARK    6  A    between atoms: O_24  and  C_25
REMARK                            x       y       z     vdW  Elec       q    Type
REMARK                         _______ _______ _______ _____ _____    ______ ____
ROOT
ATOM      1  C   LIG A   1      -6.543  -2.197 131.176  0.00  0.00    +0.059 C 
ATOM      2  C   LIG A   1      -6.221  -3.561 130.635  0.00  0.00    +0.113 C 
ATOM      3  O   LIG A   1      -7.119  -3.990 129.668  0.00  0.00    -0.487 OA
ATOM      4  C   LIG A   1      -7.801  -2.793 129.208  0.00  0.00    +0.207 C 
ATOM      5  C   LIG A   1      -7.057  -1.599 129.852  0.00  0.00    +0.049 C 
ATOM      6  C   LIG A   1      -7.883  -0.323 129.991  0.00  0.00    +0.013 C 
ATOM      7  C   LIG A   1      -5.075  -4.212 130.853  0.00  0.00    +0.096 C 
ATOM      8  C   LIG A   1      -3.991  -3.560 131.631  0.00  0.00    +0.223 C 
ATOM      9  C   LIG A   1      -4.122  -2.072 131.880  0.00  0.00    +0.164 C 
ATOM     10  C   LIG A   1      -5.309  -1.479 131.668  0.00  0.00    +0.038 C 
ATOM     11  O   LIG A   1      -3.028  -4.219 131.981  0.00  0.00    -0.284 OA
ENDROOT
BRANCH   4  12
ATOM     12  C   LIG A   1      -7.821  -2.811 127.687  0.00  0.00    -0.003 A 
ATOM     13  C   LIG A   1      -6.730  -2.297 126.960  0.00  0.00    +0.056 A 
ATOM     14  C   LIG A   1      -6.796  -2.296 125.579  0.00  0.00    +0.167 A 
ATOM     15  C   LIG A   1      -7.890  -2.777 124.901  0.00  0.00    +0.166 A 
ATOM     16  O   LIG A   1      -7.748  -2.681 123.551  0.00  0.00    -0.453 OA
ATOM     17  C   LIG A   1      -6.435  -2.090 123.456  0.00  0.00    +0.466 C 
ATOM     18  O   LIG A   1      -5.828  -1.837 124.740  0.00  0.00    -0.453 OA
ATOM     19  C   LIG A   1      -8.980  -3.286 125.568  0.00  0.00    +0.050 A 
ATOM     20  C   LIG A   1      -8.943  -3.299 126.970  0.00  0.00    +0.011 A 
ENDBRANCH   4  12
BRANCH   9  21
ATOM     21  O   LIG A   1      -3.077  -1.297 132.365  0.00  0.00    -0.492 OA
ATOM     22  C   LIG A   1      -3.457  -0.140 133.102  0.00  0.00    +0.277 C 
ENDBRANCH   9  21
BRANCH   1  23
ATOM     23  C   LIG A   1      -7.627  -2.250 132.305  0.00  0.00    +0.045 C 
BRANCH  23  25
ATOM     24  C   LIG A   1      -8.263  -3.513 134.403  0.00  0.00    +0.004 C 
ATOM     25  C   LIG A   1      -7.414  -3.282 133.391  0.00  0.00    -0.033 C 
ENDBRANCH  23  25
ENDBRANCH   1  23
TORSDOF 4
ENDMDL
MODEL 9
REMARK VINA RESULT:      -7.0      5.126      8.973
REMARK  Name = NuBBE_1849
REMARK  6 active torsions:
REMARK  status: ('A' for Active; 'I' for Inactive)
REMARK    1  A    between atoms: C_2  and  C_3
REMARK    2  A    between atoms: C_3  and  C_4
REMARK    3  A    between atoms: C_7  and  C_9
REMARK    4  A    between atoms: C_18  and  C_20
REMARK    5  A    between atoms: C_23  and  O_24
REMARK    6  A    between atoms: O_24  and  C_25
REMARK                            x       y       z     vdW  Elec       q    Type
REMARK                         _______ _______ _______ _____ _____    ______ ____
ROOT
ATOM      1  C   LIG A   1      -8.569   3.630 131.802  0.00  0.00    +0.059 C 
ATOM      2  C   LIG A   1      -7.552   4.066 130.785  0.00  0.00    +0.113 C 
ATOM      3  O   LIG A   1      -6.925   3.004 130.150  0.00  0.00    -0.487 OA
ATOM      4  C   LIG A   1      -7.778   1.851 130.380  0.00  0.00    +0.207 C 
ATOM      5  C   LIG A   1      -9.073   2.396 131.028  0.00  0.00    +0.049 C 
ATOM      6  C   LIG A   1      -9.855   1.382 131.859  0.00  0.00    +0.013 C 
ATOM      7  C   LIG A   1      -7.417   5.318 130.337  0.00  0.00    +0.096 C 
ATOM      8  C   LIG A   1      -8.348   6.375 130.805  0.00  0.00    +0.223 C 
ATOM      9  C   LIG A   1      -9.595   5.921 131.533  0.00  0.00    +0.164 C 
ATOM     10  C   LIG A   1      -9.661   4.657 131.983  0.00  0.00    +0.038 C 
ATOM     11  O   LIG A   1      -8.110   7.541 130.540  0.00  0.00    -0.284 OA
ENDROOT
BRANCH   4  12
ATOM     12  C   LIG A   1      -7.963   1.124 129.056  0.00  0.00    -0.003 A 
ATOM     13  C   LIG A   1      -8.574   1.778 127.970  0.00  0.00    +0.056 A 
ATOM     14  C   LIG A   1      -8.758   1.078 126.793  0.00  0.00    +0.167 A 
ATOM     15  C   LIG A   1      -8.367  -0.232 126.655  0.00  0.00    +0.166 A 
ATOM     16  O   LIG A   1      -8.644  -0.731 125.420  0.00  0.00    -0.453 OA
ATOM     17  C   LIG A   1      -9.247   0.419 124.791  0.00  0.00    +0.466 C 
ATOM     18  O   LIG A   1      -9.330   1.569 125.659  0.00  0.00    -0.453 OA
ATOM     19  C   LIG A   1      -7.769  -0.915 127.690  0.00  0.00    +0.050 A 
ATOM     20  C   LIG A   1      -7.571  -0.229 128.897  0.00  0.00    +0.011 A 
ENDBRANCH   4  12
BRANCH   9  21
ATOM     21  O   LIG A   1     -10.661   6.770 131.799  0.00  0.00    -0.492 OA
ATOM     22  C   LIG A   1     -11.610   6.917 130.747  0.00  0.00    +0.277 C 
ENDBRANCH   9  21
BRANCH   1  23
ATOM     23  C   LIG A   1      -7.912   3.284 133.180  0.00  0.00    +0.045 C 
BRANCH  23  25
ATOM     24  C   LIG A   1      -7.767   4.894 135.126  0.00  0.00    +0.004 C 
ATOM     25  C   LIG A   1      -8.459   4.016 134.387  0.00  0.00    -0.033 C 
ENDBRANCH  23  25
ENDBRANCH   1  23
TORSDOF 4
ENDMDL
