MODEL 1
REMARK VINA RESULT:      -8.1      0.000      0.000
REMARK  Name = NuBBE_1778
REMARK  11 active torsions:
REMARK  status: ('A' for Active; 'I' for Inactive)
REMARK    1  A    between atoms: O_1  and  C_2
REMARK    2  A    between atoms: C_4  and  C_10
REMARK    3  A    between atoms: C_6  and  C_7
REMARK    4  A    between atoms: C_15  and  O_16
REMARK    5  A    between atoms: C_18  and  O_19
REMARK    6  A    between atoms: O_19  and  C_20
REMARK    7  A    between atoms: C_22  and  O_24
REMARK    8  A    between atoms: C_25  and  O_27
REMARK    9  A    between atoms: C_28  and  O_30
REMARK   10  A    between atoms: C_31  and  C_33
REMARK   11  A    between atoms: C_33  and  O_34
REMARK                            x       y       z     vdW  Elec       q    Type
REMARK                         _______ _______ _______ _____ _____    ______ ____
ROOT
ATOM      1  C   LIG A   1      -5.900   1.867 126.518  0.00  0.00    +0.134 A 
ATOM      2  C   LIG A   1      -5.240   2.725 127.415  0.00  0.00    +0.034 A 
ATOM      3  C   LIG A   1      -4.846   2.270 128.801  0.00  0.00    +0.150 C 
ATOM      4  O   LIG A   1      -3.811   3.098 129.355  0.00  0.00    -0.361 OA
ATOM      5  C   LIG A   1      -4.107   4.488 129.342  0.00  0.00    +0.187 C 
ATOM      6  C   LIG A   1      -2.923   5.214 129.964  0.00  0.00    +0.046 C 
ATOM      7  C   LIG A   1      -4.366   4.999 127.928  0.00  0.00    +0.192 C 
ATOM      8  O   LIG A   1      -4.187   6.161 127.581  0.00  0.00    -0.289 OA
ATOM      9  C   LIG A   1      -6.023   2.162 129.769  0.00  0.00    +0.043 C 
ATOM     10  C   LIG A   1      -4.956   4.021 126.985  0.00  0.00    +0.030 A 
ATOM     11  C   LIG A   1      -5.247   4.422 125.676  0.00  0.00    +0.021 A 
ATOM     12  C   LIG A   1      -5.857   3.544 124.767  0.00  0.00    -0.007 A 
ATOM     13  C   LIG A   1      -6.098   3.975 123.454  0.00  0.00    +0.054 A 
ATOM     14  C   LIG A   1      -6.705   3.128 122.541  0.00  0.00    +0.121 A 
ATOM     15  C   LIG A   1      -7.115   1.859 122.914  0.00  0.00    +0.091 A 
ATOM     16  C   LIG A   1      -6.919   1.419 124.225  0.00  0.00    +0.139 A 
ATOM     17  C   LIG A   1      -6.236   2.242 125.179  0.00  0.00    +0.066 A 
ENDROOT
BRANCH   1  18
ATOM     18  O   LIG A   1      -6.205   0.613 126.997  0.00  0.00    -0.506 OA
ATOM     19  H   LIG A   1      -5.656  -0.025 126.501  0.00  0.00    +0.292 HD
ENDBRANCH   1  18
BRANCH  14  20
ATOM     20  O   LIG A   1      -6.944   3.513 121.255  0.00  0.00    -0.507 OA
ATOM     21  H   LIG A   1      -7.347   2.775 120.770  0.00  0.00    +0.292 HD
ENDBRANCH  14  20
BRANCH  16  22
ATOM     22  O   LIG A   1      -7.415   0.228 124.702  0.00  0.00    -0.460 OA
BRANCH  22  23
ATOM     23  C   LIG A   1      -8.782  -0.133 124.438  0.00  0.00    +0.339 C 
ATOM     24  C   LIG A   1      -8.887  -0.627 122.978  0.00  0.00    +0.214 C 
ATOM     25  C   LIG A   1      -8.236  -2.013 122.828  0.00  0.00    +0.180 C 
ATOM     26  C   LIG A   1      -8.813  -2.998 123.858  0.00  0.00    +0.177 C 
ATOM     27  C   LIG A   1      -8.830  -2.425 125.287  0.00  0.00    +0.179 C 
ATOM     28  O   LIG A   1      -9.347  -1.091 125.342  0.00  0.00    -0.331 OA
BRANCH  24  29
ATOM     29  O   LIG A   1     -10.257  -0.672 122.552  0.00  0.00    -0.383 OA
ATOM     30  H   LIG A   1     -10.479  -1.619 122.411  0.00  0.00    +0.210 HD
ENDBRANCH  24  29
BRANCH  25  31
ATOM     31  O   LIG A   1      -6.815  -1.926 122.946  0.00  0.00    -0.386 OA
ATOM     32  H   LIG A   1      -6.591  -0.980 123.022  0.00  0.00    +0.210 HD
ENDBRANCH  25  31
BRANCH  26  33
ATOM     33  O   LIG A   1     -10.175  -3.276 123.466  0.00  0.00    -0.387 OA
ATOM     34  H   LIG A   1     -10.464  -2.520 122.919  0.00  0.00    +0.210 HD
ENDBRANCH  26  33
BRANCH  27  35
ATOM     35  C   LIG A   1      -7.504  -2.585 126.038  0.00  0.00    +0.190 C 
BRANCH  35  36
ATOM     36  O   LIG A   1      -7.509  -1.784 127.218  0.00  0.00    -0.392 OA
ATOM     37  H   LIG A   1      -6.757  -2.080 127.760  0.00  0.00    +0.209 HD
ENDBRANCH  35  36
ENDBRANCH  27  35
ENDBRANCH  22  23
ENDBRANCH  16  22
TORSDOF 9
ENDMDL
MODEL 2
REMARK VINA RESULT:      -8.1      1.408      2.087
REMARK  Name = NuBBE_1778
REMARK  11 active torsions:
REMARK  status: ('A' for Active; 'I' for Inactive)
REMARK    1  A    between atoms: O_1  and  C_2
REMARK    2  A    between atoms: C_4  and  C_10
REMARK    3  A    between atoms: C_6  and  C_7
REMARK    4  A    between atoms: C_15  and  O_16
REMARK    5  A    between atoms: C_18  and  O_19
REMARK    6  A    between atoms: O_19  and  C_20
REMARK    7  A    between atoms: C_22  and  O_24
REMARK    8  A    between atoms: C_25  and  O_27
REMARK    9  A    between atoms: C_28  and  O_30
REMARK   10  A    between atoms: C_31  and  C_33
REMARK   11  A    between atoms: C_33  and  O_34
REMARK                            x       y       z     vdW  Elec       q    Type
REMARK                         _______ _______ _______ _____ _____    ______ ____
ROOT
ATOM      1  C   LIG A   1      -5.060   2.169 126.312  0.00  0.00    +0.134 A 
ATOM      2  C   LIG A   1      -4.381   3.147 127.060  0.00  0.00    +0.034 A 
ATOM      3  C   LIG A   1      -3.379   2.774 128.128  0.00  0.00    +0.150 C 
ATOM      4  O   LIG A   1      -2.491   3.863 128.424  0.00  0.00    -0.361 OA
ATOM      5  C   LIG A   1      -3.150   5.080 128.750  0.00  0.00    +0.187 C 
ATOM      6  C   LIG A   1      -2.077   6.118 129.041  0.00  0.00    +0.046 C 
ATOM      7  C   LIG A   1      -4.060   5.552 127.620  0.00  0.00    +0.192 C 
ATOM      8  O   LIG A   1      -4.362   6.725 127.434  0.00  0.00    -0.289 OA
ATOM      9  C   LIG A   1      -4.018   2.237 129.408  0.00  0.00    +0.043 C 
ATOM     10  C   LIG A   1      -4.661   4.485 126.785  0.00  0.00    +0.030 A 
ATOM     11  C   LIG A   1      -5.527   4.838 125.744  0.00  0.00    +0.021 A 
ATOM     12  C   LIG A   1      -6.161   3.859 124.965  0.00  0.00    -0.007 A 
ATOM     13  C   LIG A   1      -6.994   4.256 123.908  0.00  0.00    +0.054 A 
ATOM     14  C   LIG A   1      -7.636   3.305 123.129  0.00  0.00    +0.121 A 
ATOM     15  C   LIG A   1      -7.496   1.955 123.399  0.00  0.00    +0.091 A 
ATOM     16  C   LIG A   1      -6.701   1.535 124.468  0.00  0.00    +0.139 A 
ATOM     17  C   LIG A   1      -5.970   2.484 125.254  0.00  0.00    +0.066 A 
ENDROOT
BRANCH   1  18
ATOM     18  O   LIG A   1      -4.792   0.861 126.647  0.00  0.00    -0.506 OA
ATOM     19  H   LIG A   1      -5.603   0.497 127.054  0.00  0.00    +0.292 HD
ENDBRANCH   1  18
BRANCH  14  20
ATOM     20  O   LIG A   1      -8.443   3.659 122.089  0.00  0.00    -0.507 OA
ATOM     21  H   LIG A   1      -8.048   4.413 121.621  0.00  0.00    +0.292 HD
ENDBRANCH  14  20
BRANCH  16  22
ATOM     22  O   LIG A   1      -6.621   0.224 124.878  0.00  0.00    -0.460 OA
BRANCH  22  23
ATOM     23  C   LIG A   1      -6.676  -0.833 123.904  0.00  0.00    +0.339 C 
ATOM     24  C   LIG A   1      -5.633  -1.909 124.285  0.00  0.00    +0.214 C 
ATOM     25  C   LIG A   1      -6.096  -2.695 125.523  0.00  0.00    +0.180 C 
ATOM     26  C   LIG A   1      -7.513  -3.253 125.314  0.00  0.00    +0.177 C 
ATOM     27  C   LIG A   1      -8.502  -2.193 124.796  0.00  0.00    +0.179 C 
ATOM     28  O   LIG A   1      -7.969  -1.422 123.713  0.00  0.00    -0.331 OA
BRANCH  24  29
ATOM     29  O   LIG A   1      -5.398  -2.802 123.186  0.00  0.00    -0.383 OA
ATOM     30  H   LIG A   1      -5.096  -3.654 123.574  0.00  0.00    +0.210 HD
ENDBRANCH  24  29
BRANCH  25  31
ATOM     31  O   LIG A   1      -6.036  -1.882 126.697  0.00  0.00    -0.386 OA
ATOM     32  H   LIG A   1      -6.792  -2.135 127.259  0.00  0.00    +0.210 HD
ENDBRANCH  25  31
BRANCH  26  33
ATOM     33  O   LIG A   1      -7.416  -4.303 124.326  0.00  0.00    -0.387 OA
ATOM     34  H   LIG A   1      -7.284  -5.134 124.820  0.00  0.00    +0.210 HD
ENDBRANCH  26  33
BRANCH  27  35
ATOM     35  C   LIG A   1      -9.122  -1.328 125.898  0.00  0.00    +0.190 C 
BRANCH  35  36
ATOM     36  O   LIG A   1      -9.739  -0.175 125.328  0.00  0.00    -0.392 OA
ATOM     37  H   LIG A   1      -9.375  -0.081 124.430  0.00  0.00    +0.209 HD
ENDBRANCH  35  36
ENDBRANCH  27  35
ENDBRANCH  22  23
ENDBRANCH  16  22
TORSDOF 9
ENDMDL
MODEL 3
REMARK VINA RESULT:      -7.8      2.873      6.193
REMARK  Name = NuBBE_1778
REMARK  11 active torsions:
REMARK  status: ('A' for Active; 'I' for Inactive)
REMARK    1  A    between atoms: O_1  and  C_2
REMARK    2  A    between atoms: C_4  and  C_10
REMARK    3  A    between atoms: C_6  and  C_7
REMARK    4  A    between atoms: C_15  and  O_16
REMARK    5  A    between atoms: C_18  and  O_19
REMARK    6  A    between atoms: O_19  and  C_20
REMARK    7  A    between atoms: C_22  and  O_24
REMARK    8  A    between atoms: C_25  and  O_27
REMARK    9  A    between atoms: C_28  and  O_30
REMARK   10  A    between atoms: C_31  and  C_33
REMARK   11  A    between atoms: C_33  and  O_34
REMARK                            x       y       z     vdW  Elec       q    Type
REMARK                         _______ _______ _______ _____ _____    ______ ____
ROOT
ATOM      1  C   LIG A   1      -7.261  -0.280 128.496  0.00  0.00    +0.134 A 
ATOM      2  C   LIG A   1      -6.809  -0.992 129.623  0.00  0.00    +0.034 A 
ATOM      3  C   LIG A   1      -6.221  -0.285 130.822  0.00  0.00    +0.150 C 
ATOM      4  O   LIG A   1      -6.265  -1.112 131.996  0.00  0.00    -0.361 OA
ATOM      5  C   LIG A   1      -5.679  -2.396 131.826  0.00  0.00    +0.187 C 
ATOM      6  C   LIG A   1      -5.800  -3.133 133.152  0.00  0.00    +0.046 C 
ATOM      7  C   LIG A   1      -6.358  -3.185 130.711  0.00  0.00    +0.192 C 
ATOM      8  O   LIG A   1      -6.384  -4.409 130.661  0.00  0.00    -0.289 OA
ATOM      9  C   LIG A   1      -4.807   0.245 130.589  0.00  0.00    +0.043 C 
ATOM     10  C   LIG A   1      -6.922  -2.381 129.601  0.00  0.00    +0.030 A 
ATOM     11  C   LIG A   1      -7.539  -3.035 128.528  0.00  0.00    +0.021 A 
ATOM     12  C   LIG A   1      -8.035  -2.316 127.431  0.00  0.00    -0.007 A 
ATOM     13  C   LIG A   1      -8.678  -3.007 126.393  0.00  0.00    +0.054 A 
ATOM     14  C   LIG A   1      -9.172  -2.318 125.295  0.00  0.00    +0.121 A 
ATOM     15  C   LIG A   1      -9.010  -0.948 125.186  0.00  0.00    +0.091 A 
ATOM     16  C   LIG A   1      -8.342  -0.241 126.189  0.00  0.00    +0.139 A 
ATOM     17  C   LIG A   1      -7.876  -0.909 127.368  0.00  0.00    +0.066 A 
ENDROOT
BRANCH   1  18
ATOM     18  O   LIG A   1      -7.087   1.084 128.537  0.00  0.00    -0.506 OA
ATOM     19  H   LIG A   1      -6.596   1.287 129.358  0.00  0.00    +0.292 HD
ENDBRANCH   1  18
BRANCH  14  20
ATOM     20  O   LIG A   1      -9.810  -2.960 124.276  0.00  0.00    -0.507 OA
ATOM     21  H   LIG A   1     -10.731  -2.654 124.233  0.00  0.00    +0.292 HD
ENDBRANCH  14  20
BRANCH  16  22
ATOM     22  O   LIG A   1      -8.028   1.094 126.088  0.00  0.00    -0.460 OA
BRANCH  22  23
ATOM     23  C   LIG A   1      -7.806   1.681 124.794  0.00  0.00    +0.339 C 
ATOM     24  C   LIG A   1      -8.568   3.023 124.724  0.00  0.00    +0.214 C 
ATOM     25  C   LIG A   1      -7.873   4.084 125.593  0.00  0.00    +0.180 C 
ATOM     26  C   LIG A   1      -6.385   4.197 125.227  0.00  0.00    +0.177 C 
ATOM     27  C   LIG A   1      -5.680   2.830 125.162  0.00  0.00    +0.179 C 
ATOM     28  O   LIG A   1      -6.431   1.855 124.430  0.00  0.00    -0.331 OA
BRANCH  24  29
ATOM     29  O   LIG A   1      -8.671   3.480 123.367  0.00  0.00    -0.383 OA
ATOM     30  H   LIG A   1      -8.396   4.424 123.365  0.00  0.00    +0.210 HD
ENDBRANCH  24  29
BRANCH  25  31
ATOM     31  O   LIG A   1      -8.035   3.793 126.983  0.00  0.00    -0.386 OA
ATOM     32  H   LIG A   1      -8.717   3.099 127.053  0.00  0.00    +0.210 HD
ENDBRANCH  25  31
BRANCH  26  33
ATOM     33  O   LIG A   1      -6.313   4.805 123.919  0.00  0.00    -0.387 OA
ATOM     34  H   LIG A   1      -5.369   4.809 123.668  0.00  0.00    +0.210 HD
ENDBRANCH  26  33
BRANCH  27  35
ATOM     35  C   LIG A   1      -5.194   2.315 126.522  0.00  0.00    +0.190 C 
BRANCH  35  36
ATOM     36  O   LIG A   1      -4.834   0.938 126.423  0.00  0.00    -0.392 OA
ATOM     37  H   LIG A   1      -4.188   0.871 125.699  0.00  0.00    +0.209 HD
ENDBRANCH  35  36
ENDBRANCH  27  35
ENDBRANCH  22  23
ENDBRANCH  16  22
TORSDOF 9
ENDMDL
MODEL 4
REMARK VINA RESULT:      -7.8      1.566      7.248
REMARK  Name = NuBBE_1778
REMARK  11 active torsions:
REMARK  status: ('A' for Active; 'I' for Inactive)
REMARK    1  A    between atoms: O_1  and  C_2
REMARK    2  A    between atoms: C_4  and  C_10
REMARK    3  A    between atoms: C_6  and  C_7
REMARK    4  A    between atoms: C_15  and  O_16
REMARK    5  A    between atoms: C_18  and  O_19
REMARK    6  A    between atoms: O_19  and  C_20
REMARK    7  A    between atoms: C_22  and  O_24
REMARK    8  A    between atoms: C_25  and  O_27
REMARK    9  A    between atoms: C_28  and  O_30
REMARK   10  A    between atoms: C_31  and  C_33
REMARK   11  A    between atoms: C_33  and  O_34
REMARK                            x       y       z     vdW  Elec       q    Type
REMARK                         _______ _______ _______ _____ _____    ______ ____
ROOT
ATOM      1  C   LIG A   1      -6.951   0.952 125.762  0.00  0.00    +0.134 A 
ATOM      2  C   LIG A   1      -7.527  -0.244 125.298  0.00  0.00    +0.034 A 
ATOM      3  C   LIG A   1      -8.025  -1.306 126.252  0.00  0.00    +0.150 C 
ATOM      4  O   LIG A   1      -8.966  -2.187 125.617  0.00  0.00    -0.361 OA
ATOM      5  C   LIG A   1      -8.494  -2.770 124.410  0.00  0.00    +0.187 C 
ATOM      6  C   LIG A   1      -9.597  -3.673 123.877  0.00  0.00    +0.046 C 
ATOM      7  C   LIG A   1      -8.122  -1.712 123.376  0.00  0.00    +0.192 C 
ATOM      8  O   LIG A   1      -8.140  -1.905 122.166  0.00  0.00    -0.289 OA
ATOM      9  C   LIG A   1      -6.906  -2.103 126.920  0.00  0.00    +0.043 C 
ATOM     10  C   LIG A   1      -7.628  -0.424 123.919  0.00  0.00    +0.030 A 
ATOM     11  C   LIG A   1      -7.243   0.589 123.033  0.00  0.00    +0.021 A 
ATOM     12  C   LIG A   1      -6.718   1.802 123.503  0.00  0.00    -0.007 A 
ATOM     13  C   LIG A   1      -6.377   2.804 122.582  0.00  0.00    +0.054 A 
ATOM     14  C   LIG A   1      -5.851   4.008 123.023  0.00  0.00    +0.121 A 
ATOM     15  C   LIG A   1      -5.619   4.231 124.370  0.00  0.00    +0.091 A 
ATOM     16  C   LIG A   1      -5.916   3.236 125.303  0.00  0.00    +0.139 A 
ATOM     17  C   LIG A   1      -6.522   2.004 124.892  0.00  0.00    +0.066 A 
ENDROOT
BRANCH   1  18
ATOM     18  O   LIG A   1      -6.825   1.069 127.128  0.00  0.00    -0.506 OA
ATOM     19  H   LIG A   1      -7.728   1.052 127.501  0.00  0.00    +0.292 HD
ENDBRANCH   1  18
BRANCH  14  20
ATOM     20  O   LIG A   1      -5.520   5.005 122.154  0.00  0.00    -0.507 OA
ATOM     21  H   LIG A   1      -6.311   5.273 121.659  0.00  0.00    +0.292 HD
ENDBRANCH  14  20
BRANCH  16  22
ATOM     22  O   LIG A   1      -5.593   3.333 126.637  0.00  0.00    -0.460 OA
BRANCH  22  23
ATOM     23  C   LIG A   1      -5.174   4.596 127.180  0.00  0.00    +0.339 C 
ATOM     24  C   LIG A   1      -5.399   4.575 128.709  0.00  0.00    +0.214 C 
ATOM     25  C   LIG A   1      -4.367   3.662 129.393  0.00  0.00    +0.180 C 
ATOM     26  C   LIG A   1      -2.939   4.055 128.983  0.00  0.00    +0.177 C 
ATOM     27  C   LIG A   1      -2.777   4.212 127.460  0.00  0.00    +0.179 C 
ATOM     28  O   LIG A   1      -3.830   4.981 126.868  0.00  0.00    -0.331 OA
BRANCH  24  29
ATOM     29  O   LIG A   1      -5.331   5.901 129.253  0.00  0.00    -0.383 OA
ATOM     30  H   LIG A   1      -5.245   6.516 128.491  0.00  0.00    +0.210 HD
ENDBRANCH  24  29
BRANCH  25  31
ATOM     31  O   LIG A   1      -4.623   2.288 129.097  0.00  0.00    -0.386 OA
ATOM     32  H   LIG A   1      -4.401   1.776 129.898  0.00  0.00    +0.210 HD
ENDBRANCH  25  31
BRANCH  26  33
ATOM     33  O   LIG A   1      -2.652   5.328 129.602  0.00  0.00    -0.387 OA
ATOM     34  H   LIG A   1      -3.079   6.008 129.045  0.00  0.00    +0.210 HD
ENDBRANCH  26  33
BRANCH  27  35
ATOM     35  C   LIG A   1      -2.510   2.895 126.723  0.00  0.00    +0.190 C 
BRANCH  35  36
ATOM     36  O   LIG A   1      -1.141   2.520 126.870  0.00  0.00    -0.392 OA
ATOM     37  H   LIG A   1      -0.624   3.130 126.315  0.00  0.00    +0.209 HD
ENDBRANCH  35  36
ENDBRANCH  27  35
ENDBRANCH  22  23
ENDBRANCH  16  22
TORSDOF 9
ENDMDL
MODEL 5
REMARK VINA RESULT:      -7.7      2.052      7.196
REMARK  Name = NuBBE_1778
REMARK  11 active torsions:
REMARK  status: ('A' for Active; 'I' for Inactive)
REMARK    1  A    between atoms: O_1  and  C_2
REMARK    2  A    between atoms: C_4  and  C_10
REMARK    3  A    between atoms: C_6  and  C_7
REMARK    4  A    between atoms: C_15  and  O_16
REMARK    5  A    between atoms: C_18  and  O_19
REMARK    6  A    between atoms: O_19  and  C_20
REMARK    7  A    between atoms: C_22  and  O_24
REMARK    8  A    between atoms: C_25  and  O_27
REMARK    9  A    between atoms: C_28  and  O_30
REMARK   10  A    between atoms: C_31  and  C_33
REMARK   11  A    between atoms: C_33  and  O_34
REMARK                            x       y       z     vdW  Elec       q    Type
REMARK                         _______ _______ _______ _____ _____    ______ ____
ROOT
ATOM      1  C   LIG A   1      -6.859   0.425 127.256  0.00  0.00    +0.134 A 
ATOM      2  C   LIG A   1      -7.493  -0.820 127.417  0.00  0.00    +0.034 A 
ATOM      3  C   LIG A   1      -7.218  -1.700 128.614  0.00  0.00    +0.150 C 
ATOM      4  O   LIG A   1      -8.270  -2.656 128.820  0.00  0.00    -0.361 OA
ATOM      5  C   LIG A   1      -8.577  -3.439 127.674  0.00  0.00    +0.187 C 
ATOM      6  C   LIG A   1      -9.695  -4.397 128.061  0.00  0.00    +0.046 C 
ATOM      7  C   LIG A   1      -9.000  -2.573 126.492  0.00  0.00    +0.192 C 
ATOM      8  O   LIG A   1      -9.729  -2.963 125.588  0.00  0.00    -0.289 OA
ATOM      9  C   LIG A   1      -5.860  -2.397 128.565  0.00  0.00    +0.043 C 
ATOM     10  C   LIG A   1      -8.392  -1.223 126.430  0.00  0.00    +0.030 A 
ATOM     11  C   LIG A   1      -8.710  -0.378 125.360  0.00  0.00    +0.021 A 
ATOM     12  C   LIG A   1      -8.114   0.886 125.233  0.00  0.00    -0.007 A 
ATOM     13  C   LIG A   1      -8.488   1.716 124.166  0.00  0.00    +0.054 A 
ATOM     14  C   LIG A   1      -7.909   2.966 124.017  0.00  0.00    +0.121 A 
ATOM     15  C   LIG A   1      -6.930   3.404 124.892  0.00  0.00    +0.091 A 
ATOM     16  C   LIG A   1      -6.514   2.582 125.942  0.00  0.00    +0.139 A 
ATOM     17  C   LIG A   1      -7.137   1.310 126.167  0.00  0.00    +0.066 A 
ENDROOT
BRANCH   1  18
ATOM     18  O   LIG A   1      -5.943   0.764 128.226  0.00  0.00    -0.506 OA
ATOM     19  H   LIG A   1      -6.133   1.685 128.490  0.00  0.00    +0.292 HD
ENDBRANCH   1  18
BRANCH  14  20
ATOM     20  O   LIG A   1      -8.258   3.800 122.996  0.00  0.00    -0.507 OA
ATOM     21  H   LIG A   1      -8.854   3.330 122.390  0.00  0.00    +0.292 HD
ENDBRANCH  14  20
BRANCH  16  22
ATOM     22  O   LIG A   1      -5.459   2.891 126.770  0.00  0.00    -0.460 OA
BRANCH  22  23
ATOM     23  C   LIG A   1      -5.273   4.247 127.212  0.00  0.00    +0.339 C 
ATOM     24  C   LIG A   1      -5.200   4.256 128.756  0.00  0.00    +0.214 C 
ATOM     25  C   LIG A   1      -3.867   3.658 129.237  0.00  0.00    +0.180 C 
ATOM     26  C   LIG A   1      -2.681   4.359 128.557  0.00  0.00    +0.177 C 
ATOM     27  C   LIG A   1      -2.845   4.467 127.029  0.00  0.00    +0.179 C 
ATOM     28  O   LIG A   1      -4.146   4.926 126.644  0.00  0.00    -0.331 OA
BRANCH  24  29
ATOM     29  O   LIG A   1      -5.362   5.587 129.266  0.00  0.00    -0.383 OA
ATOM     30  H   LIG A   1      -4.493   5.854 129.641  0.00  0.00    +0.210 HD
ENDBRANCH  24  29
BRANCH  25  31
ATOM     31  O   LIG A   1      -3.826   2.248 129.006  0.00  0.00    -0.386 OA
ATOM     32  H   LIG A   1      -4.538   2.041 128.372  0.00  0.00    +0.210 HD
ENDBRANCH  25  31
BRANCH  26  33
ATOM     33  O   LIG A   1      -2.608   5.696 129.099  0.00  0.00    -0.387 OA
ATOM     34  H   LIG A   1      -3.530   5.996 129.217  0.00  0.00    +0.210 HD
ENDBRANCH  26  33
BRANCH  27  35
ATOM     35  C   LIG A   1      -2.402   3.214 126.266  0.00  0.00    +0.190 C 
BRANCH  35  36
ATOM     36  O   LIG A   1      -1.417   2.506 127.017  0.00  0.00    -0.392 OA
ATOM     37  H   LIG A   1      -1.240   1.679 126.534  0.00  0.00    +0.209 HD
ENDBRANCH  35  36
ENDBRANCH  27  35
ENDBRANCH  22  23
ENDBRANCH  16  22
TORSDOF 9
ENDMDL
MODEL 6
REMARK VINA RESULT:      -7.5      3.107      5.450
REMARK  Name = NuBBE_1778
REMARK  11 active torsions:
REMARK  status: ('A' for Active; 'I' for Inactive)
REMARK    1  A    between atoms: O_1  and  C_2
REMARK    2  A    between atoms: C_4  and  C_10
REMARK    3  A    between atoms: C_6  and  C_7
REMARK    4  A    between atoms: C_15  and  O_16
REMARK    5  A    between atoms: C_18  and  O_19
REMARK    6  A    between atoms: O_19  and  C_20
REMARK    7  A    between atoms: C_22  and  O_24
REMARK    8  A    between atoms: C_25  and  O_27
REMARK    9  A    between atoms: C_28  and  O_30
REMARK   10  A    between atoms: C_31  and  C_33
REMARK   11  A    between atoms: C_33  and  O_34
REMARK                            x       y       z     vdW  Elec       q    Type
REMARK                         _______ _______ _______ _____ _____    ______ ____
ROOT
ATOM      1  C   LIG A   1      -7.609  -0.634 128.418  0.00  0.00    +0.134 A 
ATOM      2  C   LIG A   1      -7.472  -1.386 129.598  0.00  0.00    +0.034 A 
ATOM      3  C   LIG A   1      -7.248  -2.880 129.564  0.00  0.00    +0.150 C 
ATOM      4  O   LIG A   1      -6.684  -3.358 130.795  0.00  0.00    -0.361 OA
ATOM      5  C   LIG A   1      -7.415  -2.981 131.955  0.00  0.00    +0.187 C 
ATOM      6  C   LIG A   1      -6.695  -3.569 133.160  0.00  0.00    +0.046 C 
ATOM      7  C   LIG A   1      -7.527  -1.465 132.086  0.00  0.00    +0.192 C 
ATOM      8  O   LIG A   1      -7.674  -0.883 133.154  0.00  0.00    -0.289 OA
ATOM      9  C   LIG A   1      -8.497  -3.679 129.197  0.00  0.00    +0.043 C 
ATOM     10  C   LIG A   1      -7.550  -0.706 130.813  0.00  0.00    +0.030 A 
ATOM     11  C   LIG A   1      -7.677   0.687 130.850  0.00  0.00    +0.021 A 
ATOM     12  C   LIG A   1      -7.759   1.438 129.668  0.00  0.00    -0.007 A 
ATOM     13  C   LIG A   1      -7.850   2.836 129.750  0.00  0.00    +0.054 A 
ATOM     14  C   LIG A   1      -7.938   3.599 128.595  0.00  0.00    +0.121 A 
ATOM     15  C   LIG A   1      -7.973   2.998 127.349  0.00  0.00    +0.091 A 
ATOM     16  C   LIG A   1      -7.920   1.607 127.242  0.00  0.00    +0.139 A 
ATOM     17  C   LIG A   1      -7.763   0.789 128.409  0.00  0.00    +0.066 A 
ENDROOT
BRANCH   1  18
ATOM     18  O   LIG A   1      -7.574  -1.348 127.241  0.00  0.00    -0.506 OA
ATOM     19  H   LIG A   1      -7.252  -0.741 126.547  0.00  0.00    +0.292 HD
ENDBRANCH   1  18
BRANCH  14  20
ATOM     20  O   LIG A   1      -8.017   4.959 128.641  0.00  0.00    -0.507 OA
ATOM     21  H   LIG A   1      -8.117   5.242 129.564  0.00  0.00    +0.292 HD
ENDBRANCH  14  20
BRANCH  16  22
ATOM     22  O   LIG A   1      -8.083   0.935 126.053  0.00  0.00    -0.460 OA
BRANCH  22  23
ATOM     23  C   LIG A   1      -9.404   0.595 125.599  0.00  0.00    +0.339 C 
ATOM     24  C   LIG A   1      -9.856   1.648 124.563  0.00  0.00    +0.214 C 
ATOM     25  C   LIG A   1      -9.092   1.468 123.241  0.00  0.00    +0.180 C 
ATOM     26  C   LIG A   1      -9.206   0.020 122.740  0.00  0.00    +0.177 C 
ATOM     27  C   LIG A   1      -8.890  -1.017 123.834  0.00  0.00    +0.179 C 
ATOM     28  O   LIG A   1      -9.548  -0.731 125.074  0.00  0.00    -0.331 OA
BRANCH  24  29
ATOM     29  O   LIG A   1     -11.271   1.566 124.337  0.00  0.00    -0.383 OA
ATOM     30  H   LIG A   1     -11.706   2.007 125.100  0.00  0.00    +0.210 HD
ENDBRANCH  24  29
BRANCH  25  31
ATOM     31  O   LIG A   1      -7.723   1.851 123.385  0.00  0.00    -0.386 OA
ATOM     32  H   LIG A   1      -7.711   2.690 123.883  0.00  0.00    +0.210 HD
ENDBRANCH  25  31
BRANCH  26  33
ATOM     33  O   LIG A   1     -10.572  -0.177 122.312  0.00  0.00    -0.387 OA
ATOM     34  H   LIG A   1     -10.668   0.303 121.468  0.00  0.00    +0.210 HD
ENDBRANCH  26  33
BRANCH  27  35
ATOM     35  C   LIG A   1      -7.395  -1.308 124.003  0.00  0.00    +0.190 C 
BRANCH  35  36
ATOM     36  O   LIG A   1      -6.688  -0.940 122.819  0.00  0.00    -0.392 OA
ATOM     37  H   LIG A   1      -7.251  -0.302 122.346  0.00  0.00    +0.209 HD
ENDBRANCH  35  36
ENDBRANCH  27  35
ENDBRANCH  22  23
ENDBRANCH  16  22
TORSDOF 9
ENDMDL
MODEL 7
REMARK VINA RESULT:      -7.5      3.576      8.753
REMARK  Name = NuBBE_1778
REMARK  11 active torsions:
REMARK  status: ('A' for Active; 'I' for Inactive)
REMARK    1  A    between atoms: O_1  and  C_2
REMARK    2  A    between atoms: C_4  and  C_10
REMARK    3  A    between atoms: C_6  and  C_7
REMARK    4  A    between atoms: C_15  and  O_16
REMARK    5  A    between atoms: C_18  and  O_19
REMARK    6  A    between atoms: O_19  and  C_20
REMARK    7  A    between atoms: C_22  and  O_24
REMARK    8  A    between atoms: C_25  and  O_27
REMARK    9  A    between atoms: C_28  and  O_30
REMARK   10  A    between atoms: C_31  and  C_33
REMARK   11  A    between atoms: C_33  and  O_34
REMARK                            x       y       z     vdW  Elec       q    Type
REMARK                         _______ _______ _______ _____ _____    ______ ____
ROOT
ATOM      1  C   LIG A   1      -7.790  -0.274 128.128  0.00  0.00    +0.134 A 
ATOM      2  C   LIG A   1      -8.042  -0.779 126.840  0.00  0.00    +0.034 A 
ATOM      3  C   LIG A   1      -8.237   0.138 125.654  0.00  0.00    +0.150 C 
ATOM      4  O   LIG A   1      -8.015  -0.549 124.413  0.00  0.00    -0.361 OA
ATOM      5  C   LIG A   1      -8.775  -1.741 124.264  0.00  0.00    +0.187 C 
ATOM      6  C   LIG A   1      -8.432  -2.335 122.905  0.00  0.00    +0.046 C 
ATOM      7  C   LIG A   1      -8.483  -2.744 125.376  0.00  0.00    +0.192 C 
ATOM      8  O   LIG A   1      -8.619  -3.955 125.253  0.00  0.00    -0.289 OA
ATOM      9  C   LIG A   1      -9.591   0.847 125.643  0.00  0.00    +0.043 C 
ATOM     10  C   LIG A   1      -8.107  -2.163 126.687  0.00  0.00    +0.030 A 
ATOM     11  C   LIG A   1      -7.848  -3.018 127.764  0.00  0.00    +0.021 A 
ATOM     12  C   LIG A   1      -7.544  -2.509 129.035  0.00  0.00    -0.007 A 
ATOM     13  C   LIG A   1      -7.256  -3.401 130.080  0.00  0.00    +0.054 A 
ATOM     14  C   LIG A   1      -6.959  -2.922 131.346  0.00  0.00    +0.121 A 
ATOM     15  C   LIG A   1      -6.975  -1.563 131.612  0.00  0.00    +0.091 A 
ATOM     16  C   LIG A   1      -7.294  -0.657 130.599  0.00  0.00    +0.139 A 
ATOM     17  C   LIG A   1      -7.542  -1.110 129.262  0.00  0.00    +0.066 A 
ENDROOT
BRANCH   1  18
ATOM     18  O   LIG A   1      -7.782   1.097 128.247  0.00  0.00    -0.506 OA
ATOM     19  H   LIG A   1      -8.250   1.316 129.076  0.00  0.00    +0.292 HD
ENDBRANCH   1  18
BRANCH  14  20
ATOM     20  O   LIG A   1      -6.665  -3.762 132.379  0.00  0.00    -0.507 OA
ATOM     21  H   LIG A   1      -5.704  -3.895 132.418  0.00  0.00    +0.292 HD
ENDBRANCH  14  20
BRANCH  16  22
ATOM     22  O   LIG A   1      -7.458   0.692 130.818  0.00  0.00    -0.460 OA
BRANCH  22  23
ATOM     23  C   LIG A   1      -6.943   1.288 132.020  0.00  0.00    +0.339 C 
ATOM     24  C   LIG A   1      -6.285   2.639 131.658  0.00  0.00    +0.214 C 
ATOM     25  C   LIG A   1      -7.357   3.685 131.309  0.00  0.00    +0.180 C 
ATOM     26  C   LIG A   1      -8.402   3.786 132.431  0.00  0.00    +0.177 C 
ATOM     27  C   LIG A   1      -8.937   2.412 132.876  0.00  0.00    +0.179 C 
ATOM     28  O   LIG A   1      -7.895   1.452 133.079  0.00  0.00    -0.331 OA
BRANCH  24  29
ATOM     29  O   LIG A   1      -5.461   3.109 132.735  0.00  0.00    -0.383 OA
ATOM     30  H   LIG A   1      -5.027   2.318 133.126  0.00  0.00    +0.210 HD
ENDBRANCH  24  29
BRANCH  25  31
ATOM     31  O   LIG A   1      -7.980   3.382 130.059  0.00  0.00    -0.386 OA
ATOM     32  H   LIG A   1      -7.285   3.030 129.471  0.00  0.00    +0.210 HD
ENDBRANCH  25  31
BRANCH  26  33
ATOM     33  O   LIG A   1      -7.753   4.406 133.564  0.00  0.00    -0.387 OA
ATOM     34  H   LIG A   1      -7.511   5.309 133.282  0.00  0.00    +0.210 HD
ENDBRANCH  26  33
BRANCH  27  35
ATOM     35  C   LIG A   1     -10.082   1.880 132.007  0.00  0.00    +0.190 C 
BRANCH  35  36
ATOM     36  O   LIG A   1     -10.710   2.955 131.312  0.00  0.00    -0.392 OA
ATOM     37  H   LIG A   1     -10.765   3.697 131.939  0.00  0.00    +0.209 HD
ENDBRANCH  35  36
ENDBRANCH  27  35
ENDBRANCH  22  23
ENDBRANCH  16  22
TORSDOF 9
ENDMDL
MODEL 8
REMARK VINA RESULT:      -7.4      1.672      1.947
REMARK  Name = NuBBE_1778
REMARK  11 active torsions:
REMARK  status: ('A' for Active; 'I' for Inactive)
REMARK    1  A    between atoms: O_1  and  C_2
REMARK    2  A    between atoms: C_4  and  C_10
REMARK    3  A    between atoms: C_6  and  C_7
REMARK    4  A    between atoms: C_15  and  O_16
REMARK    5  A    between atoms: C_18  and  O_19
REMARK    6  A    between atoms: O_19  and  C_20
REMARK    7  A    between atoms: C_22  and  O_24
REMARK    8  A    between atoms: C_25  and  O_27
REMARK    9  A    between atoms: C_28  and  O_30
REMARK   10  A    between atoms: C_31  and  C_33
REMARK   11  A    between atoms: C_33  and  O_34
REMARK                            x       y       z     vdW  Elec       q    Type
REMARK                         _______ _______ _______ _____ _____    ______ ____
ROOT
ATOM      1  C   LIG A   1      -7.225   1.416 127.559  0.00  0.00    +0.134 A 
ATOM      2  C   LIG A   1      -7.084   2.156 128.747  0.00  0.00    +0.034 A 
ATOM      3  C   LIG A   1      -7.132   1.493 130.103  0.00  0.00    +0.150 C 
ATOM      4  O   LIG A   1      -6.519   2.310 131.113  0.00  0.00    -0.361 OA
ATOM      5  C   LIG A   1      -7.029   3.636 131.178  0.00  0.00    +0.187 C 
ATOM      6  C   LIG A   1      -6.286   4.357 132.293  0.00  0.00    +0.046 C 
ATOM      7  C   LIG A   1      -6.856   4.375 129.855  0.00  0.00    +0.192 C 
ATOM      8  O   LIG A   1      -6.770   5.593 129.761  0.00  0.00    -0.289 OA
ATOM      9  C   LIG A   1      -8.537   1.072 130.531  0.00  0.00    +0.043 C 
ATOM     10  C   LIG A   1      -6.896   3.534 128.635  0.00  0.00    +0.030 A 
ATOM     11  C   LIG A   1      -6.770   4.141 127.380  0.00  0.00    +0.021 A 
ATOM     12  C   LIG A   1      -6.858   3.390 126.199  0.00  0.00    -0.007 A 
ATOM     13  C   LIG A   1      -6.691   4.034 124.964  0.00  0.00    +0.054 A 
ATOM     14  C   LIG A   1      -6.780   3.313 123.783  0.00  0.00    +0.121 A 
ATOM     15  C   LIG A   1      -7.068   1.959 123.798  0.00  0.00    +0.091 A 
ATOM     16  C   LIG A   1      -7.274   1.302 125.013  0.00  0.00    +0.139 A 
ATOM     17  C   LIG A   1      -7.126   2.000 126.256  0.00  0.00    +0.066 A 
ENDROOT
BRANCH   1  18
ATOM     18  O   LIG A   1      -7.457   0.068 127.713  0.00  0.00    -0.506 OA
ATOM     19  H   LIG A   1      -7.768  -0.270 126.850  0.00  0.00    +0.292 HD
ENDBRANCH   1  18
BRANCH  14  20
ATOM     20  O   LIG A   1      -6.612   3.907 122.567  0.00  0.00    -0.507 OA
ATOM     21  H   LIG A   1      -7.467   4.248 122.258  0.00  0.00    +0.292 HD
ENDBRANCH  14  20
BRANCH  16  22
ATOM     22  O   LIG A   1      -7.693  -0.005 125.102  0.00  0.00    -0.460 OA
BRANCH  22  23
ATOM     23  C   LIG A   1      -9.015  -0.363 124.665  0.00  0.00    +0.339 C 
ATOM     24  C   LIG A   1      -8.953  -0.755 123.172  0.00  0.00    +0.214 C 
ATOM     25  C   LIG A   1      -8.263  -2.119 123.000  0.00  0.00    +0.180 C 
ATOM     26  C   LIG A   1      -8.928  -3.180 123.891  0.00  0.00    +0.177 C 
ATOM     27  C   LIG A   1      -9.112  -2.709 125.346  0.00  0.00    +0.179 C 
ATOM     28  O   LIG A   1      -9.657  -1.388 125.435  0.00  0.00    -0.331 OA
BRANCH  24  29
ATOM     29  O   LIG A   1     -10.267  -0.785 122.597  0.00  0.00    -0.383 OA
ATOM     30  H   LIG A   1     -10.623   0.130 122.657  0.00  0.00    +0.210 HD
ENDBRANCH  24  29
BRANCH  25  31
ATOM     31  O   LIG A   1      -6.864  -2.024 123.278  0.00  0.00    -0.386 OA
ATOM     32  H   LIG A   1      -6.669  -1.083 123.442  0.00  0.00    +0.210 HD
ENDBRANCH  25  31
BRANCH  26  33
ATOM     33  O   LIG A   1     -10.235  -3.446 123.334  0.00  0.00    -0.387 OA
ATOM     34  H   LIG A   1     -10.863  -2.878 123.821  0.00  0.00    +0.210 HD
ENDBRANCH  26  33
BRANCH  27  35
ATOM     35  C   LIG A   1      -7.871  -2.906 126.224  0.00  0.00    +0.190 C 
BRANCH  35  36
ATOM     36  O   LIG A   1      -8.205  -2.697 127.595  0.00  0.00    -0.392 OA
ATOM     37  H   LIG A   1      -8.101  -3.556 128.041  0.00  0.00    +0.209 HD
ENDBRANCH  35  36
ENDBRANCH  27  35
ENDBRANCH  22  23
ENDBRANCH  16  22
TORSDOF 9
ENDMDL
MODEL 9
REMARK VINA RESULT:      -7.4      4.171      8.700
REMARK  Name = NuBBE_1778
REMARK  11 active torsions:
REMARK  status: ('A' for Active; 'I' for Inactive)
REMARK    1  A    between atoms: O_1  and  C_2
REMARK    2  A    between atoms: C_4  and  C_10
REMARK    3  A    between atoms: C_6  and  C_7
REMARK    4  A    between atoms: C_15  and  O_16
REMARK    5  A    between atoms: C_18  and  O_19
REMARK    6  A    between atoms: O_19  and  C_20
REMARK    7  A    between atoms: C_22  and  O_24
REMARK    8  A    between atoms: C_25  and  O_27
REMARK    9  A    between atoms: C_28  and  O_30
REMARK   10  A    between atoms: C_31  and  C_33
REMARK   11  A    between atoms: C_33  and  O_34
REMARK                            x       y       z     vdW  Elec       q    Type
REMARK                         _______ _______ _______ _____ _____    ______ ____
ROOT
ATOM      1  C   LIG A   1      -8.165   1.277 128.130  0.00  0.00    +0.134 A 
ATOM      2  C   LIG A   1      -7.934   0.532 126.959  0.00  0.00    +0.034 A 
ATOM      3  C   LIG A   1      -7.916   1.184 125.596  0.00  0.00    +0.150 C 
ATOM      4  O   LIG A   1      -7.223   0.376 124.633  0.00  0.00    -0.361 OA
ATOM      5  C   LIG A   1      -7.695  -0.963 124.549  0.00  0.00    +0.187 C 
ATOM      6  C   LIG A   1      -6.868  -1.673 123.487  0.00  0.00    +0.046 C 
ATOM      7  C   LIG A   1      -7.585  -1.688 125.887  0.00  0.00    +0.192 C 
ATOM      8  O   LIG A   1      -7.474  -2.903 125.996  0.00  0.00    -0.289 OA
ATOM      9  C   LIG A   1      -9.302   1.567 125.081  0.00  0.00    +0.043 C 
ATOM     10  C   LIG A   1      -7.719  -0.839 127.094  0.00  0.00    +0.030 A 
ATOM     11  C   LIG A   1      -7.656  -1.434 128.359  0.00  0.00    +0.021 A 
ATOM     12  C   LIG A   1      -7.834  -0.678 129.526  0.00  0.00    -0.007 A 
ATOM     13  C   LIG A   1      -7.726  -1.308 130.775  0.00  0.00    +0.054 A 
ATOM     14  C   LIG A   1      -7.904  -0.581 131.943  0.00  0.00    +0.121 A 
ATOM     15  C   LIG A   1      -8.225   0.765 131.898  0.00  0.00    +0.091 A 
ATOM     16  C   LIG A   1      -8.373   1.408 130.667  0.00  0.00    +0.139 A 
ATOM     17  C   LIG A   1      -8.132   0.706 129.441  0.00  0.00    +0.066 A 
ENDROOT
BRANCH   1  18
ATOM     18  O   LIG A   1      -8.421   2.617 127.950  0.00  0.00    -0.506 OA
ATOM     19  H   LIG A   1      -8.100   3.080 128.749  0.00  0.00    +0.292 HD
ENDBRANCH   1  18
BRANCH  14  20
ATOM     20  O   LIG A   1      -7.797  -1.162 133.171  0.00  0.00    -0.507 OA
ATOM     21  H   LIG A   1      -7.860  -2.126 133.075  0.00  0.00    +0.292 HD
ENDBRANCH  14  20
BRANCH  16  22
ATOM     22  O   LIG A   1      -8.817   2.704 130.542  0.00  0.00    -0.460 OA
BRANCH  22  23
ATOM     23  C   LIG A   1      -9.804   3.212 131.455  0.00  0.00    +0.339 C 
ATOM     24  C   LIG A   1      -9.097   3.624 132.766  0.00  0.00    +0.214 C 
ATOM     25  C   LIG A   1      -8.276   4.907 132.557  0.00  0.00    +0.180 C 
ATOM     26  C   LIG A   1      -9.149   6.017 131.950  0.00  0.00    +0.177 C 
ATOM     27  C   LIG A   1      -9.957   5.541 130.728  0.00  0.00    +0.179 C 
ATOM     28  O   LIG A   1     -10.609   4.285 130.951  0.00  0.00    -0.331 OA
BRANCH  24  29
ATOM     29  O   LIG A   1     -10.050   3.808 133.823  0.00  0.00    -0.383 OA
ATOM     30  H   LIG A   1     -10.828   3.249 133.603  0.00  0.00    +0.210 HD
ENDBRANCH  24  29
BRANCH  25  31
ATOM     31  O   LIG A   1      -7.131   4.655 131.740  0.00  0.00    -0.386 OA
ATOM     32  H   LIG A   1      -7.445   4.185 130.945  0.00  0.00    +0.210 HD
ENDBRANCH  25  31
BRANCH  26  33
ATOM     33  O   LIG A   1     -10.080   6.434 132.973  0.00  0.00    -0.387 OA
ATOM     34  H   LIG A   1     -10.585   7.181 132.598  0.00  0.00    +0.210 HD
ENDBRANCH  26  33
BRANCH  27  35
ATOM     35  C   LIG A   1      -9.176   5.585 129.410  0.00  0.00    +0.190 C 
BRANCH  35  36
ATOM     36  O   LIG A   1      -9.905   6.326 128.434  0.00  0.00    -0.392 OA
ATOM     37  H   LIG A   1     -10.777   6.515 128.822  0.00  0.00    +0.209 HD
ENDBRANCH  35  36
ENDBRANCH  27  35
ENDBRANCH  22  23
ENDBRANCH  16  22
TORSDOF 9
ENDMDL
