MODEL 1
REMARK VINA RESULT:      -7.5      0.000      0.000
REMARK  Name = NuBBE_2017
REMARK  9 active torsions:
REMARK  status: ('A' for Active; 'I' for Inactive)
REMARK    1  A    between atoms: C_3  and  O_4
REMARK    2  A    between atoms: O_4  and  C_5
REMARK    3  A    between atoms: C_7  and  C_8
REMARK    4  A    between atoms: C_8  and  C_9
REMARK    5  A    between atoms: C_11  and  C_13
REMARK    6  A    between atoms: C_14  and  C_16
REMARK    7  A    between atoms: C_25  and  O_29
REMARK    8  A    between atoms: C_26  and  O_28
REMARK    9  A    between atoms: O_29  and  C_30
REMARK                            x       y       z     vdW  Elec       q    Type
REMARK                         _______ _______ _______ _____ _____    ______ ____
ROOT
ATOM      1  O   LIG A   1      -9.591  -1.632 122.904  0.00  0.00    -0.286 OA
ATOM      2  C   LIG A   1      -9.043  -0.929 123.745  0.00  0.00    +0.232 C 
ATOM      3  C   LIG A   1      -8.792  -1.440 125.192  0.00  0.00    +0.162 C 
ATOM      4  C   LIG A   1      -7.919  -0.701 125.943  0.00  0.00    +0.032 C 
ATOM      5  C   LIG A   1      -6.968   0.329 125.333  0.00  0.00    +0.028 C 
ATOM      6  C   LIG A   1      -7.423   1.837 125.224  0.00  0.00    +0.009 C 
ATOM      7  C   LIG A   1      -8.258   2.361 126.395  0.00  0.00    +0.009 C 
ATOM      8  C   LIG A   1      -8.168   1.978 123.833  0.00  0.00    +0.065 C 
ATOM      9  C   LIG A   1      -8.537   0.511 123.392  0.00  0.00    +0.168 C 
ATOM     10  C   LIG A   1      -6.980   0.041 123.830  0.00  0.00    +0.165 C 
ENDROOT
BRANCH   8  11
ATOM     11  C   LIG A   1      -7.456   2.793 122.723  0.00  0.00    -0.037 A 
ATOM     12  C   LIG A   1      -6.137   3.274 122.934  0.00  0.00    +0.008 A 
ATOM     13  C   LIG A   1      -5.463   4.029 121.959  0.00  0.00    +0.050 A 
ATOM     14  C   LIG A   1      -6.125   4.307 120.786  0.00  0.00    +0.166 A 
ATOM     15  O   LIG A   1      -5.627   5.010 119.735  0.00  0.00    -0.453 OA
ATOM     16  C   LIG A   1      -6.748   4.970 118.827  0.00  0.00    +0.466 C 
ATOM     17  O   LIG A   1      -7.891   4.269 119.362  0.00  0.00    -0.453 OA
ATOM     18  C   LIG A   1      -7.412   3.885 120.577  0.00  0.00    +0.167 A 
ATOM     19  C   LIG A   1      -8.104   3.150 121.521  0.00  0.00    +0.053 A 
ENDBRANCH   8  11
BRANCH   3  20
ATOM     20  O   LIG A   1      -9.545  -2.517 125.595  0.00  0.00    -0.492 OA
ATOM     21  C   LIG A   1      -9.026  -3.273 126.676  0.00  0.00    +0.277 C 
ENDBRANCH   3  20
BRANCH  10  22
ATOM     22  O   LIG A   1      -6.579  -1.274 123.436  0.00  0.00    -0.388 OA
ATOM     23  H   LIG A   1      -6.262  -1.242 122.517  0.00  0.00    +0.210 HD
ENDBRANCH  10  22
BRANCH   9  24
ATOM     24  O   LIG A   1      -9.782   0.659 124.398  0.00  0.00    -0.365 OA
ATOM     25  C   LIG A   1     -10.890   1.430 123.921  0.00  0.00    +0.195 C 
ENDBRANCH   9  24
BRANCH   5  26
ATOM     26  C   LIG A   1      -5.585   0.251 126.059  0.00  0.00    +0.040 C 
BRANCH  26  27
ATOM     27  C   LIG A   1      -4.774   1.519 126.191  0.00  0.00    -0.034 C 
ATOM     28  C   LIG A   1      -4.505   2.138 127.351  0.00  0.00    +0.004 C 
ENDBRANCH  26  27
ENDBRANCH   5  26
TORSDOF 6
ENDMDL
MODEL 2
REMARK VINA RESULT:      -7.3      2.622      4.458
REMARK  Name = NuBBE_2017
REMARK  9 active torsions:
REMARK  status: ('A' for Active; 'I' for Inactive)
REMARK    1  A    between atoms: C_3  and  O_4
REMARK    2  A    between atoms: O_4  and  C_5
REMARK    3  A    between atoms: C_7  and  C_8
REMARK    4  A    between atoms: C_8  and  C_9
REMARK    5  A    between atoms: C_11  and  C_13
REMARK    6  A    between atoms: C_14  and  C_16
REMARK    7  A    between atoms: C_25  and  O_29
REMARK    8  A    between atoms: C_26  and  O_28
REMARK    9  A    between atoms: O_29  and  C_30
REMARK                            x       y       z     vdW  Elec       q    Type
REMARK                         _______ _______ _______ _____ _____    ______ ____
ROOT
ATOM      1  O   LIG A   1      -6.671   4.817 127.615  0.00  0.00    -0.286 OA
ATOM      2  C   LIG A   1      -6.972   3.822 126.965  0.00  0.00    +0.232 C 
ATOM      3  C   LIG A   1      -7.879   2.708 127.561  0.00  0.00    +0.162 C 
ATOM      4  C   LIG A   1      -8.389   1.809 126.663  0.00  0.00    +0.032 C 
ATOM      5  C   LIG A   1      -8.396   2.059 125.155  0.00  0.00    +0.028 C 
ATOM      6  C   LIG A   1      -7.188   1.544 124.277  0.00  0.00    +0.009 C 
ATOM      7  C   LIG A   1      -6.599   0.194 124.694  0.00  0.00    +0.009 C 
ATOM      8  C   LIG A   1      -6.112   2.705 124.276  0.00  0.00    +0.065 C 
ATOM      9  C   LIG A   1      -6.484   3.639 125.488  0.00  0.00    +0.168 C 
ATOM     10  C   LIG A   1      -8.093   3.551 124.998  0.00  0.00    +0.165 C 
ENDROOT
BRANCH   8  11
ATOM     11  C   LIG A   1      -5.897   3.476 122.948  0.00  0.00    -0.037 A 
ATOM     12  C   LIG A   1      -4.816   4.389 122.826  0.00  0.00    +0.008 A 
ATOM     13  C   LIG A   1      -4.597   5.117 121.646  0.00  0.00    +0.050 A 
ATOM     14  C   LIG A   1      -5.472   4.935 120.602  0.00  0.00    +0.166 A 
ATOM     15  O   LIG A   1      -5.408   5.544 119.388  0.00  0.00    -0.453 OA
ATOM     16  C   LIG A   1      -6.560   4.970 118.735  0.00  0.00    +0.466 C 
ATOM     17  O   LIG A   1      -7.295   4.054 119.575  0.00  0.00    -0.453 OA
ATOM     18  C   LIG A   1      -6.544   4.088 120.710  0.00  0.00    +0.167 A 
ATOM     19  C   LIG A   1      -6.793   3.366 121.862  0.00  0.00    +0.053 A 
ENDBRANCH   8  11
BRANCH   3  20
ATOM     20  O   LIG A   1      -7.992   2.683 128.931  0.00  0.00    -0.492 OA
ATOM     21  C   LIG A   1      -9.206   3.179 129.467  0.00  0.00    +0.277 C 
ENDBRANCH   3  20
BRANCH  10  22
ATOM     22  O   LIG A   1      -9.002   4.450 125.636  0.00  0.00    -0.388 OA
ATOM     23  H   LIG A   1      -8.925   5.325 125.215  0.00  0.00    +0.210 HD
ENDBRANCH  10  22
BRANCH   9  24
ATOM     24  O   LIG A   1      -5.726   2.550 126.396  0.00  0.00    -0.365 OA
ATOM     25  C   LIG A   1      -4.303   2.675 126.475  0.00  0.00    +0.195 C 
ENDBRANCH   9  24
BRANCH   5  26
ATOM     26  C   LIG A   1      -9.741   1.541 124.550  0.00  0.00    +0.040 C 
BRANCH  26  27
ATOM     27  C   LIG A   1      -9.784   1.215 123.076  0.00  0.00    -0.034 C 
ATOM     28  C   LIG A   1     -10.619   0.328 122.512  0.00  0.00    +0.004 C 
ENDBRANCH  26  27
ENDBRANCH   5  26
TORSDOF 6
ENDMDL
MODEL 3
REMARK VINA RESULT:      -7.1      3.304      7.613
REMARK  Name = NuBBE_2017
REMARK  9 active torsions:
REMARK  status: ('A' for Active; 'I' for Inactive)
REMARK    1  A    between atoms: C_3  and  O_4
REMARK    2  A    between atoms: O_4  and  C_5
REMARK    3  A    between atoms: C_7  and  C_8
REMARK    4  A    between atoms: C_8  and  C_9
REMARK    5  A    between atoms: C_11  and  C_13
REMARK    6  A    between atoms: C_14  and  C_16
REMARK    7  A    between atoms: C_25  and  O_29
REMARK    8  A    between atoms: C_26  and  O_28
REMARK    9  A    between atoms: O_29  and  C_30
REMARK                            x       y       z     vdW  Elec       q    Type
REMARK                         _______ _______ _______ _____ _____    ______ ____
ROOT
ATOM      1  O   LIG A   1      -7.022   2.106 125.705  0.00  0.00    -0.286 OA
ATOM      2  C   LIG A   1      -7.131   1.001 125.186  0.00  0.00    +0.232 C 
ATOM      3  C   LIG A   1      -7.029   0.815 123.645  0.00  0.00    +0.162 C 
ATOM      4  C   LIG A   1      -6.866  -0.473 123.209  0.00  0.00    +0.032 C 
ATOM      5  C   LIG A   1      -6.442  -1.613 124.134  0.00  0.00    +0.028 C 
ATOM      6  C   LIG A   1      -7.548  -2.488 124.845  0.00  0.00    +0.009 C 
ATOM      7  C   LIG A   1      -8.796  -2.781 124.008  0.00  0.00    +0.009 C 
ATOM      8  C   LIG A   1      -7.886  -1.757 126.208  0.00  0.00    +0.065 C 
ATOM      9  C   LIG A   1      -7.347  -0.285 126.054  0.00  0.00    +0.168 C 
ATOM     10  C   LIG A   1      -5.930  -0.926 125.403  0.00  0.00    +0.165 C 
ENDROOT
BRANCH   8  11
ATOM     11  C   LIG A   1      -7.427  -2.446 127.519  0.00  0.00    -0.037 A 
ATOM     12  C   LIG A   1      -8.378  -3.101 128.345  0.00  0.00    +0.008 A 
ATOM     13  C   LIG A   1      -8.005  -3.724 129.547  0.00  0.00    +0.050 A 
ATOM     14  C   LIG A   1      -6.683  -3.673 129.918  0.00  0.00    +0.166 A 
ATOM     15  O   LIG A   1      -6.143  -4.226 131.037  0.00  0.00    -0.453 OA
ATOM     16  C   LIG A   1      -4.757  -3.852 130.884  0.00  0.00    +0.466 C 
ATOM     17  O   LIG A   1      -4.506  -3.068 129.698  0.00  0.00    -0.453 OA
ATOM     18  C   LIG A   1      -5.754  -3.014 129.156  0.00  0.00    +0.167 A 
ATOM     19  C   LIG A   1      -6.092  -2.382 127.974  0.00  0.00    +0.053 A 
ENDBRANCH   8  11
BRANCH   3  20
ATOM     20  O   LIG A   1      -7.214   1.944 122.882  0.00  0.00    -0.492 OA
ATOM     21  C   LIG A   1      -8.552   2.391 122.742  0.00  0.00    +0.277 C 
ENDBRANCH   3  20
BRANCH  10  22
ATOM     22  O   LIG A   1      -4.841  -0.017 125.233  0.00  0.00    -0.388 OA
ATOM     23  H   LIG A   1      -4.167  -0.206 125.909  0.00  0.00    +0.210 HD
ENDBRANCH  10  22
BRANCH   9  24
ATOM     24  O   LIG A   1      -8.703  -0.009 125.238  0.00  0.00    -0.365 OA
ATOM     25  C   LIG A   1      -9.838   0.384 126.016  0.00  0.00    +0.195 C 
ENDBRANCH   9  24
BRANCH   5  26
ATOM     26  C   LIG A   1      -5.440  -2.547 123.380  0.00  0.00    +0.040 C 
BRANCH  26  27
ATOM     27  C   LIG A   1      -5.111  -3.888 123.994  0.00  0.00    -0.034 C 
ATOM     28  C   LIG A   1      -4.152  -4.717 123.553  0.00  0.00    +0.004 C 
ENDBRANCH  26  27
ENDBRANCH   5  26
TORSDOF 6
ENDMDL
MODEL 4
REMARK VINA RESULT:      -7.0      1.789      2.820
REMARK  Name = NuBBE_2017
REMARK  9 active torsions:
REMARK  status: ('A' for Active; 'I' for Inactive)
REMARK    1  A    between atoms: C_3  and  O_4
REMARK    2  A    between atoms: O_4  and  C_5
REMARK    3  A    between atoms: C_7  and  C_8
REMARK    4  A    between atoms: C_8  and  C_9
REMARK    5  A    between atoms: C_11  and  C_13
REMARK    6  A    between atoms: C_14  and  C_16
REMARK    7  A    between atoms: C_25  and  O_29
REMARK    8  A    between atoms: C_26  and  O_28
REMARK    9  A    between atoms: O_29  and  C_30
REMARK                            x       y       z     vdW  Elec       q    Type
REMARK                         _______ _______ _______ _____ _____    ______ ____
ROOT
ATOM      1  O   LIG A   1     -10.237  -0.752 125.987  0.00  0.00    -0.286 OA
ATOM      2  C   LIG A   1      -9.019  -0.681 125.861  0.00  0.00    +0.232 C 
ATOM      3  C   LIG A   1      -8.075  -1.740 126.497  0.00  0.00    +0.162 C 
ATOM      4  C   LIG A   1      -6.782  -1.733 126.048  0.00  0.00    +0.032 C 
ATOM      5  C   LIG A   1      -6.354  -1.014 124.768  0.00  0.00    +0.028 C 
ATOM      6  C   LIG A   1      -5.842   0.477 124.849  0.00  0.00    +0.009 C 
ATOM      7  C   LIG A   1      -4.999   0.820 126.081  0.00  0.00    +0.009 C 
ATOM      8  C   LIG A   1      -7.124   1.396 124.714  0.00  0.00    +0.065 C 
ATOM      9  C   LIG A   1      -8.357   0.465 125.024  0.00  0.00    +0.168 C 
ATOM     10  C   LIG A   1      -7.658  -0.704 124.031  0.00  0.00    +0.165 C 
ENDROOT
BRANCH   8  11
ATOM     11  C   LIG A   1      -7.282   2.210 123.404  0.00  0.00    -0.037 A 
ATOM     12  C   LIG A   1      -8.575   2.438 122.863  0.00  0.00    +0.008 A 
ATOM     13  C   LIG A   1      -8.759   3.158 121.671  0.00  0.00    +0.050 A 
ATOM     14  C   LIG A   1      -7.643   3.631 121.023  0.00  0.00    +0.166 A 
ATOM     15  O   LIG A   1      -7.633   4.352 119.871  0.00  0.00    -0.453 OA
ATOM     16  C   LIG A   1      -6.215   4.552 119.689  0.00  0.00    +0.466 C 
ATOM     17  O   LIG A   1      -5.414   3.930 120.717  0.00  0.00    -0.453 OA
ATOM     18  C   LIG A   1      -6.383   3.390 121.506  0.00  0.00    +0.167 A 
ATOM     19  C   LIG A   1      -6.170   2.676 122.670  0.00  0.00    +0.053 A 
ENDBRANCH   8  11
BRANCH   3  20
ATOM     20  O   LIG A   1      -8.609  -2.500 127.511  0.00  0.00    -0.492 OA
ATOM     21  C   LIG A   1      -8.912  -3.846 127.188  0.00  0.00    +0.277 C 
ENDBRANCH   3  20
BRANCH  10  22
ATOM     22  O   LIG A   1      -8.478  -1.827 123.698  0.00  0.00    -0.388 OA
ATOM     23  H   LIG A   1      -7.918  -2.520 123.309  0.00  0.00    +0.210 HD
ENDBRANCH  10  22
BRANCH   9  24
ATOM     24  O   LIG A   1      -7.992   0.711 126.569  0.00  0.00    -0.365 OA
ATOM     25  C   LIG A   1      -8.327   1.998 127.099  0.00  0.00    +0.195 C 
ENDBRANCH   9  24
BRANCH   5  26
ATOM     26  C   LIG A   1      -5.302  -1.889 124.011  0.00  0.00    +0.040 C 
BRANCH  26  27
ATOM     27  C   LIG A   1      -5.463  -3.391 124.045  0.00  0.00    -0.034 C 
ATOM     28  C   LIG A   1      -4.473  -4.271 123.831  0.00  0.00    +0.004 C 
ENDBRANCH  26  27
ENDBRANCH   5  26
TORSDOF 6
ENDMDL
MODEL 5
REMARK VINA RESULT:      -6.9      7.241      9.281
REMARK  Name = NuBBE_2017
REMARK  9 active torsions:
REMARK  status: ('A' for Active; 'I' for Inactive)
REMARK    1  A    between atoms: C_3  and  O_4
REMARK    2  A    between atoms: O_4  and  C_5
REMARK    3  A    between atoms: C_7  and  C_8
REMARK    4  A    between atoms: C_8  and  C_9
REMARK    5  A    between atoms: C_11  and  C_13
REMARK    6  A    between atoms: C_14  and  C_16
REMARK    7  A    between atoms: C_25  and  O_29
REMARK    8  A    between atoms: C_26  and  O_28
REMARK    9  A    between atoms: O_29  and  C_30
REMARK                            x       y       z     vdW  Elec       q    Type
REMARK                         _______ _______ _______ _____ _____    ______ ____
ROOT
ATOM      1  O   LIG A   1      -8.585   2.312 133.403  0.00  0.00    -0.286 OA
ATOM      2  C   LIG A   1      -7.930   3.106 132.738  0.00  0.00    +0.232 C 
ATOM      3  C   LIG A   1      -6.463   2.801 132.324  0.00  0.00    +0.162 C 
ATOM      4  C   LIG A   1      -5.939   3.604 131.347  0.00  0.00    +0.032 C 
ATOM      5  C   LIG A   1      -6.804   4.491 130.452  0.00  0.00    +0.028 C 
ATOM      6  C   LIG A   1      -7.085   5.985 130.878  0.00  0.00    +0.009 C 
ATOM      7  C   LIG A   1      -5.915   6.710 131.550  0.00  0.00    +0.009 C 
ATOM      8  C   LIG A   1      -8.383   5.953 131.784  0.00  0.00    +0.065 C 
ATOM      9  C   LIG A   1      -8.552   4.456 132.243  0.00  0.00    +0.168 C 
ATOM     10  C   LIG A   1      -8.234   3.987 130.655  0.00  0.00    +0.165 C 
ENDROOT
BRANCH   8  11
ATOM     11  C   LIG A   1      -9.679   6.566 131.193  0.00  0.00    -0.037 A 
ATOM     12  C   LIG A   1     -10.927   6.329 131.827  0.00  0.00    +0.008 A 
ATOM     13  C   LIG A   1     -12.125   6.854 131.315  0.00  0.00    +0.050 A 
ATOM     14  C   LIG A   1     -12.063   7.600 130.163  0.00  0.00    +0.166 A 
ATOM     15  O   LIG A   1     -13.114   8.191 129.535  0.00  0.00    -0.453 OA
ATOM     16  C   LIG A   1     -12.446   8.814 128.416  0.00  0.00    +0.466 C 
ATOM     17  O   LIG A   1     -11.025   8.563 128.389  0.00  0.00    -0.453 OA
ATOM     18  C   LIG A   1     -10.874   7.811 129.513  0.00  0.00    +0.167 A 
ATOM     19  C   LIG A   1      -9.681   7.298 129.986  0.00  0.00    +0.053 A 
ENDBRANCH   8  11
BRANCH   3  20
ATOM     20  O   LIG A   1      -5.816   1.828 133.049  0.00  0.00    -0.492 OA
ATOM     21  C   LIG A   1      -5.601   0.594 132.387  0.00  0.00    +0.277 C 
ENDBRANCH   3  20
BRANCH  10  22
ATOM     22  O   LIG A   1      -8.471   2.613 130.340  0.00  0.00    -0.388 OA
ATOM     23  H   LIG A   1      -9.391   2.514 130.041  0.00  0.00    +0.210 HD
ENDBRANCH  10  22
BRANCH   9  24
ATOM     24  O   LIG A   1      -7.441   4.803 133.351  0.00  0.00    -0.365 OA
ATOM     25  C   LIG A   1      -7.891   5.557 134.480  0.00  0.00    +0.195 C 
ENDBRANCH   9  24
BRANCH   5  26
ATOM     26  C   LIG A   1      -6.242   4.460 128.993  0.00  0.00    +0.040 C 
BRANCH  26  27
ATOM     27  C   LIG A   1      -4.748   4.333 128.805  0.00  0.00    -0.034 C 
ATOM     28  C   LIG A   1      -3.904   5.367 128.667  0.00  0.00    +0.004 C 
ENDBRANCH  26  27
ENDBRANCH   5  26
TORSDOF 6
ENDMDL
MODEL 6
REMARK VINA RESULT:      -6.9      3.166      7.539
REMARK  Name = NuBBE_2017
REMARK  9 active torsions:
REMARK  status: ('A' for Active; 'I' for Inactive)
REMARK    1  A    between atoms: C_3  and  O_4
REMARK    2  A    between atoms: O_4  and  C_5
REMARK    3  A    between atoms: C_7  and  C_8
REMARK    4  A    between atoms: C_8  and  C_9
REMARK    5  A    between atoms: C_11  and  C_13
REMARK    6  A    between atoms: C_14  and  C_16
REMARK    7  A    between atoms: C_25  and  O_29
REMARK    8  A    between atoms: C_26  and  O_28
REMARK    9  A    between atoms: O_29  and  C_30
REMARK                            x       y       z     vdW  Elec       q    Type
REMARK                         _______ _______ _______ _____ _____    ______ ____
ROOT
ATOM      1  O   LIG A   1     -10.367   0.129 125.564  0.00  0.00    -0.286 OA
ATOM      2  C   LIG A   1      -9.160   0.001 125.397  0.00  0.00    +0.232 C 
ATOM      3  C   LIG A   1      -8.392   0.848 124.343  0.00  0.00    +0.162 C 
ATOM      4  C   LIG A   1      -7.028   0.841 124.449  0.00  0.00    +0.032 C 
ATOM      5  C   LIG A   1      -6.298   0.358 125.703  0.00  0.00    +0.028 C 
ATOM      6  C   LIG A   1      -5.848  -1.152 125.807  0.00  0.00    +0.009 C 
ATOM      7  C   LIG A   1      -5.355  -1.785 124.502  0.00  0.00    +0.009 C 
ATOM      8  C   LIG A   1      -7.068  -1.937 126.442  0.00  0.00    +0.065 C 
ATOM      9  C   LIG A   1      -8.323  -1.002 126.262  0.00  0.00    +0.168 C 
ATOM     10  C   LIG A   1      -7.375   0.288 126.788  0.00  0.00    +0.165 C 
ENDROOT
BRANCH   8  11
ATOM     11  C   LIG A   1      -6.898  -2.467 127.889  0.00  0.00    -0.037 A 
ATOM     12  C   LIG A   1      -8.043  -2.792 128.663  0.00  0.00    +0.008 A 
ATOM     13  C   LIG A   1      -7.932  -3.261 129.982  0.00  0.00    +0.050 A 
ATOM     14  C   LIG A   1      -6.673  -3.387 130.519  0.00  0.00    +0.166 A 
ATOM     15  O   LIG A   1      -6.377  -3.833 131.769  0.00  0.00    -0.453 OA
ATOM     16  C   LIG A   1      -4.936  -3.745 131.754  0.00  0.00    +0.466 C 
ATOM     17  O   LIG A   1      -4.409  -3.230 130.513  0.00  0.00    -0.453 OA
ATOM     18  C   LIG A   1      -5.555  -3.044 129.803  0.00  0.00    +0.167 A 
ATOM     19  C   LIG A   1      -5.634  -2.569 128.508  0.00  0.00    +0.053 A 
ENDBRANCH   8  11
BRANCH   3  20
ATOM     20  O   LIG A   1      -9.156   1.431 123.359  0.00  0.00    -0.492 OA
ATOM     21  C   LIG A   1      -8.712   2.693 122.890  0.00  0.00    +0.277 C 
ENDBRANCH   3  20
BRANCH  10  22
ATOM     22  O   LIG A   1      -8.064   1.507 127.074  0.00  0.00    -0.388 OA
ATOM     23  H   LIG A   1      -7.521   2.253 126.766  0.00  0.00    +0.210 HD
ENDBRANCH  10  22
BRANCH   9  24
ATOM     24  O   LIG A   1      -8.371  -1.569 124.759  0.00  0.00    -0.365 OA
ATOM     25  C   LIG A   1      -8.933  -2.875 124.595  0.00  0.00    +0.195 C 
ENDBRANCH   9  24
BRANCH   5  26
ATOM     26  C   LIG A   1      -5.073   1.290 125.979  0.00  0.00    +0.040 C 
BRANCH  26  27
ATOM     27  C   LIG A   1      -5.206   2.760 125.659  0.00  0.00    -0.034 C 
ATOM     28  C   LIG A   1      -4.283   3.692 125.944  0.00  0.00    +0.004 C 
ENDBRANCH  26  27
ENDBRANCH   5  26
TORSDOF 6
ENDMDL
MODEL 7
REMARK VINA RESULT:      -6.7      5.594      9.031
REMARK  Name = NuBBE_2017
REMARK  9 active torsions:
REMARK  status: ('A' for Active; 'I' for Inactive)
REMARK    1  A    between atoms: C_3  and  O_4
REMARK    2  A    between atoms: O_4  and  C_5
REMARK    3  A    between atoms: C_7  and  C_8
REMARK    4  A    between atoms: C_8  and  C_9
REMARK    5  A    between atoms: C_11  and  C_13
REMARK    6  A    between atoms: C_14  and  C_16
REMARK    7  A    between atoms: C_25  and  O_29
REMARK    8  A    between atoms: C_26  and  O_28
REMARK    9  A    between atoms: O_29  and  C_30
REMARK                            x       y       z     vdW  Elec       q    Type
REMARK                         _______ _______ _______ _____ _____    ______ ____
ROOT
ATOM      1  O   LIG A   1      -4.006   0.285 130.722  0.00  0.00    -0.286 OA
ATOM      2  C   LIG A   1      -4.531  -0.745 131.129  0.00  0.00    +0.232 C 
ATOM      3  C   LIG A   1      -4.419  -1.179 132.618  0.00  0.00    +0.162 C 
ATOM      4  C   LIG A   1      -5.280  -2.166 133.019  0.00  0.00    +0.032 C 
ATOM      5  C   LIG A   1      -6.511  -2.571 132.208  0.00  0.00    +0.028 C 
ATOM      6  C   LIG A   1      -6.396  -3.743 131.156  0.00  0.00    +0.009 C 
ATOM      7  C   LIG A   1      -5.494  -4.910 131.565  0.00  0.00    +0.009 C 
ATOM      8  C   LIG A   1      -5.948  -3.075 129.792  0.00  0.00    +0.065 C 
ATOM      9  C   LIG A   1      -5.371  -1.660 130.174  0.00  0.00    +0.168 C 
ATOM     10  C   LIG A   1      -6.701  -1.447 131.187  0.00  0.00    +0.165 C 
ENDROOT
BRANCH   8  11
ATOM     11  C   LIG A   1      -6.991  -3.025 128.647  0.00  0.00    -0.037 A 
ATOM     12  C   LIG A   1      -8.177  -3.801 128.735  0.00  0.00    +0.008 A 
ATOM     13  C   LIG A   1      -9.140  -3.795 127.712  0.00  0.00    +0.050 A 
ATOM     14  C   LIG A   1      -8.898  -3.022 126.602  0.00  0.00    +0.166 A 
ATOM     15  O   LIG A   1      -9.718  -2.887 125.526  0.00  0.00    -0.453 OA
ATOM     16  C   LIG A   1      -8.951  -1.975 124.712  0.00  0.00    +0.466 C 
ATOM     17  O   LIG A   1      -7.687  -1.606 125.305  0.00  0.00    -0.453 OA
ATOM     18  C   LIG A   1      -7.743  -2.294 126.478  0.00  0.00    +0.167 A 
ATOM     19  C   LIG A   1      -6.772  -2.289 127.463  0.00  0.00    +0.053 A 
ENDBRANCH   8  11
BRANCH   3  20
ATOM     20  O   LIG A   1      -3.405  -0.602 133.346  0.00  0.00    -0.492 OA
ATOM     21  C   LIG A   1      -2.211  -1.356 133.461  0.00  0.00    +0.277 C 
ENDBRANCH   3  20
BRANCH  10  22
ATOM     22  O   LIG A   1      -6.890  -0.134 131.720  0.00  0.00    -0.388 OA
ATOM     23  H   LIG A   1      -6.840  -0.180 132.690  0.00  0.00    +0.210 HD
ENDBRANCH  10  22
BRANCH   9  24
ATOM     24  O   LIG A   1      -4.027  -2.452 130.558  0.00  0.00    -0.365 OA
ATOM     25  C   LIG A   1      -3.240  -2.928 129.462  0.00  0.00    +0.195 C 
ENDBRANCH   9  24
BRANCH   5  26
ATOM     26  C   LIG A   1      -7.702  -2.854 133.181  0.00  0.00    +0.040 C 
BRANCH  26  27
ATOM     27  C   LIG A   1      -7.391  -3.434 134.541  0.00  0.00    -0.034 C 
ATOM     28  C   LIG A   1      -7.393  -4.744 134.833  0.00  0.00    +0.004 C 
ENDBRANCH  26  27
ENDBRANCH   5  26
TORSDOF 6
ENDMDL
MODEL 8
REMARK VINA RESULT:      -6.7      3.339      6.301
REMARK  Name = NuBBE_2017
REMARK  9 active torsions:
REMARK  status: ('A' for Active; 'I' for Inactive)
REMARK    1  A    between atoms: C_3  and  O_4
REMARK    2  A    between atoms: O_4  and  C_5
REMARK    3  A    between atoms: C_7  and  C_8
REMARK    4  A    between atoms: C_8  and  C_9
REMARK    5  A    between atoms: C_11  and  C_13
REMARK    6  A    between atoms: C_14  and  C_16
REMARK    7  A    between atoms: C_25  and  O_29
REMARK    8  A    between atoms: C_26  and  O_28
REMARK    9  A    between atoms: O_29  and  C_30
REMARK                            x       y       z     vdW  Elec       q    Type
REMARK                         _______ _______ _______ _____ _____    ______ ____
ROOT
ATOM      1  O   LIG A   1     -10.120  -0.152 125.355  0.00  0.00    -0.286 OA
ATOM      2  C   LIG A   1      -9.018   0.384 125.330  0.00  0.00    +0.232 C 
ATOM      3  C   LIG A   1      -8.119   0.331 124.063  0.00  0.00    +0.162 C 
ATOM      4  C   LIG A   1      -7.063   1.203 124.043  0.00  0.00    +0.032 C 
ATOM      5  C   LIG A   1      -6.957   2.397 124.991  0.00  0.00    +0.028 C 
ATOM      6  C   LIG A   1      -6.194   2.233 126.363  0.00  0.00    +0.009 C 
ATOM      7  C   LIG A   1      -4.949   1.342 126.324  0.00  0.00    +0.009 C 
ATOM      8  C   LIG A   1      -7.268   1.733 127.414  0.00  0.00    +0.065 C 
ATOM      9  C   LIG A   1      -8.475   1.179 126.566  0.00  0.00    +0.168 C 
ATOM     10  C   LIG A   1      -8.356   2.551 125.594  0.00  0.00    +0.165 C 
ENDROOT
BRANCH   8  11
ATOM     11  C   LIG A   1      -7.700   2.728 128.521  0.00  0.00    -0.037 A 
ATOM     12  C   LIG A   1      -8.860   2.466 129.297  0.00  0.00    +0.008 A 
ATOM     13  C   LIG A   1      -9.292   3.350 130.298  0.00  0.00    +0.050 A 
ATOM     14  C   LIG A   1      -8.565   4.498 130.505  0.00  0.00    +0.166 A 
ATOM     15  O   LIG A   1      -8.828   5.456 131.433  0.00  0.00    -0.453 OA
ATOM     16  C   LIG A   1      -7.752   6.384 131.177  0.00  0.00    +0.466 C 
ATOM     17  O   LIG A   1      -6.890   5.974 130.094  0.00  0.00    -0.453 OA
ATOM     18  C   LIG A   1      -7.463   4.791 129.743  0.00  0.00    +0.167 A 
ATOM     19  C   LIG A   1      -7.020   3.946 128.743  0.00  0.00    +0.053 A 
ENDBRANCH   8  11
BRANCH   3  20
ATOM     20  O   LIG A   1      -8.417  -0.649 123.146  0.00  0.00    -0.492 OA
ATOM     21  C   LIG A   1      -7.438  -1.659 122.970  0.00  0.00    +0.277 C 
ENDBRANCH   3  20
BRANCH  10  22
ATOM     22  O   LIG A   1      -9.422   2.768 124.668  0.00  0.00    -0.388 OA
ATOM     23  H   LIG A   1     -10.193   3.112 125.153  0.00  0.00    +0.210 HD
ENDBRANCH  10  22
BRANCH   9  24
ATOM     24  O   LIG A   1      -7.589  -0.152 126.409  0.00  0.00    -0.365 OA
ATOM     25  C   LIG A   1      -7.562  -1.029 127.539  0.00  0.00    +0.195 C 
ENDBRANCH   9  24
BRANCH   5  26
ATOM     26  C   LIG A   1      -6.381   3.625 124.214  0.00  0.00    +0.040 C 
BRANCH  26  27
ATOM     27  C   LIG A   1      -6.309   3.549 122.707  0.00  0.00    -0.034 C 
ATOM     28  C   LIG A   1      -5.395   4.178 121.952  0.00  0.00    +0.004 C 
ENDBRANCH  26  27
ENDBRANCH   5  26
TORSDOF 6
ENDMDL
MODEL 9
REMARK VINA RESULT:      -6.7      2.914      4.986
REMARK  Name = NuBBE_2017
REMARK  9 active torsions:
REMARK  status: ('A' for Active; 'I' for Inactive)
REMARK    1  A    between atoms: C_3  and  O_4
REMARK    2  A    between atoms: O_4  and  C_5
REMARK    3  A    between atoms: C_7  and  C_8
REMARK    4  A    between atoms: C_8  and  C_9
REMARK    5  A    between atoms: C_11  and  C_13
REMARK    6  A    between atoms: C_14  and  C_16
REMARK    7  A    between atoms: C_25  and  O_29
REMARK    8  A    between atoms: C_26  and  O_28
REMARK    9  A    between atoms: O_29  and  C_30
REMARK                            x       y       z     vdW  Elec       q    Type
REMARK                         _______ _______ _______ _____ _____    ______ ____
ROOT
ATOM      1  O   LIG A   1      -5.592   5.335 128.091  0.00  0.00    -0.286 OA
ATOM      2  C   LIG A   1      -5.924   4.217 127.714  0.00  0.00    +0.232 C 
ATOM      3  C   LIG A   1      -6.511   3.169 128.702  0.00  0.00    +0.162 C 
ATOM      4  C   LIG A   1      -7.117   2.083 128.130  0.00  0.00    +0.032 C 
ATOM      5  C   LIG A   1      -7.532   2.046 126.659  0.00  0.00    +0.028 C 
ATOM      6  C   LIG A   1      -6.531   1.469 125.584  0.00  0.00    +0.009 C 
ATOM      7  C   LIG A   1      -5.696   0.267 126.038  0.00  0.00    +0.009 C 
ATOM      8  C   LIG A   1      -5.637   2.686 125.107  0.00  0.00    +0.065 C 
ATOM      9  C   LIG A   1      -5.803   3.800 126.210  0.00  0.00    +0.168 C 
ATOM     10  C   LIG A   1      -7.462   3.501 126.189  0.00  0.00    +0.165 C 
ENDROOT
BRANCH   8  11
ATOM     11  C   LIG A   1      -5.857   3.210 123.665  0.00  0.00    -0.037 A 
ATOM     12  C   LIG A   1      -6.895   2.665 122.865  0.00  0.00    +0.008 A 
ATOM     13  C   LIG A   1      -7.118   3.102 121.548  0.00  0.00    +0.050 A 
ATOM     14  C   LIG A   1      -6.288   4.073 121.041  0.00  0.00    +0.166 A 
ATOM     15  O   LIG A   1      -6.362   4.620 119.799  0.00  0.00    -0.453 OA
ATOM     16  C   LIG A   1      -5.263   5.554 119.847  0.00  0.00    +0.466 C 
ATOM     17  O   LIG A   1      -4.546   5.528 121.101  0.00  0.00    -0.453 OA
ATOM     18  C   LIG A   1      -5.256   4.588 121.783  0.00  0.00    +0.167 A 
ATOM     19  C   LIG A   1      -5.006   4.170 123.076  0.00  0.00    +0.053 A 
ENDBRANCH   8  11
BRANCH   3  20
ATOM     20  O   LIG A   1      -6.272   3.392 130.038  0.00  0.00    -0.492 OA
ATOM     21  C   LIG A   1      -5.250   2.608 130.629  0.00  0.00    +0.277 C 
ENDBRANCH   3  20
BRANCH  10  22
ATOM     22  O   LIG A   1      -8.283   4.434 126.895  0.00  0.00    -0.388 OA
ATOM     23  H   LIG A   1      -9.016   3.951 127.314  0.00  0.00    +0.210 HD
ENDBRANCH  10  22
BRANCH   9  24
ATOM     24  O   LIG A   1      -4.716   2.958 127.043  0.00  0.00    -0.365 OA
ATOM     25  C   LIG A   1      -3.355   3.096 126.623  0.00  0.00    +0.195 C 
ENDBRANCH   9  24
BRANCH   5  26
ATOM     26  C   LIG A   1      -8.914   1.326 126.529  0.00  0.00    +0.040 C 
BRANCH  26  27
ATOM     27  C   LIG A   1      -9.309   0.776 125.178  0.00  0.00    -0.034 C 
ATOM     28  C   LIG A   1     -10.103   1.405 124.298  0.00  0.00    +0.004 C 
ENDBRANCH  26  27
ENDBRANCH   5  26
TORSDOF 6
ENDMDL
