MODEL 1
REMARK VINA RESULT:      -7.1      0.000      0.000
REMARK  Name = NuBBE_1881
REMARK  17 active torsions:
REMARK  status: ('A' for Active; 'I' for Inactive)
REMARK    1  A    between atoms: C_4  and  O_34
REMARK    2  A    between atoms: C_5  and  O_6
REMARK    3  A    between atoms: O_6  and  C_7
REMARK    4  A    between atoms: C_8  and  O_32
REMARK    5  A    between atoms: C_12  and  C_13
REMARK    6  A    between atoms: C_15  and  O_16
REMARK    7  A    between atoms: O_16  and  C_17
REMARK    8  A    between atoms: C_17  and  C_18
REMARK    9  A    between atoms: C_20  and  O_27
REMARK   10  A    between atoms: C_22  and  O_23
REMARK   11  A    between atoms: O_23  and  C_24
REMARK   12  A    between atoms: C_24  and  C_25
REMARK   13  A    between atoms: O_27  and  C_28
REMARK   14  A    between atoms: C_29  and  O_30
REMARK   15  A    between atoms: O_30  and  C_31
REMARK   16  A    between atoms: O_32  and  C_33
REMARK   17  A    between atoms: O_34  and  C_35
REMARK                            x       y       z     vdW  Elec       q    Type
REMARK                         _______ _______ _______ _____ _____    ______ ____
ROOT
ATOM      1  O   LIG A   1      -8.074   5.196 128.696  0.00  0.00    -0.283 OA
ATOM      2  C   LIG A   1      -7.463   4.216 128.299  0.00  0.00    +0.238 A 
ATOM      3  C   LIG A   1      -6.024   4.251 127.952  0.00  0.00    +0.113 A 
ATOM      4  C   LIG A   1      -5.031   4.961 128.654  0.00  0.00    +0.180 A 
ATOM      5  C   LIG A   1      -3.681   4.862 128.215  0.00  0.00    +0.204 A 
ATOM      6  C   LIG A   1      -3.384   4.120 127.044  0.00  0.00    +0.169 A 
ATOM      7  C   LIG A   1      -4.387   3.393 126.408  0.00  0.00    +0.096 A 
ATOM      8  C   LIG A   1      -5.679   3.439 126.881  0.00  0.00    +0.147 A 
ATOM      9  O   LIG A   1      -6.571   2.592 126.279  0.00  0.00    -0.451 OA
ATOM     10  C   LIG A   1      -7.582   2.127 127.100  0.00  0.00    +0.184 A 
ATOM     11  C   LIG A   1      -8.106   2.866 128.099  0.00  0.00    +0.211 A 
ENDROOT
BRANCH  10  12
ATOM     12  C   LIG A   1      -7.955   0.739 126.775  0.00  0.00    +0.067 A 
ATOM     13  C   LIG A   1      -7.189  -0.321 127.299  0.00  0.00    +0.065 A 
ATOM     14  C   LIG A   1      -7.479  -1.648 126.946  0.00  0.00    +0.174 A 
ATOM     15  C   LIG A   1      -8.545  -1.939 126.085  0.00  0.00    +0.166 A 
ATOM     16  C   LIG A   1      -9.272  -0.889 125.530  0.00  0.00    +0.096 A 
ATOM     17  C   LIG A   1      -9.000   0.435 125.892  0.00  0.00    +0.146 A 
BRANCH  15  18
ATOM     18  O   LIG A   1      -8.927  -3.245 125.939  0.00  0.00    -0.491 OA
ATOM     19  C   LIG A   1      -9.103  -3.690 124.599  0.00  0.00    +0.277 C 
ENDBRANCH  15  18
BRANCH  14  20
ATOM     20  O   LIG A   1      -6.737  -2.656 127.597  0.00  0.00    -0.422 OA
BRANCH  20  21
ATOM     21  C   LIG A   1      -6.801  -2.701 128.996  0.00  0.00    +0.309 C 
ATOM     22  C   LIG A   1      -8.155  -3.233 129.391  0.00  0.00    +0.136 C 
ATOM     23  O   LIG A   1      -5.916  -2.375 129.764  0.00  0.00    -0.251 OA
ENDBRANCH  20  21
ENDBRANCH  14  20
BRANCH  17  24
ATOM     24  O   LIG A   1      -9.726   1.516 125.335  0.00  0.00    -0.425 OA
BRANCH  24  25
ATOM     25  C   LIG A   1     -10.086   1.516 123.985  0.00  0.00    +0.309 C 
ATOM     26  C   LIG A   1      -8.994   2.160 123.193  0.00  0.00    +0.136 C 
ATOM     27  O   LIG A   1     -11.107   1.053 123.485  0.00  0.00    -0.251 OA
ENDBRANCH  24  25
ENDBRANCH  17  24
ENDBRANCH  10  12
BRANCH   5  28
ATOM     28  O   LIG A   1      -2.745   5.637 128.852  0.00  0.00    -0.488 OA
ATOM     29  C   LIG A   1      -2.405   6.911 128.305  0.00  0.00    +0.277 C 
ENDBRANCH   5  28
BRANCH  11  30
ATOM     30  O   LIG A   1      -9.140   2.403 128.890  0.00  0.00    -0.488 OA
ATOM     31  C   LIG A   1      -8.753   2.059 130.218  0.00  0.00    +0.277 C 
ENDBRANCH  11  30
BRANCH   6  32
ATOM     32  O   LIG A   1      -2.101   4.110 126.559  0.00  0.00    -0.491 OA
ATOM     33  C   LIG A   1      -1.443   2.846 126.536  0.00  0.00    +0.277 C 
ENDBRANCH   6  32
BRANCH   4  34
ATOM     34  O   LIG A   1      -5.482   5.711 129.710  0.00  0.00    -0.490 OA
ATOM     35  C   LIG A   1      -5.302   5.204 131.026  0.00  0.00    +0.277 C 
ENDBRANCH   4  34
TORSDOF 10
ENDMDL
MODEL 2
REMARK VINA RESULT:      -6.9      2.665      6.187
REMARK  Name = NuBBE_1881
REMARK  17 active torsions:
REMARK  status: ('A' for Active; 'I' for Inactive)
REMARK    1  A    between atoms: C_4  and  O_34
REMARK    2  A    between atoms: C_5  and  O_6
REMARK    3  A    between atoms: O_6  and  C_7
REMARK    4  A    between atoms: C_8  and  O_32
REMARK    5  A    between atoms: C_12  and  C_13
REMARK    6  A    between atoms: C_15  and  O_16
REMARK    7  A    between atoms: O_16  and  C_17
REMARK    8  A    between atoms: C_17  and  C_18
REMARK    9  A    between atoms: C_20  and  O_27
REMARK   10  A    between atoms: C_22  and  O_23
REMARK   11  A    between atoms: O_23  and  C_24
REMARK   12  A    between atoms: C_24  and  C_25
REMARK   13  A    between atoms: O_27  and  C_28
REMARK   14  A    between atoms: C_29  and  O_30
REMARK   15  A    between atoms: O_30  and  C_31
REMARK   16  A    between atoms: O_32  and  C_33
REMARK   17  A    between atoms: O_34  and  C_35
REMARK                            x       y       z     vdW  Elec       q    Type
REMARK                         _______ _______ _______ _____ _____    ______ ____
ROOT
ATOM      1  O   LIG A   1      -8.547  -0.218 130.803  0.00  0.00    -0.283 OA
ATOM      2  C   LIG A   1      -8.307   0.878 130.323  0.00  0.00    +0.238 A 
ATOM      3  C   LIG A   1      -8.695   2.148 130.980  0.00  0.00    +0.113 A 
ATOM      4  C   LIG A   1      -8.634   2.405 132.363  0.00  0.00    +0.180 A 
ATOM      5  C   LIG A   1      -9.009   3.692 132.836  0.00  0.00    +0.204 A 
ATOM      6  C   LIG A   1      -9.506   4.653 131.919  0.00  0.00    +0.169 A 
ATOM      7  C   LIG A   1      -9.504   4.376 130.554  0.00  0.00    +0.096 A 
ATOM      8  C   LIG A   1      -9.073   3.150 130.098  0.00  0.00    +0.147 A 
ATOM      9  O   LIG A   1      -8.979   3.012 128.739  0.00  0.00    -0.451 OA
ATOM     10  C   LIG A   1      -7.980   2.158 128.306  0.00  0.00    +0.184 A 
ATOM     11  C   LIG A   1      -7.604   1.067 129.001  0.00  0.00    +0.211 A 
ENDROOT
BRANCH  10  12
ATOM     12  C   LIG A   1      -7.371   2.624 127.047  0.00  0.00    +0.067 A 
ATOM     13  C   LIG A   1      -6.105   3.241 127.081  0.00  0.00    +0.065 A 
ATOM     14  C   LIG A   1      -5.536   3.758 125.907  0.00  0.00    +0.174 A 
ATOM     15  C   LIG A   1      -6.209   3.651 124.683  0.00  0.00    +0.166 A 
ATOM     16  C   LIG A   1      -7.480   3.084 124.657  0.00  0.00    +0.096 A 
ATOM     17  C   LIG A   1      -8.045   2.550 125.821  0.00  0.00    +0.146 A 
BRANCH  15  18
ATOM     18  O   LIG A   1      -5.532   3.970 123.537  0.00  0.00    -0.491 OA
ATOM     19  C   LIG A   1      -6.161   3.583 122.321  0.00  0.00    +0.277 C 
ENDBRANCH  15  18
BRANCH  14  20
ATOM     20  O   LIG A   1      -4.221   4.261 126.006  0.00  0.00    -0.422 OA
BRANCH  20  21
ATOM     21  C   LIG A   1      -3.923   5.072 127.109  0.00  0.00    +0.309 C 
ATOM     22  C   LIG A   1      -2.780   4.444 127.862  0.00  0.00    +0.136 C 
ATOM     23  O   LIG A   1      -4.484   6.110 127.406  0.00  0.00    -0.251 OA
ENDBRANCH  20  21
ENDBRANCH  14  20
BRANCH  17  24
ATOM     24  O   LIG A   1      -9.339   1.973 125.814  0.00  0.00    -0.425 OA
BRANCH  24  25
ATOM     25  C   LIG A   1      -9.618   0.853 125.027  0.00  0.00    +0.309 C 
ATOM     26  C   LIG A   1      -8.962  -0.344 125.638  0.00  0.00    +0.136 C 
ATOM     27  O   LIG A   1     -10.303   0.808 124.009  0.00  0.00    -0.251 OA
ENDBRANCH  24  25
ENDBRANCH  17  24
ENDBRANCH  10  12
BRANCH   5  28
ATOM     28  O   LIG A   1      -9.036   3.891 134.194  0.00  0.00    -0.488 OA
ATOM     29  C   LIG A   1      -7.945   4.565 134.822  0.00  0.00    +0.277 C 
ENDBRANCH   5  28
BRANCH  11  30
ATOM     30  O   LIG A   1      -6.630   0.202 128.541  0.00  0.00    -0.488 OA
ATOM     31  C   LIG A   1      -5.406   0.257 129.268  0.00  0.00    +0.277 C 
ENDBRANCH  11  30
BRANCH   6  32
ATOM     32  O   LIG A   1      -9.966   5.857 132.384  0.00  0.00    -0.491 OA
ATOM     33  C   LIG A   1     -11.192   6.325 131.828  0.00  0.00    +0.277 C 
ENDBRANCH   6  32
BRANCH   4  34
ATOM     34  O   LIG A   1      -8.224   1.349 133.138  0.00  0.00    -0.490 OA
ATOM     35  C   LIG A   1      -6.856   1.282 133.519  0.00  0.00    +0.277 C 
ENDBRANCH   4  34
TORSDOF 10
ENDMDL
MODEL 3
REMARK VINA RESULT:      -6.8      1.670      7.864
REMARK  Name = NuBBE_1881
REMARK  17 active torsions:
REMARK  status: ('A' for Active; 'I' for Inactive)
REMARK    1  A    between atoms: C_4  and  O_34
REMARK    2  A    between atoms: C_5  and  O_6
REMARK    3  A    between atoms: O_6  and  C_7
REMARK    4  A    between atoms: C_8  and  O_32
REMARK    5  A    between atoms: C_12  and  C_13
REMARK    6  A    between atoms: C_15  and  O_16
REMARK    7  A    between atoms: O_16  and  C_17
REMARK    8  A    between atoms: C_17  and  C_18
REMARK    9  A    between atoms: C_20  and  O_27
REMARK   10  A    between atoms: C_22  and  O_23
REMARK   11  A    between atoms: O_23  and  C_24
REMARK   12  A    between atoms: C_24  and  C_25
REMARK   13  A    between atoms: O_27  and  C_28
REMARK   14  A    between atoms: C_29  and  O_30
REMARK   15  A    between atoms: O_30  and  C_31
REMARK   16  A    between atoms: O_32  and  C_33
REMARK   17  A    between atoms: O_34  and  C_35
REMARK                            x       y       z     vdW  Elec       q    Type
REMARK                         _______ _______ _______ _____ _____    ______ ____
ROOT
ATOM      1  O   LIG A   1      -5.208  -2.120 127.747  0.00  0.00    -0.283 OA
ATOM      2  C   LIG A   1      -5.857  -1.089 127.652  0.00  0.00    +0.238 A 
ATOM      3  C   LIG A   1      -6.954  -0.916 126.672  0.00  0.00    +0.113 A 
ATOM      4  C   LIG A   1      -7.897  -1.899 126.318  0.00  0.00    +0.180 A 
ATOM      5  C   LIG A   1      -8.916  -1.563 125.385  0.00  0.00    +0.204 A 
ATOM      6  C   LIG A   1      -8.910  -0.281 124.779  0.00  0.00    +0.169 A 
ATOM      7  C   LIG A   1      -7.989   0.678 125.193  0.00  0.00    +0.096 A 
ATOM      8  C   LIG A   1      -7.048   0.366 126.149  0.00  0.00    +0.147 A 
ATOM      9  O   LIG A   1      -6.272   1.403 126.591  0.00  0.00    -0.451 OA
ATOM     10  C   LIG A   1      -5.863   1.308 127.909  0.00  0.00    +0.184 A 
ATOM     11  C   LIG A   1      -5.605   0.128 128.507  0.00  0.00    +0.211 A 
ENDROOT
BRANCH  10  12
ATOM     12  C   LIG A   1      -5.805   2.629 128.560  0.00  0.00    +0.067 A 
ATOM     13  C   LIG A   1      -6.975   3.169 129.129  0.00  0.00    +0.065 A 
ATOM     14  C   LIG A   1      -6.962   4.456 129.690  0.00  0.00    +0.174 A 
ATOM     15  C   LIG A   1      -5.784   5.212 129.710  0.00  0.00    +0.166 A 
ATOM     16  C   LIG A   1      -4.640   4.698 129.105  0.00  0.00    +0.096 A 
ATOM     17  C   LIG A   1      -4.641   3.409 128.560  0.00  0.00    +0.146 A 
BRANCH  15  18
ATOM     18  O   LIG A   1      -5.759   6.361 130.452  0.00  0.00    -0.491 OA
ATOM     19  C   LIG A   1      -4.947   6.325 131.619  0.00  0.00    +0.277 C 
ENDBRANCH  15  18
BRANCH  14  20
ATOM     20  O   LIG A   1      -8.143   4.879 130.336  0.00  0.00    -0.422 OA
BRANCH  20  21
ATOM     21  C   LIG A   1      -8.972   5.771 129.644  0.00  0.00    +0.309 C 
ATOM     22  C   LIG A   1      -9.342   6.895 130.577  0.00  0.00    +0.136 C 
ATOM     23  O   LIG A   1      -9.327   5.666 128.485  0.00  0.00    -0.251 OA
ENDBRANCH  20  21
ENDBRANCH  14  20
BRANCH  17  24
ATOM     24  O   LIG A   1      -3.487   2.871 127.937  0.00  0.00    -0.425 OA
BRANCH  24  25
ATOM     25  C   LIG A   1      -3.071   3.330 126.685  0.00  0.00    +0.309 C 
ATOM     26  C   LIG A   1      -1.615   3.036 126.521  0.00  0.00    +0.136 C 
ATOM     27  O   LIG A   1      -3.759   3.868 125.822  0.00  0.00    -0.251 OA
ENDBRANCH  24  25
ENDBRANCH  17  24
ENDBRANCH  10  12
BRANCH   5  28
ATOM     28  O   LIG A   1      -9.767  -2.562 124.981  0.00  0.00    -0.488 OA
ATOM     29  C   LIG A   1      -9.412  -3.368 123.858  0.00  0.00    +0.277 C 
ENDBRANCH   5  28
BRANCH  11  30
ATOM     30  O   LIG A   1      -5.163   0.048 129.814  0.00  0.00    -0.488 OA
ATOM     31  C   LIG A   1      -6.142  -0.424 130.735  0.00  0.00    +0.277 C 
ENDBRANCH  11  30
BRANCH   6  32
ATOM     32  O   LIG A   1      -9.827   0.009 123.802  0.00  0.00    -0.491 OA
ATOM     33  C   LIG A   1      -9.824   1.345 123.308  0.00  0.00    +0.277 C 
ENDBRANCH   6  32
BRANCH   4  34
ATOM     34  O   LIG A   1      -7.722  -3.122 126.915  0.00  0.00    -0.490 OA
ATOM     35  C   LIG A   1      -8.560  -3.467 128.010  0.00  0.00    +0.277 C 
ENDBRANCH   4  34
TORSDOF 10
ENDMDL
MODEL 4
REMARK VINA RESULT:      -6.6      1.672      7.697
REMARK  Name = NuBBE_1881
REMARK  17 active torsions:
REMARK  status: ('A' for Active; 'I' for Inactive)
REMARK    1  A    between atoms: C_4  and  O_34
REMARK    2  A    between atoms: C_5  and  O_6
REMARK    3  A    between atoms: O_6  and  C_7
REMARK    4  A    between atoms: C_8  and  O_32
REMARK    5  A    between atoms: C_12  and  C_13
REMARK    6  A    between atoms: C_15  and  O_16
REMARK    7  A    between atoms: O_16  and  C_17
REMARK    8  A    between atoms: C_17  and  C_18
REMARK    9  A    between atoms: C_20  and  O_27
REMARK   10  A    between atoms: C_22  and  O_23
REMARK   11  A    between atoms: O_23  and  C_24
REMARK   12  A    between atoms: C_24  and  C_25
REMARK   13  A    between atoms: O_27  and  C_28
REMARK   14  A    between atoms: C_29  and  O_30
REMARK   15  A    between atoms: O_30  and  C_31
REMARK   16  A    between atoms: O_32  and  C_33
REMARK   17  A    between atoms: O_34  and  C_35
REMARK                            x       y       z     vdW  Elec       q    Type
REMARK                         _______ _______ _______ _____ _____    ______ ____
ROOT
ATOM      1  O   LIG A   1      -9.267   2.529 125.175  0.00  0.00    -0.283 OA
ATOM      2  C   LIG A   1      -8.460   2.346 126.073  0.00  0.00    +0.238 A 
ATOM      3  C   LIG A   1      -8.105   0.997 126.573  0.00  0.00    +0.113 A 
ATOM      4  C   LIG A   1      -7.936  -0.151 125.777  0.00  0.00    +0.180 A 
ATOM      5  C   LIG A   1      -7.557  -1.369 126.406  0.00  0.00    +0.204 A 
ATOM      6  C   LIG A   1      -7.436  -1.414 127.818  0.00  0.00    +0.169 A 
ATOM      7  C   LIG A   1      -7.563  -0.245 128.564  0.00  0.00    +0.096 A 
ATOM      8  C   LIG A   1      -7.862   0.945 127.937  0.00  0.00    +0.147 A 
ATOM      9  O   LIG A   1      -7.836   2.063 128.727  0.00  0.00    -0.451 OA
ATOM     10  C   LIG A   1      -7.457   3.227 128.081  0.00  0.00    +0.184 A 
ATOM     11  C   LIG A   1      -7.747   3.468 126.787  0.00  0.00    +0.211 A 
ENDROOT
BRANCH  10  12
ATOM     12  C   LIG A   1      -6.673   4.110 128.962  0.00  0.00    +0.067 A 
ATOM     13  C   LIG A   1      -5.265   4.053 128.919  0.00  0.00    +0.065 A 
ATOM     14  C   LIG A   1      -4.497   4.831 129.799  0.00  0.00    +0.174 A 
ATOM     15  C   LIG A   1      -5.116   5.688 130.717  0.00  0.00    +0.166 A 
ATOM     16  C   LIG A   1      -6.507   5.710 130.792  0.00  0.00    +0.096 A 
ATOM     17  C   LIG A   1      -7.279   4.950 129.906  0.00  0.00    +0.146 A 
BRANCH  15  18
ATOM     18  O   LIG A   1      -4.338   6.582 131.401  0.00  0.00    -0.491 OA
ATOM     19  C   LIG A   1      -4.267   6.388 132.809  0.00  0.00    +0.277 C 
ENDBRANCH  15  18
BRANCH  14  20
ATOM     20  O   LIG A   1      -3.098   4.799 129.619  0.00  0.00    -0.422 OA
BRANCH  20  21
ATOM     21  C   LIG A   1      -2.604   5.134 128.351  0.00  0.00    +0.309 C 
ATOM     22  C   LIG A   1      -2.542   6.636 128.249  0.00  0.00    +0.136 C 
ATOM     23  O   LIG A   1      -2.274   4.349 127.482  0.00  0.00    -0.251 OA
ENDBRANCH  20  21
ENDBRANCH  14  20
BRANCH  17  24
ATOM     24  O   LIG A   1      -8.694   4.956 129.970  0.00  0.00    -0.425 OA
BRANCH  24  25
ATOM     25  C   LIG A   1      -9.432   5.981 129.373  0.00  0.00    +0.309 C 
ATOM     26  C   LIG A   1      -9.954   6.887 130.441  0.00  0.00    +0.136 C 
ATOM     27  O   LIG A   1      -9.626   6.160 128.174  0.00  0.00    -0.251 OA
ENDBRANCH  24  25
ENDBRANCH  17  24
ENDBRANCH  10  12
BRANCH   5  28
ATOM     28  O   LIG A   1      -7.492  -2.498 125.627  0.00  0.00    -0.488 OA
ATOM     29  C   LIG A   1      -8.681  -3.250 125.389  0.00  0.00    +0.277 C 
ENDBRANCH   5  28
BRANCH  11  30
ATOM     30  O   LIG A   1      -7.394   4.648 126.163  0.00  0.00    -0.488 OA
ATOM     31  C   LIG A   1      -6.318   4.523 125.237  0.00  0.00    +0.277 C 
ENDBRANCH  11  30
BRANCH   6  32
ATOM     32  O   LIG A   1      -7.173  -2.610 128.436  0.00  0.00    -0.491 OA
ATOM     33  C   LIG A   1      -8.253  -3.203 129.151  0.00  0.00    +0.277 C 
ENDBRANCH   6  32
BRANCH   4  34
ATOM     34  O   LIG A   1      -8.179   0.022 124.437  0.00  0.00    -0.490 OA
ATOM     35  C   LIG A   1      -7.068   0.139 123.558  0.00  0.00    +0.277 C 
ENDBRANCH   4  34
TORSDOF 10
ENDMDL
MODEL 5
REMARK VINA RESULT:      -6.6      2.921      6.768
REMARK  Name = NuBBE_1881
REMARK  17 active torsions:
REMARK  status: ('A' for Active; 'I' for Inactive)
REMARK    1  A    between atoms: C_4  and  O_34
REMARK    2  A    between atoms: C_5  and  O_6
REMARK    3  A    between atoms: O_6  and  C_7
REMARK    4  A    between atoms: C_8  and  O_32
REMARK    5  A    between atoms: C_12  and  C_13
REMARK    6  A    between atoms: C_15  and  O_16
REMARK    7  A    between atoms: O_16  and  C_17
REMARK    8  A    between atoms: C_17  and  C_18
REMARK    9  A    between atoms: C_20  and  O_27
REMARK   10  A    between atoms: C_22  and  O_23
REMARK   11  A    between atoms: O_23  and  C_24
REMARK   12  A    between atoms: C_24  and  C_25
REMARK   13  A    between atoms: O_27  and  C_28
REMARK   14  A    between atoms: C_29  and  O_30
REMARK   15  A    between atoms: O_30  and  C_31
REMARK   16  A    between atoms: O_32  and  C_33
REMARK   17  A    between atoms: O_34  and  C_35
REMARK                            x       y       z     vdW  Elec       q    Type
REMARK                         _______ _______ _______ _____ _____    ______ ____
ROOT
ATOM      1  O   LIG A   1      -6.656  -2.812 124.825  0.00  0.00    -0.283 OA
ATOM      2  C   LIG A   1      -6.768  -2.006 125.736  0.00  0.00    +0.238 A 
ATOM      3  C   LIG A   1      -6.492  -0.561 125.569  0.00  0.00    +0.113 A 
ATOM      4  C   LIG A   1      -6.829   0.211 124.440  0.00  0.00    +0.180 A 
ATOM      5  C   LIG A   1      -6.528   1.601 124.448  0.00  0.00    +0.204 A 
ATOM      6  C   LIG A   1      -5.832   2.155 125.552  0.00  0.00    +0.169 A 
ATOM      7  C   LIG A   1      -5.561   1.368 126.669  0.00  0.00    +0.096 A 
ATOM      8  C   LIG A   1      -5.918   0.038 126.680  0.00  0.00    +0.147 A 
ATOM      9  O   LIG A   1      -5.736  -0.623 127.865  0.00  0.00    -0.451 OA
ATOM     10  C   LIG A   1      -6.644  -1.636 128.115  0.00  0.00    +0.184 A 
ATOM     11  C   LIG A   1      -7.180  -2.390 127.135  0.00  0.00    +0.211 A 
ENDROOT
BRANCH  10  12
ATOM     12  C   LIG A   1      -6.971  -1.735 129.548  0.00  0.00    +0.067 A 
ATOM     13  C   LIG A   1      -7.923  -0.854 130.100  0.00  0.00    +0.065 A 
ATOM     14  C   LIG A   1      -8.199  -0.880 131.476  0.00  0.00    +0.174 A 
ATOM     15  C   LIG A   1      -7.548  -1.792 132.316  0.00  0.00    +0.166 A 
ATOM     16  C   LIG A   1      -6.573  -2.629 131.779  0.00  0.00    +0.096 A 
ATOM     17  C   LIG A   1      -6.306  -2.622 130.406  0.00  0.00    +0.146 A 
BRANCH  15  18
ATOM     18  O   LIG A   1      -7.998  -1.932 133.601  0.00  0.00    -0.491 OA
ATOM     19  C   LIG A   1      -8.226  -3.268 134.033  0.00  0.00    +0.277 C 
ENDBRANCH  15  18
BRANCH  14  20
ATOM     20  O   LIG A   1      -9.241  -0.045 131.931  0.00  0.00    -0.422 OA
BRANCH  20  21
ATOM     21  C   LIG A   1      -8.898   1.253 132.332  0.00  0.00    +0.309 C 
ATOM     22  C   LIG A   1      -9.817   2.222 131.634  0.00  0.00    +0.136 C 
ATOM     23  O   LIG A   1      -8.016   1.550 133.115  0.00  0.00    -0.251 OA
ENDBRANCH  20  21
ENDBRANCH  14  20
BRANCH  17  24
ATOM     24  O   LIG A   1      -5.315  -3.463 129.842  0.00  0.00    -0.425 OA
BRANCH  24  25
ATOM     25  C   LIG A   1      -3.960  -3.247 130.104  0.00  0.00    +0.309 C 
ATOM     26  C   LIG A   1      -3.156  -3.765 128.955  0.00  0.00    +0.136 C 
ATOM     27  O   LIG A   1      -3.468  -2.704 131.089  0.00  0.00    -0.251 OA
ENDBRANCH  24  25
ENDBRANCH  17  24
ENDBRANCH  10  12
BRANCH   5  28
ATOM     28  O   LIG A   1      -6.775   2.315 123.302  0.00  0.00    -0.488 OA
ATOM     29  C   LIG A   1      -7.996   3.045 123.185  0.00  0.00    +0.277 C 
ENDBRANCH   5  28
BRANCH  11  30
ATOM     30  O   LIG A   1      -8.060  -3.422 127.400  0.00  0.00    -0.488 OA
ATOM     31  C   LIG A   1      -9.299  -3.331 126.702  0.00  0.00    +0.277 C 
ENDBRANCH  11  30
BRANCH   6  32
ATOM     32  O   LIG A   1      -5.448   3.471 125.517  0.00  0.00    -0.491 OA
ATOM     33  C   LIG A   1      -6.236   4.381 126.278  0.00  0.00    +0.277 C 
ENDBRANCH   6  32
BRANCH   4  34
ATOM     34  O   LIG A   1      -7.414  -0.481 123.410  0.00  0.00    -0.490 OA
ATOM     35  C   LIG A   1      -8.833  -0.496 123.325  0.00  0.00    +0.277 C 
ENDBRANCH   4  34
TORSDOF 10
ENDMDL
MODEL 6
REMARK VINA RESULT:      -6.5      2.403      5.331
REMARK  Name = NuBBE_1881
REMARK  17 active torsions:
REMARK  status: ('A' for Active; 'I' for Inactive)
REMARK    1  A    between atoms: C_4  and  O_34
REMARK    2  A    between atoms: C_5  and  O_6
REMARK    3  A    between atoms: O_6  and  C_7
REMARK    4  A    between atoms: C_8  and  O_32
REMARK    5  A    between atoms: C_12  and  C_13
REMARK    6  A    between atoms: C_15  and  O_16
REMARK    7  A    between atoms: O_16  and  C_17
REMARK    8  A    between atoms: C_17  and  C_18
REMARK    9  A    between atoms: C_20  and  O_27
REMARK   10  A    between atoms: C_22  and  O_23
REMARK   11  A    between atoms: O_23  and  C_24
REMARK   12  A    between atoms: C_24  and  C_25
REMARK   13  A    between atoms: O_27  and  C_28
REMARK   14  A    between atoms: C_29  and  O_30
REMARK   15  A    between atoms: O_30  and  C_31
REMARK   16  A    between atoms: O_32  and  C_33
REMARK   17  A    between atoms: O_34  and  C_35
REMARK                            x       y       z     vdW  Elec       q    Type
REMARK                         _______ _______ _______ _____ _____    ______ ____
ROOT
ATOM      1  O   LIG A   1      -7.603  -0.927 123.631  0.00  0.00    -0.283 OA
ATOM      2  C   LIG A   1      -7.347  -0.463 124.732  0.00  0.00    +0.238 A 
ATOM      3  C   LIG A   1      -6.624   0.817 124.917  0.00  0.00    +0.113 A 
ATOM      4  C   LIG A   1      -6.797   1.974 124.134  0.00  0.00    +0.180 A 
ATOM      5  C   LIG A   1      -6.051   3.140 124.464  0.00  0.00    +0.204 A 
ATOM      6  C   LIG A   1      -5.102   3.084 125.516  0.00  0.00    +0.169 A 
ATOM      7  C   LIG A   1      -4.997   1.935 126.296  0.00  0.00    +0.096 A 
ATOM      8  C   LIG A   1      -5.774   0.833 126.013  0.00  0.00    +0.147 A 
ATOM      9  O   LIG A   1      -5.703  -0.199 126.909  0.00  0.00    -0.451 OA
ATOM     10  C   LIG A   1      -6.866  -0.935 127.047  0.00  0.00    +0.184 A 
ATOM     11  C   LIG A   1      -7.720  -1.145 126.025  0.00  0.00    +0.211 A 
ENDROOT
BRANCH  10  12
ATOM     12  C   LIG A   1      -7.061  -1.395 128.433  0.00  0.00    +0.067 A 
ATOM     13  C   LIG A   1      -6.626  -2.685 128.799  0.00  0.00    +0.065 A 
ATOM     14  C   LIG A   1      -6.865  -3.174 130.093  0.00  0.00    +0.174 A 
ATOM     15  C   LIG A   1      -7.521  -2.381 131.043  0.00  0.00    +0.166 A 
ATOM     16  C   LIG A   1      -7.992  -1.125 130.668  0.00  0.00    +0.096 A 
ATOM     17  C   LIG A   1      -7.741  -0.625 129.386  0.00  0.00    +0.146 A 
BRANCH  15  18
ATOM     18  O   LIG A   1      -7.541  -2.806 132.344  0.00  0.00    -0.491 OA
ATOM     19  C   LIG A   1      -7.121  -1.852 133.312  0.00  0.00    +0.277 C 
ENDBRANCH  15  18
BRANCH  14  20
ATOM     20  O   LIG A   1      -6.304  -4.428 130.412  0.00  0.00    -0.422 OA
BRANCH  20  21
ATOM     21  C   LIG A   1      -5.038  -4.433 131.013  0.00  0.00    +0.309 C 
ATOM     22  C   LIG A   1      -5.123  -5.230 132.289  0.00  0.00    +0.136 C 
ATOM     23  O   LIG A   1      -4.037  -3.893 130.579  0.00  0.00    -0.251 OA
ENDBRANCH  20  21
ENDBRANCH  14  20
BRANCH  17  24
ATOM     24  O   LIG A   1      -8.216   0.648 128.985  0.00  0.00    -0.425 OA
BRANCH  24  25
ATOM     25  C   LIG A   1      -7.638   1.817 129.486  0.00  0.00    +0.309 C 
ATOM     26  C   LIG A   1      -8.718   2.700 130.025  0.00  0.00    +0.136 C 
ATOM     27  O   LIG A   1      -6.444   2.104 129.521  0.00  0.00    -0.251 OA
ENDBRANCH  24  25
ENDBRANCH  17  24
ENDBRANCH  10  12
BRANCH   5  28
ATOM     28  O   LIG A   1      -6.161   4.226 123.631  0.00  0.00    -0.488 OA
ATOM     29  C   LIG A   1      -5.407   4.256 122.420  0.00  0.00    +0.277 C 
ENDBRANCH   5  28
BRANCH  11  30
ATOM     30  O   LIG A   1      -8.861  -1.910 126.166  0.00  0.00    -0.488 OA
ATOM     31  C   LIG A   1      -8.702  -3.275 125.788  0.00  0.00    +0.277 C 
ENDBRANCH  11  30
BRANCH   6  32
ATOM     32  O   LIG A   1      -4.308   4.173 125.768  0.00  0.00    -0.491 OA
ATOM     33  C   LIG A   1      -4.643   4.950 126.914  0.00  0.00    +0.277 C 
ENDBRANCH   6  32
BRANCH   4  34
ATOM     34  O   LIG A   1      -7.680   1.851 123.092  0.00  0.00    -0.490 OA
ATOM     35  C   LIG A   1      -8.991   2.378 123.250  0.00  0.00    +0.277 C 
ENDBRANCH   4  34
TORSDOF 10
ENDMDL
MODEL 7
REMARK VINA RESULT:      -6.5      2.914      5.046
REMARK  Name = NuBBE_1881
REMARK  17 active torsions:
REMARK  status: ('A' for Active; 'I' for Inactive)
REMARK    1  A    between atoms: C_4  and  O_34
REMARK    2  A    between atoms: C_5  and  O_6
REMARK    3  A    between atoms: O_6  and  C_7
REMARK    4  A    between atoms: C_8  and  O_32
REMARK    5  A    between atoms: C_12  and  C_13
REMARK    6  A    between atoms: C_15  and  O_16
REMARK    7  A    between atoms: O_16  and  C_17
REMARK    8  A    between atoms: C_17  and  C_18
REMARK    9  A    between atoms: C_20  and  O_27
REMARK   10  A    between atoms: C_22  and  O_23
REMARK   11  A    between atoms: O_23  and  C_24
REMARK   12  A    between atoms: C_24  and  C_25
REMARK   13  A    between atoms: O_27  and  C_28
REMARK   14  A    between atoms: C_29  and  O_30
REMARK   15  A    between atoms: O_30  and  C_31
REMARK   16  A    between atoms: O_32  and  C_33
REMARK   17  A    between atoms: O_34  and  C_35
REMARK                            x       y       z     vdW  Elec       q    Type
REMARK                         _______ _______ _______ _____ _____    ______ ____
ROOT
ATOM      1  O   LIG A   1      -6.757   0.940 131.561  0.00  0.00    -0.283 OA
ATOM      2  C   LIG A   1      -7.216   1.605 130.645  0.00  0.00    +0.238 A 
ATOM      3  C   LIG A   1      -7.864   2.921 130.851  0.00  0.00    +0.113 A 
ATOM      4  C   LIG A   1      -7.436   3.910 131.756  0.00  0.00    +0.180 A 
ATOM      5  C   LIG A   1      -8.147   5.141 131.810  0.00  0.00    +0.204 A 
ATOM      6  C   LIG A   1      -9.308   5.308 131.013  0.00  0.00    +0.169 A 
ATOM      7  C   LIG A   1      -9.669   4.325 130.096  0.00  0.00    +0.096 A 
ATOM      8  C   LIG A   1      -8.933   3.164 130.001  0.00  0.00    +0.147 A 
ATOM      9  O   LIG A   1      -9.279   2.315 128.985  0.00  0.00    -0.451 OA
ATOM     10  C   LIG A   1      -8.233   1.577 128.459  0.00  0.00    +0.184 A 
ATOM     11  C   LIG A   1      -7.192   1.157 129.204  0.00  0.00    +0.211 A 
ENDROOT
BRANCH  10  12
ATOM     12  C   LIG A   1      -8.386   1.370 127.008  0.00  0.00    +0.067 A 
ATOM     13  C   LIG A   1      -8.854   0.127 126.535  0.00  0.00    +0.065 A 
ATOM     14  C   LIG A   1      -8.940  -0.119 125.155  0.00  0.00    +0.174 A 
ATOM     15  C   LIG A   1      -8.580   0.869 124.232  0.00  0.00    +0.166 A 
ATOM     16  C   LIG A   1      -8.073   2.080 124.698  0.00  0.00    +0.096 A 
ATOM     17  C   LIG A   1      -8.002   2.339 126.072  0.00  0.00    +0.146 A 
BRANCH  15  18
ATOM     18  O   LIG A   1      -8.881   0.668 122.912  0.00  0.00    -0.491 OA
ATOM     19  C   LIG A   1     -10.228   0.932 122.538  0.00  0.00    +0.277 C 
ENDBRANCH  15  18
BRANCH  14  20
ATOM     20  O   LIG A   1      -9.520  -1.345 124.764  0.00  0.00    -0.422 OA
BRANCH  20  21
ATOM     21  C   LIG A   1      -8.654  -2.416 124.512  0.00  0.00    +0.309 C 
ATOM     22  C   LIG A   1      -8.810  -3.423 125.622  0.00  0.00    +0.136 C 
ATOM     23  O   LIG A   1      -7.908  -2.524 123.557  0.00  0.00    -0.251 OA
ENDBRANCH  20  21
ENDBRANCH  14  20
BRANCH  17  24
ATOM     24  O   LIG A   1      -7.486   3.563 126.565  0.00  0.00    -0.425 OA
BRANCH  24  25
ATOM     25  C   LIG A   1      -7.722   4.763 125.889  0.00  0.00    +0.309 C 
ATOM     26  C   LIG A   1      -6.475   5.168 125.171  0.00  0.00    +0.136 C 
ATOM     27  O   LIG A   1      -8.770   5.400 125.846  0.00  0.00    -0.251 OA
ENDBRANCH  24  25
ENDBRANCH  17  24
ENDBRANCH  10  12
BRANCH   5  28
ATOM     28  O   LIG A   1      -7.774   6.053 132.765  0.00  0.00    -0.488 OA
ATOM     29  C   LIG A   1      -8.185   5.854 134.117  0.00  0.00    +0.277 C 
ENDBRANCH   5  28
BRANCH  11  30
ATOM     30  O   LIG A   1      -6.171   0.391 128.675  0.00  0.00    -0.488 OA
ATOM     31  C   LIG A   1      -4.967   1.111 128.426  0.00  0.00    +0.277 C 
ENDBRANCH  11  30
BRANCH   6  32
ATOM     32  O   LIG A   1     -10.055   6.451 131.139  0.00  0.00    -0.491 OA
ATOM     33  C   LIG A   1     -11.422   6.277 131.500  0.00  0.00    +0.277 C 
ENDBRANCH   6  32
BRANCH   4  34
ATOM     34  O   LIG A   1      -6.355   3.570 132.529  0.00  0.00    -0.490 OA
ATOM     35  C   LIG A   1      -5.079   4.087 132.173  0.00  0.00    +0.277 C 
ENDBRANCH   4  34
TORSDOF 10
ENDMDL
MODEL 8
REMARK VINA RESULT:      -6.5      2.282      6.728
REMARK  Name = NuBBE_1881
REMARK  17 active torsions:
REMARK  status: ('A' for Active; 'I' for Inactive)
REMARK    1  A    between atoms: C_4  and  O_34
REMARK    2  A    between atoms: C_5  and  O_6
REMARK    3  A    between atoms: O_6  and  C_7
REMARK    4  A    between atoms: C_8  and  O_32
REMARK    5  A    between atoms: C_12  and  C_13
REMARK    6  A    between atoms: C_15  and  O_16
REMARK    7  A    between atoms: O_16  and  C_17
REMARK    8  A    between atoms: C_17  and  C_18
REMARK    9  A    between atoms: C_20  and  O_27
REMARK   10  A    between atoms: C_22  and  O_23
REMARK   11  A    between atoms: O_23  and  C_24
REMARK   12  A    between atoms: C_24  and  C_25
REMARK   13  A    between atoms: O_27  and  C_28
REMARK   14  A    between atoms: C_29  and  O_30
REMARK   15  A    between atoms: O_30  and  C_31
REMARK   16  A    between atoms: O_32  and  C_33
REMARK   17  A    between atoms: O_34  and  C_35
REMARK                            x       y       z     vdW  Elec       q    Type
REMARK                         _______ _______ _______ _____ _____    ______ ____
ROOT
ATOM      1  O   LIG A   1      -8.330  -3.149 127.970  0.00  0.00    -0.283 OA
ATOM      2  C   LIG A   1      -7.874  -2.028 128.135  0.00  0.00    +0.238 A 
ATOM      3  C   LIG A   1      -7.709  -1.415 129.473  0.00  0.00    +0.113 A 
ATOM      4  C   LIG A   1      -7.283  -2.087 130.634  0.00  0.00    +0.180 A 
ATOM      5  C   LIG A   1      -7.139  -1.346 131.839  0.00  0.00    +0.204 A 
ATOM      6  C   LIG A   1      -7.501   0.025 131.859  0.00  0.00    +0.169 A 
ATOM      7  C   LIG A   1      -7.872   0.664 130.678  0.00  0.00    +0.096 A 
ATOM      8  C   LIG A   1      -7.941  -0.047 129.501  0.00  0.00    +0.147 A 
ATOM      9  O   LIG A   1      -8.182   0.685 128.370  0.00  0.00    -0.451 OA
ATOM     10  C   LIG A   1      -7.607   0.185 127.215  0.00  0.00    +0.184 A 
ATOM     11  C   LIG A   1      -7.443  -1.135 126.997  0.00  0.00    +0.211 A 
ENDROOT
BRANCH  10  12
ATOM     12  C   LIG A   1      -7.165   1.263 126.313  0.00  0.00    +0.067 A 
ATOM     13  C   LIG A   1      -5.916   1.878 126.535  0.00  0.00    +0.065 A 
ATOM     14  C   LIG A   1      -5.505   2.956 125.734  0.00  0.00    +0.174 A 
ATOM     15  C   LIG A   1      -6.319   3.421 124.695  0.00  0.00    +0.166 A 
ATOM     16  C   LIG A   1      -7.573   2.845 124.506  0.00  0.00    +0.096 A 
ATOM     17  C   LIG A   1      -7.981   1.759 125.288  0.00  0.00    +0.146 A 
BRANCH  15  18
ATOM     18  O   LIG A   1      -5.793   4.322 123.808  0.00  0.00    -0.491 OA
ATOM     19  C   LIG A   1      -5.841   3.940 122.439  0.00  0.00    +0.277 C 
ENDBRANCH  15  18
BRANCH  14  20
ATOM     20  O   LIG A   1      -4.199   3.444 125.949  0.00  0.00    -0.422 OA
BRANCH  20  21
ATOM     21  C   LIG A   1      -4.032   4.428 126.932  0.00  0.00    +0.309 C 
ATOM     22  C   LIG A   1      -2.863   4.038 127.799  0.00  0.00    +0.136 C 
ATOM     23  O   LIG A   1      -4.708   5.432 127.061  0.00  0.00    -0.251 OA
ENDBRANCH  20  21
ENDBRANCH  14  20
BRANCH  17  24
ATOM     24  O   LIG A   1      -9.254   1.162 125.113  0.00  0.00    -0.425 OA
BRANCH  24  25
ATOM     25  C   LIG A   1      -9.664   0.707 123.858  0.00  0.00    +0.309 C 
ATOM     26  C   LIG A   1      -8.699  -0.328 123.378  0.00  0.00    +0.136 C 
ATOM     27  O   LIG A   1     -10.659   1.055 123.227  0.00  0.00    -0.251 OA
ENDBRANCH  24  25
ENDBRANCH  17  24
ENDBRANCH  10  12
BRANCH   5  28
ATOM     28  O   LIG A   1      -6.817  -2.037 132.980  0.00  0.00    -0.488 OA
ATOM     29  C   LIG A   1      -7.855  -2.658 133.736  0.00  0.00    +0.277 C 
ENDBRANCH   5  28
BRANCH  11  30
ATOM     30  O   LIG A   1      -6.899  -1.625 125.826  0.00  0.00    -0.488 OA
ATOM     31  C   LIG A   1      -5.583  -2.152 125.966  0.00  0.00    +0.277 C 
ENDBRANCH  11  30
BRANCH   6  32
ATOM     32  O   LIG A   1      -7.464   0.716 133.043  0.00  0.00    -0.491 OA
ATOM     33  C   LIG A   1      -8.005   2.034 133.025  0.00  0.00    +0.277 C 
ENDBRANCH   6  32
BRANCH   4  34
ATOM     34  O   LIG A   1      -7.060  -3.433 130.484  0.00  0.00    -0.490 OA
ATOM     35  C   LIG A   1      -5.718  -3.887 130.365  0.00  0.00    +0.277 C 
ENDBRANCH   4  34
TORSDOF 10
ENDMDL
MODEL 9
REMARK VINA RESULT:      -6.4      2.181      4.145
REMARK  Name = NuBBE_1881
REMARK  17 active torsions:
REMARK  status: ('A' for Active; 'I' for Inactive)
REMARK    1  A    between atoms: C_4  and  O_34
REMARK    2  A    between atoms: C_5  and  O_6
REMARK    3  A    between atoms: O_6  and  C_7
REMARK    4  A    between atoms: C_8  and  O_32
REMARK    5  A    between atoms: C_12  and  C_13
REMARK    6  A    between atoms: C_15  and  O_16
REMARK    7  A    between atoms: O_16  and  C_17
REMARK    8  A    between atoms: C_17  and  C_18
REMARK    9  A    between atoms: C_20  and  O_27
REMARK   10  A    between atoms: C_22  and  O_23
REMARK   11  A    between atoms: O_23  and  C_24
REMARK   12  A    between atoms: C_24  and  C_25
REMARK   13  A    between atoms: O_27  and  C_28
REMARK   14  A    between atoms: C_29  and  O_30
REMARK   15  A    between atoms: O_30  and  C_31
REMARK   16  A    between atoms: O_32  and  C_33
REMARK   17  A    between atoms: O_34  and  C_35
REMARK                            x       y       z     vdW  Elec       q    Type
REMARK                         _______ _______ _______ _____ _____    ______ ____
ROOT
ATOM      1  O   LIG A   1      -3.642   4.348 125.982  0.00  0.00    -0.283 OA
ATOM      2  C   LIG A   1      -4.371   3.633 126.651  0.00  0.00    +0.238 A 
ATOM      3  C   LIG A   1      -4.528   3.790 128.116  0.00  0.00    +0.113 A 
ATOM      4  C   LIG A   1      -4.592   5.015 128.805  0.00  0.00    +0.180 A 
ATOM      5  C   LIG A   1      -4.781   4.998 130.215  0.00  0.00    +0.204 A 
ATOM      6  C   LIG A   1      -4.822   3.755 130.895  0.00  0.00    +0.169 A 
ATOM      7  C   LIG A   1      -4.804   2.565 130.171  0.00  0.00    +0.096 A 
ATOM      8  C   LIG A   1      -4.690   2.593 128.799  0.00  0.00    +0.147 A 
ATOM      9  O   LIG A   1      -4.816   1.389 128.161  0.00  0.00    -0.451 OA
ATOM     10  C   LIG A   1      -5.371   1.452 126.895  0.00  0.00    +0.184 A 
ATOM     11  C   LIG A   1      -5.182   2.501 126.069  0.00  0.00    +0.211 A 
ENDROOT
BRANCH  10  12
ATOM     12  C   LIG A   1      -6.213   0.278 126.608  0.00  0.00    +0.067 A 
ATOM     13  C   LIG A   1      -5.638  -0.846 125.980  0.00  0.00    +0.065 A 
ATOM     14  C   LIG A   1      -6.435  -1.948 125.631  0.00  0.00    +0.174 A 
ATOM     15  C   LIG A   1      -7.805  -1.955 125.917  0.00  0.00    +0.166 A 
ATOM     16  C   LIG A   1      -8.382  -0.825 126.494  0.00  0.00    +0.096 A 
ATOM     17  C   LIG A   1      -7.591   0.269 126.862  0.00  0.00    +0.146 A 
BRANCH  15  18
ATOM     18  O   LIG A   1      -8.498  -3.124 125.759  0.00  0.00    -0.491 OA
ATOM     19  C   LIG A   1      -8.947  -3.743 126.959  0.00  0.00    +0.277 C 
ENDBRANCH  15  18
BRANCH  14  20
ATOM     20  O   LIG A   1      -5.766  -3.074 125.107  0.00  0.00    -0.422 OA
BRANCH  20  21
ATOM     21  C   LIG A   1      -5.384  -3.028 123.760  0.00  0.00    +0.309 C 
ATOM     22  C   LIG A   1      -4.264  -4.014 123.552  0.00  0.00    +0.136 C 
ATOM     23  O   LIG A   1      -5.875  -2.320 122.901  0.00  0.00    -0.251 OA
ENDBRANCH  20  21
ENDBRANCH  14  20
BRANCH  17  24
ATOM     24  O   LIG A   1      -8.161   1.427 127.446  0.00  0.00    -0.425 OA
BRANCH  24  25
ATOM     25  C   LIG A   1      -8.250   1.558 128.834  0.00  0.00    +0.309 C 
ATOM     26  C   LIG A   1      -8.390   3.006 129.175  0.00  0.00    +0.136 C 
ATOM     27  O   LIG A   1      -8.243   0.658 129.670  0.00  0.00    -0.251 OA
ENDBRANCH  24  25
ENDBRANCH  17  24
ENDBRANCH  10  12
BRANCH   5  28
ATOM     28  O   LIG A   1      -4.744   6.199 130.879  0.00  0.00    -0.488 OA
ATOM     29  C   LIG A   1      -5.958   6.918 131.088  0.00  0.00    +0.277 C 
ENDBRANCH   5  28
BRANCH  11  30
ATOM     30  O   LIG A   1      -5.713   2.538 124.795  0.00  0.00    -0.488 OA
ATOM     31  C   LIG A   1      -6.785   3.462 124.632  0.00  0.00    +0.277 C 
ENDBRANCH  11  30
BRANCH   6  32
ATOM     32  O   LIG A   1      -4.899   3.736 132.264  0.00  0.00    -0.491 OA
ATOM     33  C   LIG A   1      -6.179   3.451 132.822  0.00  0.00    +0.277 C 
ENDBRANCH   6  32
BRANCH   4  34
ATOM     34  O   LIG A   1      -4.443   6.135 128.025  0.00  0.00    -0.490 OA
ATOM     35  C   LIG A   1      -3.239   6.883 128.139  0.00  0.00    +0.277 C 
ENDBRANCH   4  34
TORSDOF 10
ENDMDL
