MODEL 1
REMARK VINA RESULT:      -7.8      0.000      0.000
REMARK  Name = NuBBE_2005
REMARK  7 active torsions:
REMARK  status: ('A' for Active; 'I' for Inactive)
REMARK    1  A    between atoms: C_1  and  C_2
REMARK    2  A    between atoms: C_7  and  C_10
REMARK    3  A    between atoms: C_13  and  O_16
REMARK    4  A    between atoms: O_16  and  C_17
REMARK    5  A    between atoms: C_19  and  O_24
REMARK    6  A    between atoms: C_21  and  O_22
REMARK    7  A    between atoms: O_22  and  C_23
REMARK                            x       y       z     vdW  Elec       q    Type
REMARK                         _______ _______ _______ _____ _____    ______ ____
ROOT
ATOM      1  C   LIG A   1      -5.450   0.144 125.721  0.00  0.00    +0.051 C 
ATOM      2  C   LIG A   1      -6.450  -0.408 124.738  0.00  0.00    +0.034 A 
ATOM      3  C   LIG A   1      -7.611   0.315 124.405  0.00  0.00    +0.142 A 
ATOM      4  C   LIG A   1      -8.558  -0.240 123.541  0.00  0.00    +0.101 A 
ATOM      5  C   LIG A   1      -9.824   0.484 123.316  0.00  0.00    +0.174 C 
ATOM      6  C   LIG A   1      -9.997   1.792 124.038  0.00  0.00    +0.129 C 
ATOM      7  C   LIG A   1      -8.630   2.445 124.190  0.00  0.00    +0.211 C 
ATOM      8  O   LIG A   1      -7.757   1.573 124.940  0.00  0.00    -0.483 OA
ATOM      9  O   LIG A   1     -10.688   0.008 122.592  0.00  0.00    -0.292 OA
ATOM     10  C   LIG A   1      -8.299  -1.454 122.907  0.00  0.00    +0.134 A 
ATOM     11  C   LIG A   1      -7.115  -2.139 123.161  0.00  0.00    +0.092 A 
ATOM     12  C   LIG A   1      -6.191  -1.631 124.081  0.00  0.00    +0.130 A 
ENDROOT
BRANCH   7  13
ATOM     13  C   LIG A   1      -7.967   2.970 122.914  0.00  0.00    -0.007 A 
ATOM     14  C   LIG A   1      -6.579   3.172 122.893  0.00  0.00    +0.011 A 
ATOM     15  C   LIG A   1      -5.937   3.662 121.750  0.00  0.00    +0.046 A 
ATOM     16  C   LIG A   1      -6.666   3.957 120.598  0.00  0.00    +0.120 A 
ATOM     17  C   LIG A   1      -8.045   3.770 120.608  0.00  0.00    +0.046 A 
ATOM     18  C   LIG A   1      -8.690   3.292 121.752  0.00  0.00    +0.011 A 
BRANCH  16  19
ATOM     19  O   LIG A   1      -6.148   4.428 119.424  0.00  0.00    -0.495 OA
ATOM     20  C   LIG A   1      -5.355   5.607 119.520  0.00  0.00    +0.277 C 
ENDBRANCH  16  19
ENDBRANCH   7  13
BRANCH  12  21
ATOM     21  O   LIG A   1      -4.999  -2.238 124.390  0.00  0.00    -0.495 OA
ATOM     22  C   LIG A   1      -4.632  -3.381 123.625  0.00  0.00    +0.277 C 
ENDBRANCH  12  21
BRANCH  10  23
ATOM     23  O   LIG A   1      -9.154  -2.022 122.000  0.00  0.00    -0.506 OA
ATOM     24  H   LIG A   1      -9.188  -1.440 121.208  0.00  0.00    +0.292 HD
ENDBRANCH  10  23
TORSDOF 4
ENDMDL
MODEL 2
REMARK VINA RESULT:      -6.9      1.940      6.192
REMARK  Name = NuBBE_2005
REMARK  7 active torsions:
REMARK  status: ('A' for Active; 'I' for Inactive)
REMARK    1  A    between atoms: C_1  and  C_2
REMARK    2  A    between atoms: C_7  and  C_10
REMARK    3  A    between atoms: C_13  and  O_16
REMARK    4  A    between atoms: O_16  and  C_17
REMARK    5  A    between atoms: C_19  and  O_24
REMARK    6  A    between atoms: C_21  and  O_22
REMARK    7  A    between atoms: O_22  and  C_23
REMARK                            x       y       z     vdW  Elec       q    Type
REMARK                         _______ _______ _______ _____ _____    ______ ____
ROOT
ATOM      1  C   LIG A   1      -8.020   3.039 122.121  0.00  0.00    +0.051 C 
ATOM      2  C   LIG A   1      -7.180   3.030 123.373  0.00  0.00    +0.034 A 
ATOM      3  C   LIG A   1      -7.460   2.135 124.423  0.00  0.00    +0.142 A 
ATOM      4  C   LIG A   1      -6.711   2.183 125.602  0.00  0.00    +0.101 A 
ATOM      5  C   LIG A   1      -7.112   1.325 126.733  0.00  0.00    +0.174 C 
ATOM      6  C   LIG A   1      -8.310   0.441 126.524  0.00  0.00    +0.129 C 
ATOM      7  C   LIG A   1      -8.363   0.037 125.057  0.00  0.00    +0.211 C 
ATOM      8  O   LIG A   1      -8.466   1.218 124.232  0.00  0.00    -0.483 OA
ATOM      9  O   LIG A   1      -6.498   1.369 127.791  0.00  0.00    -0.292 OA
ATOM     10  C   LIG A   1      -5.607   3.029 125.694  0.00  0.00    +0.134 A 
ATOM     11  C   LIG A   1      -5.267   3.857 124.629  0.00  0.00    +0.092 A 
ATOM     12  C   LIG A   1      -6.052   3.874 123.471  0.00  0.00    +0.130 A 
ENDROOT
BRANCH   7  13
ATOM     13  C   LIG A   1      -7.277  -0.922 124.562  0.00  0.00    -0.007 A 
ATOM     14  C   LIG A   1      -7.104  -1.111 123.183  0.00  0.00    +0.011 A 
ATOM     15  C   LIG A   1      -6.130  -1.988 122.690  0.00  0.00    +0.046 A 
ATOM     16  C   LIG A   1      -5.304  -2.694 123.564  0.00  0.00    +0.120 A 
ATOM     17  C   LIG A   1      -5.472  -2.522 124.936  0.00  0.00    +0.046 A 
ATOM     18  C   LIG A   1      -6.451  -1.656 125.430  0.00  0.00    +0.011 A 
BRANCH  16  19
ATOM     19  O   LIG A   1      -4.315  -3.566 123.201  0.00  0.00    -0.495 OA
ATOM     20  C   LIG A   1      -4.483  -4.912 123.631  0.00  0.00    +0.277 C 
ENDBRANCH  16  19
ENDBRANCH   7  13
BRANCH  12  21
ATOM     21  O   LIG A   1      -5.791   4.656 122.374  0.00  0.00    -0.495 OA
ATOM     22  C   LIG A   1      -4.454   4.667 121.886  0.00  0.00    +0.277 C 
ENDBRANCH  12  21
BRANCH  10  23
ATOM     23  O   LIG A   1      -4.792   3.079 126.794  0.00  0.00    -0.506 OA
ATOM     24  H   LIG A   1      -5.295   2.724 127.562  0.00  0.00    +0.292 HD
ENDBRANCH  10  23
TORSDOF 4
ENDMDL
MODEL 3
REMARK VINA RESULT:      -6.8      2.852      6.730
REMARK  Name = NuBBE_2005
REMARK  7 active torsions:
REMARK  status: ('A' for Active; 'I' for Inactive)
REMARK    1  A    between atoms: C_1  and  C_2
REMARK    2  A    between atoms: C_7  and  C_10
REMARK    3  A    between atoms: C_13  and  O_16
REMARK    4  A    between atoms: O_16  and  C_17
REMARK    5  A    between atoms: C_19  and  O_24
REMARK    6  A    between atoms: C_21  and  O_22
REMARK    7  A    between atoms: O_22  and  C_23
REMARK                            x       y       z     vdW  Elec       q    Type
REMARK                         _______ _______ _______ _____ _____    ______ ____
ROOT
ATOM      1  C   LIG A   1      -5.602   2.137 124.977  0.00  0.00    +0.051 C 
ATOM      2  C   LIG A   1      -7.038   1.827 124.638  0.00  0.00    +0.034 A 
ATOM      3  C   LIG A   1      -7.405   0.566 124.131  0.00  0.00    +0.142 A 
ATOM      4  C   LIG A   1      -8.729   0.317 123.762  0.00  0.00    +0.101 A 
ATOM      5  C   LIG A   1      -9.055  -0.966 123.112  0.00  0.00    +0.174 C 
ATOM      6  C   LIG A   1      -7.920  -1.930 122.901  0.00  0.00    +0.129 C 
ATOM      7  C   LIG A   1      -6.919  -1.752 124.034  0.00  0.00    +0.211 C 
ATOM      8  O   LIG A   1      -6.426  -0.396 124.038  0.00  0.00    -0.483 OA
ATOM      9  O   LIG A   1     -10.200  -1.200 122.745  0.00  0.00    -0.292 OA
ATOM     10  C   LIG A   1      -9.714   1.271 124.011  0.00  0.00    +0.134 A 
ATOM     11  C   LIG A   1      -9.379   2.490 124.593  0.00  0.00    +0.092 A 
ATOM     12  C   LIG A   1      -8.045   2.782 124.898  0.00  0.00    +0.130 A 
ENDROOT
BRANCH   7  13
ATOM     13  C   LIG A   1      -7.360  -2.212 125.426  0.00  0.00    -0.007 A 
ATOM     14  C   LIG A   1      -8.464  -3.069 125.550  0.00  0.00    +0.011 A 
ATOM     15  C   LIG A   1      -8.906  -3.502 126.805  0.00  0.00    +0.046 A 
ATOM     16  C   LIG A   1      -8.252  -3.094 127.967  0.00  0.00    +0.120 A 
ATOM     17  C   LIG A   1      -7.161  -2.237 127.860  0.00  0.00    +0.046 A 
ATOM     18  C   LIG A   1      -6.725  -1.793 126.608  0.00  0.00    +0.011 A 
BRANCH  16  19
ATOM     19  O   LIG A   1      -8.585  -3.460 129.242  0.00  0.00    -0.495 OA
ATOM     20  C   LIG A   1      -7.686  -3.045 130.264  0.00  0.00    +0.277 C 
ENDBRANCH  16  19
ENDBRANCH   7  13
BRANCH  12  21
ATOM     21  O   LIG A   1      -7.625   3.955 125.474  0.00  0.00    -0.495 OA
ATOM     22  C   LIG A   1      -7.817   4.098 126.877  0.00  0.00    +0.277 C 
ENDBRANCH  12  21
BRANCH  10  23
ATOM     23  O   LIG A   1     -11.040   1.068 123.735  0.00  0.00    -0.506 OA
ATOM     24  H   LIG A   1     -11.165   1.157 122.763  0.00  0.00    +0.292 HD
ENDBRANCH  10  23
TORSDOF 4
ENDMDL
MODEL 4
REMARK VINA RESULT:      -6.8      1.639      2.100
REMARK  Name = NuBBE_2005
REMARK  7 active torsions:
REMARK  status: ('A' for Active; 'I' for Inactive)
REMARK    1  A    between atoms: C_1  and  C_2
REMARK    2  A    between atoms: C_7  and  C_10
REMARK    3  A    between atoms: C_13  and  O_16
REMARK    4  A    between atoms: O_16  and  C_17
REMARK    5  A    between atoms: C_19  and  O_24
REMARK    6  A    between atoms: C_21  and  O_22
REMARK    7  A    between atoms: O_22  and  C_23
REMARK                            x       y       z     vdW  Elec       q    Type
REMARK                         _______ _______ _______ _____ _____    ______ ____
ROOT
ATOM      1  C   LIG A   1      -7.221   1.071 127.738  0.00  0.00    +0.051 C 
ATOM      2  C   LIG A   1      -7.450   0.196 126.532  0.00  0.00    +0.034 A 
ATOM      3  C   LIG A   1      -8.340   0.587 125.514  0.00  0.00    +0.142 A 
ATOM      4  C   LIG A   1      -8.588  -0.265 124.435  0.00  0.00    +0.101 A 
ATOM      5  C   LIG A   1      -9.624   0.114 123.456  0.00  0.00    +0.174 C 
ATOM      6  C   LIG A   1     -10.339   1.416 123.691  0.00  0.00    +0.129 C 
ATOM      7  C   LIG A   1      -9.374   2.383 124.362  0.00  0.00    +0.211 C 
ATOM      8  O   LIG A   1      -8.925   1.827 125.617  0.00  0.00    -0.483 OA
ATOM      9  O   LIG A   1      -9.890  -0.628 122.518  0.00  0.00    -0.292 OA
ATOM     10  C   LIG A   1      -7.863  -1.447 124.297  0.00  0.00    +0.134 A 
ATOM     11  C   LIG A   1      -6.916  -1.804 125.252  0.00  0.00    +0.092 A 
ATOM     12  C   LIG A   1      -6.710  -0.997 126.376  0.00  0.00    +0.130 A 
ENDROOT
BRANCH   7  13
ATOM     13  C   LIG A   1      -8.213   2.905 123.512  0.00  0.00    -0.007 A 
ATOM     14  C   LIG A   1      -8.378   3.026 122.124  0.00  0.00    +0.011 A 
ATOM     15  C   LIG A   1      -7.337   3.487 121.310  0.00  0.00    +0.046 A 
ATOM     16  C   LIG A   1      -6.108   3.845 121.864  0.00  0.00    +0.120 A 
ATOM     17  C   LIG A   1      -5.928   3.721 123.239  0.00  0.00    +0.046 A 
ATOM     18  C   LIG A   1      -6.962   3.249 124.052  0.00  0.00    +0.011 A 
BRANCH  16  19
ATOM     19  O   LIG A   1      -5.026   4.317 121.173  0.00  0.00    -0.495 OA
ATOM     20  C   LIG A   1      -5.317   5.138 120.047  0.00  0.00    +0.277 C 
ENDBRANCH  16  19
ENDBRANCH   7  13
BRANCH  12  21
ATOM     21  O   LIG A   1      -5.798  -1.270 127.365  0.00  0.00    -0.495 OA
ATOM     22  C   LIG A   1      -6.013  -2.441 128.145  0.00  0.00    +0.277 C 
ENDBRANCH  12  21
BRANCH  10  23
ATOM     23  O   LIG A   1      -8.009  -2.295 123.232  0.00  0.00    -0.506 OA
ATOM     24  H   LIG A   1      -8.825  -2.825 123.375  0.00  0.00    +0.292 HD
ENDBRANCH  10  23
TORSDOF 4
ENDMDL
MODEL 5
REMARK VINA RESULT:      -6.6      7.487      9.421
REMARK  Name = NuBBE_2005
REMARK  7 active torsions:
REMARK  status: ('A' for Active; 'I' for Inactive)
REMARK    1  A    between atoms: C_1  and  C_2
REMARK    2  A    between atoms: C_7  and  C_10
REMARK    3  A    between atoms: C_13  and  O_16
REMARK    4  A    between atoms: O_16  and  C_17
REMARK    5  A    between atoms: C_19  and  O_24
REMARK    6  A    between atoms: C_21  and  O_22
REMARK    7  A    between atoms: O_22  and  C_23
REMARK                            x       y       z     vdW  Elec       q    Type
REMARK                         _______ _______ _______ _____ _____    ______ ____
ROOT
ATOM      1  C   LIG A   1      -6.423   4.280 128.622  0.00  0.00    +0.051 C 
ATOM      2  C   LIG A   1      -7.315   3.554 129.596  0.00  0.00    +0.034 A 
ATOM      3  C   LIG A   1      -7.721   4.164 130.797  0.00  0.00    +0.142 A 
ATOM      4  C   LIG A   1      -8.495   3.453 131.718  0.00  0.00    +0.101 A 
ATOM      5  C   LIG A   1      -8.793   4.073 133.023  0.00  0.00    +0.174 C 
ATOM      6  C   LIG A   1      -8.241   5.451 133.263  0.00  0.00    +0.129 C 
ATOM      7  C   LIG A   1      -8.193   6.191 131.933  0.00  0.00    +0.211 C 
ATOM      8  O   LIG A   1      -7.350   5.471 131.009  0.00  0.00    -0.483 OA
ATOM      9  O   LIG A   1      -9.438   3.462 133.865  0.00  0.00    -0.292 OA
ATOM     10  C   LIG A   1      -8.972   2.183 131.396  0.00  0.00    +0.134 A 
ATOM     11  C   LIG A   1      -8.648   1.601 130.174  0.00  0.00    +0.092 A 
ATOM     12  C   LIG A   1      -7.813   2.272 129.274  0.00  0.00    +0.130 A 
ENDROOT
BRANCH   7  13
ATOM     13  C   LIG A   1      -9.534   6.583 131.309  0.00  0.00    -0.007 A 
ATOM     14  C   LIG A   1     -10.720   6.338 132.019  0.00  0.00    +0.011 A 
ATOM     15  C   LIG A   1     -11.968   6.670 131.478  0.00  0.00    +0.046 A 
ATOM     16  C   LIG A   1     -12.060   7.259 130.218  0.00  0.00    +0.120 A 
ATOM     17  C   LIG A   1     -10.893   7.499 129.499  0.00  0.00    +0.046 A 
ATOM     18  C   LIG A   1      -9.647   7.157 130.032  0.00  0.00    +0.011 A 
BRANCH  16  19
ATOM     19  O   LIG A   1     -13.218   7.636 129.595  0.00  0.00    -0.495 OA
ATOM     20  C   LIG A   1     -13.483   7.013 128.343  0.00  0.00    +0.277 C 
ENDBRANCH  16  19
ENDBRANCH   7  13
BRANCH  12  21
ATOM     21  O   LIG A   1      -7.445   1.776 128.048  0.00  0.00    -0.495 OA
ATOM     22  C   LIG A   1      -8.483   1.289 127.204  0.00  0.00    +0.277 C 
ENDBRANCH  12  21
BRANCH  10  23
ATOM     23  O   LIG A   1      -9.787   1.458 132.224  0.00  0.00    -0.506 OA
ATOM     24  H   LIG A   1      -9.868   1.946 133.075  0.00  0.00    +0.292 HD
ENDBRANCH  10  23
TORSDOF 4
ENDMDL
MODEL 6
REMARK VINA RESULT:      -6.6      4.560      7.289
REMARK  Name = NuBBE_2005
REMARK  7 active torsions:
REMARK  status: ('A' for Active; 'I' for Inactive)
REMARK    1  A    between atoms: C_1  and  C_2
REMARK    2  A    between atoms: C_7  and  C_10
REMARK    3  A    between atoms: C_13  and  O_16
REMARK    4  A    between atoms: O_16  and  C_17
REMARK    5  A    between atoms: C_19  and  O_24
REMARK    6  A    between atoms: C_21  and  O_22
REMARK    7  A    between atoms: O_22  and  C_23
REMARK                            x       y       z     vdW  Elec       q    Type
REMARK                         _______ _______ _______ _____ _____    ______ ____
ROOT
ATOM      1  C   LIG A   1      -5.194  -0.624 125.576  0.00  0.00    +0.051 C 
ATOM      2  C   LIG A   1      -6.555  -1.263 125.696  0.00  0.00    +0.034 A 
ATOM      3  C   LIG A   1      -6.917  -1.980 126.851  0.00  0.00    +0.142 A 
ATOM      4  C   LIG A   1      -8.157  -2.619 126.919  0.00  0.00    +0.101 A 
ATOM      5  C   LIG A   1      -8.453  -3.472 128.086  0.00  0.00    +0.174 C 
ATOM      6  C   LIG A   1      -7.384  -3.581 129.137  0.00  0.00    +0.129 C 
ATOM      7  C   LIG A   1      -6.617  -2.267 129.185  0.00  0.00    +0.211 C 
ATOM      8  O   LIG A   1      -6.023  -2.005 127.896  0.00  0.00    -0.483 OA
ATOM      9  O   LIG A   1      -9.518  -4.073 128.158  0.00  0.00    -0.292 OA
ATOM     10  C   LIG A   1      -9.090  -2.445 125.898  0.00  0.00    +0.134 A 
ATOM     11  C   LIG A   1      -8.777  -1.666 124.788  0.00  0.00    +0.092 A 
ATOM     12  C   LIG A   1      -7.510  -1.082 124.672  0.00  0.00    +0.130 A 
ENDROOT
BRANCH   7  13
ATOM     13  C   LIG A   1      -7.363  -1.050 129.738  0.00  0.00    -0.007 A 
ATOM     14  C   LIG A   1      -8.065  -1.165 130.947  0.00  0.00    +0.011 A 
ATOM     15  C   LIG A   1      -8.769  -0.079 131.480  0.00  0.00    +0.046 A 
ATOM     16  C   LIG A   1      -8.785   1.150 130.820  0.00  0.00    +0.120 A 
ATOM     17  C   LIG A   1      -8.100   1.275 129.614  0.00  0.00    +0.046 A 
ATOM     18  C   LIG A   1      -7.406   0.189 129.075  0.00  0.00    +0.011 A 
BRANCH  16  19
ATOM     19  O   LIG A   1      -9.426   2.279 131.248  0.00  0.00    -0.495 OA
ATOM     20  C   LIG A   1      -9.529   2.440 132.658  0.00  0.00    +0.277 C 
ENDBRANCH  16  19
ENDBRANCH   7  13
BRANCH  12  21
ATOM     21  O   LIG A   1      -7.117  -0.298 123.616  0.00  0.00    -0.495 OA
ATOM     22  C   LIG A   1      -7.790   0.943 123.439  0.00  0.00    +0.277 C 
ENDBRANCH  12  21
BRANCH  10  23
ATOM     23  O   LIG A   1     -10.346  -2.988 125.930  0.00  0.00    -0.506 OA
ATOM     24  H   LIG A   1     -10.354  -3.697 126.613  0.00  0.00    +0.292 HD
ENDBRANCH  10  23
TORSDOF 4
ENDMDL
MODEL 7
REMARK VINA RESULT:      -6.4      7.661      9.554
REMARK  Name = NuBBE_2005
REMARK  7 active torsions:
REMARK  status: ('A' for Active; 'I' for Inactive)
REMARK    1  A    between atoms: C_1  and  C_2
REMARK    2  A    between atoms: C_7  and  C_10
REMARK    3  A    between atoms: C_13  and  O_16
REMARK    4  A    between atoms: O_16  and  C_17
REMARK    5  A    between atoms: C_19  and  O_24
REMARK    6  A    between atoms: C_21  and  O_22
REMARK    7  A    between atoms: O_22  and  C_23
REMARK                            x       y       z     vdW  Elec       q    Type
REMARK                         _______ _______ _______ _____ _____    ______ ____
ROOT
ATOM      1  C   LIG A   1      -5.170   6.644 131.322  0.00  0.00    +0.051 C 
ATOM      2  C   LIG A   1      -5.942   5.396 130.975  0.00  0.00    +0.034 A 
ATOM      3  C   LIG A   1      -7.116   5.056 131.672  0.00  0.00    +0.142 A 
ATOM      4  C   LIG A   1      -7.784   3.864 131.381  0.00  0.00    +0.101 A 
ATOM      5  C   LIG A   1      -8.934   3.472 132.217  0.00  0.00    +0.174 C 
ATOM      6  C   LIG A   1      -9.314   4.407 133.332  0.00  0.00    +0.129 C 
ATOM      7  C   LIG A   1      -8.990   5.831 132.901  0.00  0.00    +0.211 C 
ATOM      8  O   LIG A   1      -7.579   5.942 132.617  0.00  0.00    -0.483 OA
ATOM      9  O   LIG A   1      -9.518   2.417 132.009  0.00  0.00    -0.292 OA
ATOM     10  C   LIG A   1      -7.362   3.070 130.316  0.00  0.00    +0.134 A 
ATOM     11  C   LIG A   1      -6.252   3.439 129.562  0.00  0.00    +0.092 A 
ATOM     12  C   LIG A   1      -5.530   4.591 129.890  0.00  0.00    +0.130 A 
ENDROOT
BRANCH   7  13
ATOM     13  C   LIG A   1      -9.854   6.431 131.789  0.00  0.00    -0.007 A 
ATOM     14  C   LIG A   1     -11.252   6.360 131.890  0.00  0.00    +0.011 A 
ATOM     15  C   LIG A   1     -12.077   6.886 130.889  0.00  0.00    +0.046 A 
ATOM     16  C   LIG A   1     -11.525   7.501 129.765  0.00  0.00    +0.120 A 
ATOM     17  C   LIG A   1     -10.139   7.570 129.647  0.00  0.00    +0.046 A 
ATOM     18  C   LIG A   1      -9.314   7.034 130.640  0.00  0.00    +0.011 A 
BRANCH  16  19
ATOM     19  O   LIG A   1     -12.228   8.058 128.733  0.00  0.00    -0.495 OA
ATOM     20  C   LIG A   1     -11.637   7.943 127.443  0.00  0.00    +0.277 C 
ENDBRANCH  16  19
ENDBRANCH   7  13
BRANCH  12  21
ATOM     21  O   LIG A   1      -4.427   5.031 129.202  0.00  0.00    -0.495 OA
ATOM     22  C   LIG A   1      -3.768   4.093 128.359  0.00  0.00    +0.277 C 
ENDBRANCH  12  21
BRANCH  10  23
ATOM     23  O   LIG A   1      -8.008   1.924 129.935  0.00  0.00    -0.506 OA
ATOM     24  H   LIG A   1      -8.287   2.029 128.997  0.00  0.00    +0.292 HD
ENDBRANCH  10  23
TORSDOF 4
ENDMDL
MODEL 8
REMARK VINA RESULT:      -6.3      7.714     10.154
REMARK  Name = NuBBE_2005
REMARK  7 active torsions:
REMARK  status: ('A' for Active; 'I' for Inactive)
REMARK    1  A    between atoms: C_1  and  C_2
REMARK    2  A    between atoms: C_7  and  C_10
REMARK    3  A    between atoms: C_13  and  O_16
REMARK    4  A    between atoms: O_16  and  C_17
REMARK    5  A    between atoms: C_19  and  O_24
REMARK    6  A    between atoms: C_21  and  O_22
REMARK    7  A    between atoms: O_22  and  C_23
REMARK                            x       y       z     vdW  Elec       q    Type
REMARK                         _______ _______ _______ _____ _____    ______ ____
ROOT
ATOM      1  C   LIG A   1      -2.251   6.283 129.087  0.00  0.00    +0.051 C 
ATOM      2  C   LIG A   1      -2.883   4.966 129.460  0.00  0.00    +0.034 A 
ATOM      3  C   LIG A   1      -3.324   4.723 130.774  0.00  0.00    +0.142 A 
ATOM      4  C   LIG A   1      -3.848   3.475 131.118  0.00  0.00    +0.101 A 
ATOM      5  C   LIG A   1      -4.178   3.208 132.531  0.00  0.00    +0.174 C 
ATOM      6  C   LIG A   1      -3.931   4.323 133.509  0.00  0.00    +0.129 C 
ATOM      7  C   LIG A   1      -4.148   5.650 132.794  0.00  0.00    +0.211 C 
ATOM      8  O   LIG A   1      -3.238   5.755 131.679  0.00  0.00    -0.483 OA
ATOM      9  O   LIG A   1      -4.607   2.112 132.869  0.00  0.00    -0.292 OA
ATOM     10  C   LIG A   1      -4.053   2.508 130.134  0.00  0.00    +0.134 A 
ATOM     11  C   LIG A   1      -3.701   2.767 128.813  0.00  0.00    +0.092 A 
ATOM     12  C   LIG A   1      -3.106   3.985 128.468  0.00  0.00    +0.130 A 
ENDROOT
BRANCH   7  13
ATOM     13  C   LIG A   1      -5.586   5.998 132.403  0.00  0.00    -0.007 A 
ATOM     14  C   LIG A   1      -6.644   5.573 133.222  0.00  0.00    +0.011 A 
ATOM     15  C   LIG A   1      -7.974   5.861 132.892  0.00  0.00    +0.046 A 
ATOM     16  C   LIG A   1      -8.278   6.585 131.740  0.00  0.00    +0.120 A 
ATOM     17  C   LIG A   1      -7.240   7.004 130.914  0.00  0.00    +0.046 A 
ATOM     18  C   LIG A   1      -5.912   6.708 131.235  0.00  0.00    +0.011 A 
BRANCH  16  19
ATOM     19  O   LIG A   1      -9.533   6.933 131.324  0.00  0.00    -0.495 OA
ATOM     20  C   LIG A   1     -10.610   6.227 131.930  0.00  0.00    +0.277 C 
ENDBRANCH  16  19
ENDBRANCH   7  13
BRANCH  12  21
ATOM     21  O   LIG A   1      -2.729   4.325 127.193  0.00  0.00    -0.495 OA
ATOM     22  C   LIG A   1      -1.959   3.374 126.466  0.00  0.00    +0.277 C 
ENDBRANCH  12  21
BRANCH  10  23
ATOM     23  O   LIG A   1      -4.622   1.289 130.389  0.00  0.00    -0.506 OA
ATOM     24  H   LIG A   1      -5.143   1.364 131.222  0.00  0.00    +0.292 HD
ENDBRANCH  10  23
TORSDOF 4
ENDMDL
MODEL 9
REMARK VINA RESULT:      -6.2      7.424      9.156
REMARK  Name = NuBBE_2005
REMARK  7 active torsions:
REMARK  status: ('A' for Active; 'I' for Inactive)
REMARK    1  A    between atoms: C_1  and  C_2
REMARK    2  A    between atoms: C_7  and  C_10
REMARK    3  A    between atoms: C_13  and  O_16
REMARK    4  A    between atoms: O_16  and  C_17
REMARK    5  A    between atoms: C_19  and  O_24
REMARK    6  A    between atoms: C_21  and  O_22
REMARK    7  A    between atoms: O_22  and  C_23
REMARK                            x       y       z     vdW  Elec       q    Type
REMARK                         _______ _______ _______ _____ _____    ______ ____
ROOT
ATOM      1  C   LIG A   1      -9.142   2.280 132.981  0.00  0.00    +0.051 C 
ATOM      2  C   LIG A   1      -8.968   2.651 131.530  0.00  0.00    +0.034 A 
ATOM      3  C   LIG A   1      -9.079   3.989 131.109  0.00  0.00    +0.142 A 
ATOM      4  C   LIG A   1      -8.979   4.308 129.753  0.00  0.00    +0.101 A 
ATOM      5  C   LIG A   1      -9.231   5.698 129.329  0.00  0.00    +0.174 C 
ATOM      6  C   LIG A   1      -9.572   6.687 130.410  0.00  0.00    +0.129 C 
ATOM      7  C   LIG A   1      -8.848   6.277 131.685  0.00  0.00    +0.211 C 
ATOM      8  O   LIG A   1      -9.264   4.951 132.075  0.00  0.00    -0.483 OA
ATOM      9  O   LIG A   1      -9.185   6.002 128.144  0.00  0.00    -0.292 OA
ATOM     10  C   LIG A   1      -8.645   3.321 128.827  0.00  0.00    +0.134 A 
ATOM     11  C   LIG A   1      -8.447   2.008 129.242  0.00  0.00    +0.092 A 
ATOM     12  C   LIG A   1      -8.617   1.661 130.587  0.00  0.00    +0.130 A 
ENDROOT
BRANCH   7  13
ATOM     13  C   LIG A   1      -7.325   6.434 131.698  0.00  0.00    -0.007 A 
ATOM     14  C   LIG A   1      -6.583   5.844 132.733  0.00  0.00    +0.011 A 
ATOM     15  C   LIG A   1      -5.190   5.974 132.788  0.00  0.00    +0.046 A 
ATOM     16  C   LIG A   1      -4.505   6.692 131.808  0.00  0.00    +0.120 A 
ATOM     17  C   LIG A   1      -5.231   7.290 130.781  0.00  0.00    +0.046 A 
ATOM     18  C   LIG A   1      -6.622   7.171 130.731  0.00  0.00    +0.011 A 
BRANCH  16  19
ATOM     19  O   LIG A   1      -3.152   6.877 131.751  0.00  0.00    -0.495 OA
ATOM     20  C   LIG A   1      -2.533   6.572 130.507  0.00  0.00    +0.277 C 
ENDBRANCH  16  19
ENDBRANCH   7  13
BRANCH  12  21
ATOM     21  O   LIG A   1      -8.441   0.394 131.084  0.00  0.00    -0.495 OA
ATOM     22  C   LIG A   1      -7.368  -0.373 130.548  0.00  0.00    +0.277 C 
ENDBRANCH  12  21
BRANCH  10  23
ATOM     23  O   LIG A   1      -8.467   3.575 127.493  0.00  0.00    -0.506 OA
ATOM     24  H   LIG A   1      -7.511   3.465 127.287  0.00  0.00    +0.292 HD
ENDBRANCH  10  23
TORSDOF 4
ENDMDL
