MODEL 1
REMARK VINA RESULT:      -8.3      0.000      0.000
REMARK  Name = NuBBE_1584
REMARK  5 active torsions:
REMARK  status: ('A' for Active; 'I' for Inactive)
REMARK    1  A    between atoms: O_1  and  C_2
REMARK    2  A    between atoms: O_1  and  C_3
REMARK    3  A    between atoms: C_5  and  C_10
REMARK    4  A    between atoms: C_8  and  O_9
REMARK    5  A    between atoms: C_18  and  C_22
REMARK                            x       y       z     vdW  Elec       q    Type
REMARK                         _______ _______ _______ _____ _____    ______ ____
ROOT
ATOM      1  C   LIG A   1      -7.690   2.827 123.317  0.00  0.00    +0.154 C 
ATOM      2  C   LIG A   1      -6.797   1.738 123.929  0.00  0.00    +0.056 C 
ATOM      3  C   LIG A   1      -7.729   0.570 124.139  0.00  0.00    +0.056 C 
ATOM      4  C   LIG A   1      -8.785   0.775 123.082  0.00  0.00    +0.167 C 
ATOM      5  O   LIG A   1      -8.925   2.188 122.924  0.00  0.00    -0.371 OA
ATOM      6  C   LIG A   1      -8.265   0.753 125.566  0.00  0.00    +0.154 C 
ATOM      7  O   LIG A   1      -7.423   1.737 126.202  0.00  0.00    -0.371 OA
ATOM      8  C   LIG A   1      -6.332   2.047 125.331  0.00  0.00    +0.167 C 
ENDROOT
BRANCH   6   9
ATOM      9  C   LIG A   1      -8.288  -0.554 126.344  0.00  0.00    -0.015 A 
ATOM     10  C   LIG A   1      -7.628  -0.638 127.589  0.00  0.00    +0.055 A 
ATOM     11  C   LIG A   1      -7.680  -1.827 128.285  0.00  0.00    +0.167 A 
ATOM     12  C   LIG A   1      -8.337  -2.928 127.799  0.00  0.00    +0.166 A 
ATOM     13  C   LIG A   1      -8.975  -2.902 126.575  0.00  0.00    +0.050 A 
ATOM     14  C   LIG A   1      -8.943  -1.706 125.849  0.00  0.00    +0.010 A 
ATOM     15  O   LIG A   1      -8.268  -3.991 128.639  0.00  0.00    -0.453 OA
ATOM     16  C   LIG A   1      -7.494  -3.436 129.714  0.00  0.00    +0.466 C 
ATOM     17  O   LIG A   1      -7.118  -2.060 129.506  0.00  0.00    -0.453 OA
ENDBRANCH   6   9
BRANCH   1  20
ATOM     18  C   LIG A   1      -7.246   4.349 119.815  0.00  0.00    +0.162 A 
ATOM     19  C   LIG A   1      -7.806   3.723 120.942  0.00  0.00    +0.055 A 
ATOM     20  C   LIG A   1      -7.059   3.513 122.115  0.00  0.00    -0.015 A 
ATOM     21  C   LIG A   1      -5.727   3.948 122.132  0.00  0.00    +0.010 A 
ATOM     22  C   LIG A   1      -5.153   4.557 121.014  0.00  0.00    +0.049 A 
ATOM     23  C   LIG A   1      -5.909   4.754 119.857  0.00  0.00    +0.159 A 
BRANCH  18  24
ATOM     24  O   LIG A   1      -8.095   4.428 118.742  0.00  0.00    -0.491 OA
ATOM     25  C   LIG A   1      -9.482   4.266 119.021  0.00  0.00    +0.277 C 
ENDBRANCH  18  24
BRANCH  23  26
ATOM     26  O   LIG A   1      -5.301   5.317 118.770  0.00  0.00    -0.503 OA
ATOM     27  H   LIG A   1      -4.368   5.044 118.752  0.00  0.00    +0.292 HD
ENDBRANCH  23  26
ENDBRANCH   1  20
TORSDOF 4
ENDMDL
MODEL 2
REMARK VINA RESULT:      -8.3      0.870      1.848
REMARK  Name = NuBBE_1584
REMARK  5 active torsions:
REMARK  status: ('A' for Active; 'I' for Inactive)
REMARK    1  A    between atoms: O_1  and  C_2
REMARK    2  A    between atoms: O_1  and  C_3
REMARK    3  A    between atoms: C_5  and  C_10
REMARK    4  A    between atoms: C_8  and  O_9
REMARK    5  A    between atoms: C_18  and  C_22
REMARK                            x       y       z     vdW  Elec       q    Type
REMARK                         _______ _______ _______ _____ _____    ______ ____
ROOT
ATOM      1  C   LIG A   1      -8.654   2.443 122.968  0.00  0.00    +0.154 C 
ATOM      2  C   LIG A   1      -7.580   1.590 123.657  0.00  0.00    +0.056 C 
ATOM      3  C   LIG A   1      -8.277   0.284 123.952  0.00  0.00    +0.056 C 
ATOM      4  C   LIG A   1      -9.338   0.209 122.883  0.00  0.00    +0.167 C 
ATOM      5  O   LIG A   1      -9.742   1.556 122.623  0.00  0.00    -0.371 OA
ATOM      6  C   LIG A   1      -8.858   0.463 125.362  0.00  0.00    +0.154 C 
ATOM      7  O   LIG A   1      -8.226   1.631 125.925  0.00  0.00    -0.371 OA
ATOM      8  C   LIG A   1      -7.201   2.080 125.034  0.00  0.00    +0.167 C 
ENDROOT
BRANCH   6   9
ATOM      9  C   LIG A   1      -8.643  -0.767 126.232  0.00  0.00    -0.015 A 
ATOM     10  C   LIG A   1      -7.881  -0.661 127.415  0.00  0.00    +0.055 A 
ATOM     11  C   LIG A   1      -7.718  -1.784 128.198  0.00  0.00    +0.167 A 
ATOM     12  C   LIG A   1      -8.258  -2.996 127.855  0.00  0.00    +0.166 A 
ATOM     13  C   LIG A   1      -8.990  -3.155 126.695  0.00  0.00    +0.050 A 
ATOM     14  C   LIG A   1      -9.176  -2.030 125.883  0.00  0.00    +0.010 A 
ATOM     15  O   LIG A   1      -7.981  -3.968 128.761  0.00  0.00    -0.453 OA
ATOM     16  C   LIG A   1      -7.204  -3.231 129.718  0.00  0.00    +0.466 C 
ATOM     17  O   LIG A   1      -7.034  -1.840 129.377  0.00  0.00    -0.453 OA
ENDBRANCH   6   9
BRANCH   1  20
ATOM     18  C   LIG A   1      -6.295   4.131 120.448  0.00  0.00    +0.162 A 
ATOM     19  C   LIG A   1      -6.787   3.473 121.587  0.00  0.00    +0.055 A 
ATOM     20  C   LIG A   1      -8.149   3.149 121.721  0.00  0.00    -0.015 A 
ATOM     21  C   LIG A   1      -9.014   3.504 120.675  0.00  0.00    +0.010 A 
ATOM     22  C   LIG A   1      -8.540   4.173 119.544  0.00  0.00    +0.049 A 
ATOM     23  C   LIG A   1      -7.185   4.489 119.432  0.00  0.00    +0.159 A 
BRANCH  18  24
ATOM     24  O   LIG A   1      -4.955   4.416 120.504  0.00  0.00    -0.491 OA
ATOM     25  C   LIG A   1      -4.439   4.776 121.780  0.00  0.00    +0.277 C 
ENDBRANCH  18  24
BRANCH  23  26
ATOM     26  O   LIG A   1      -6.768   5.179 118.328  0.00  0.00    -0.503 OA
ATOM     27  H   LIG A   1      -6.598   6.103 118.577  0.00  0.00    +0.292 HD
ENDBRANCH  23  26
ENDBRANCH   1  20
TORSDOF 4
ENDMDL
MODEL 3
REMARK VINA RESULT:      -8.2      0.791      9.051
REMARK  Name = NuBBE_1584
REMARK  5 active torsions:
REMARK  status: ('A' for Active; 'I' for Inactive)
REMARK    1  A    between atoms: O_1  and  C_2
REMARK    2  A    between atoms: O_1  and  C_3
REMARK    3  A    between atoms: C_5  and  C_10
REMARK    4  A    between atoms: C_8  and  O_9
REMARK    5  A    between atoms: C_18  and  C_22
REMARK                            x       y       z     vdW  Elec       q    Type
REMARK                         _______ _______ _______ _____ _____    ______ ____
ROOT
ATOM      1  C   LIG A   1      -8.427   0.444 125.525  0.00  0.00    +0.154 C 
ATOM      2  C   LIG A   1      -8.021   0.331 124.048  0.00  0.00    +0.056 C 
ATOM      3  C   LIG A   1      -6.949   1.379 123.878  0.00  0.00    +0.056 C 
ATOM      4  C   LIG A   1      -6.357   1.497 125.260  0.00  0.00    +0.167 C 
ATOM      5  O   LIG A   1      -7.427   1.258 126.177  0.00  0.00    -0.371 OA
ATOM      6  C   LIG A   1      -7.706   2.642 123.441  0.00  0.00    +0.154 C 
ATOM      7  O   LIG A   1      -9.032   2.219 123.061  0.00  0.00    -0.371 OA
ATOM      8  C   LIG A   1      -9.089   0.790 123.085  0.00  0.00    +0.167 C 
ENDROOT
BRANCH   6   9
ATOM      9  C   LIG A   1      -7.001   3.370 122.306  0.00  0.00    -0.015 A 
ATOM     10  C   LIG A   1      -7.675   3.574 121.082  0.00  0.00    +0.055 A 
ATOM     11  C   LIG A   1      -7.024   4.255 120.076  0.00  0.00    +0.167 A 
ATOM     12  C   LIG A   1      -5.744   4.723 120.223  0.00  0.00    +0.166 A 
ATOM     13  C   LIG A   1      -5.036   4.526 121.392  0.00  0.00    +0.050 A 
ATOM     14  C   LIG A   1      -5.675   3.842 122.432  0.00  0.00    +0.010 A 
ATOM     15  O   LIG A   1      -5.292   5.365 119.116  0.00  0.00    -0.453 OA
ATOM     16  C   LIG A   1      -6.433   5.250 118.252  0.00  0.00    +0.466 C 
ATOM     17  O   LIG A   1      -7.544   4.553 118.850  0.00  0.00    -0.453 OA
ENDBRANCH   6   9
BRANCH   1  20
ATOM     18  C   LIG A   1      -7.964  -2.354 128.119  0.00  0.00    +0.162 A 
ATOM     19  C   LIG A   1      -7.890  -1.117 127.456  0.00  0.00    +0.055 A 
ATOM     20  C   LIG A   1      -8.531  -0.903 126.223  0.00  0.00    -0.015 A 
ATOM     21  C   LIG A   1      -9.254  -1.966 125.665  0.00  0.00    +0.010 A 
ATOM     22  C   LIG A   1      -9.322  -3.206 126.305  0.00  0.00    +0.049 A 
ATOM     23  C   LIG A   1      -8.676  -3.401 127.527  0.00  0.00    +0.159 A 
BRANCH  18  24
ATOM     24  O   LIG A   1      -7.241  -2.407 129.282  0.00  0.00    -0.491 OA
ATOM     25  C   LIG A   1      -7.127  -1.190 130.011  0.00  0.00    +0.277 C 
ENDBRANCH  18  24
BRANCH  23  26
ATOM     26  O   LIG A   1      -8.734  -4.639 128.102  0.00  0.00    -0.503 OA
ATOM     27  H   LIG A   1      -9.603  -4.754 128.522  0.00  0.00    +0.292 HD
ENDBRANCH  23  26
ENDBRANCH   1  20
TORSDOF 4
ENDMDL
MODEL 4
REMARK VINA RESULT:      -7.7      4.449      7.073
REMARK  Name = NuBBE_1584
REMARK  5 active torsions:
REMARK  status: ('A' for Active; 'I' for Inactive)
REMARK    1  A    between atoms: O_1  and  C_2
REMARK    2  A    between atoms: O_1  and  C_3
REMARK    3  A    between atoms: C_5  and  C_10
REMARK    4  A    between atoms: C_8  and  O_9
REMARK    5  A    between atoms: C_18  and  C_22
REMARK                            x       y       z     vdW  Elec       q    Type
REMARK                         _______ _______ _______ _____ _____    ______ ____
ROOT
ATOM      1  C   LIG A   1      -6.095   2.745 124.634  0.00  0.00    +0.154 C 
ATOM      2  C   LIG A   1      -6.000   2.663 126.164  0.00  0.00    +0.056 C 
ATOM      3  C   LIG A   1      -5.552   4.042 126.582  0.00  0.00    +0.056 C 
ATOM      4  C   LIG A   1      -6.075   4.926 125.478  0.00  0.00    +0.167 C 
ATOM      5  O   LIG A   1      -6.024   4.145 124.281  0.00  0.00    -0.371 OA
ATOM      6  C   LIG A   1      -4.018   3.960 126.609  0.00  0.00    +0.154 C 
ATOM      7  O   LIG A   1      -3.677   2.559 126.558  0.00  0.00    -0.371 OA
ATOM      8  C   LIG A   1      -4.875   1.785 126.658  0.00  0.00    +0.167 C 
ENDROOT
BRANCH   6   9
ATOM      9  C   LIG A   1      -3.429   4.638 127.837  0.00  0.00    -0.015 A 
ATOM     10  C   LIG A   1      -3.541   4.016 129.100  0.00  0.00    +0.055 A 
ATOM     11  C   LIG A   1      -2.980   4.639 130.195  0.00  0.00    +0.167 A 
ATOM     12  C   LIG A   1      -2.336   5.845 130.096  0.00  0.00    +0.166 A 
ATOM     13  C   LIG A   1      -2.223   6.503 128.888  0.00  0.00    +0.050 A 
ATOM     14  C   LIG A   1      -2.778   5.891 127.758  0.00  0.00    +0.010 A 
ATOM     15  O   LIG A   1      -1.858   6.281 131.289  0.00  0.00    -0.453 OA
ATOM     16  C   LIG A   1      -2.273   5.212 132.153  0.00  0.00    +0.466 C 
ATOM     17  O   LIG A   1      -2.982   4.159 131.471  0.00  0.00    -0.453 OA
ENDBRANCH   6   9
BRANCH   1  20
ATOM     18  C   LIG A   1      -9.031   0.328 124.078  0.00  0.00    +0.162 A 
ATOM     19  C   LIG A   1      -7.855   0.914 124.577  0.00  0.00    +0.055 A 
ATOM     20  C   LIG A   1      -7.374   2.138 124.080  0.00  0.00    -0.015 A 
ATOM     21  C   LIG A   1      -8.106   2.767 123.062  0.00  0.00    +0.010 A 
ATOM     22  C   LIG A   1      -9.268   2.188 122.547  0.00  0.00    +0.049 A 
ATOM     23  C   LIG A   1      -9.727   0.969 123.050  0.00  0.00    +0.159 A 
BRANCH  18  24
ATOM     24  O   LIG A   1      -9.327  -0.889 124.636  0.00  0.00    -0.491 OA
ATOM     25  C   LIG A   1      -8.644  -2.014 124.097  0.00  0.00    +0.277 C 
ENDBRANCH  18  24
BRANCH  23  26
ATOM     26  O   LIG A   1     -10.845   0.416 122.492  0.00  0.00    -0.503 OA
ATOM     27  H   LIG A   1     -11.053  -0.414 122.954  0.00  0.00    +0.292 HD
ENDBRANCH  23  26
ENDBRANCH   1  20
TORSDOF 4
ENDMDL
MODEL 5
REMARK VINA RESULT:      -7.6      3.202      8.833
REMARK  Name = NuBBE_1584
REMARK  5 active torsions:
REMARK  status: ('A' for Active; 'I' for Inactive)
REMARK    1  A    between atoms: O_1  and  C_2
REMARK    2  A    between atoms: O_1  and  C_3
REMARK    3  A    between atoms: C_5  and  C_10
REMARK    4  A    between atoms: C_8  and  O_9
REMARK    5  A    between atoms: C_18  and  C_22
REMARK                            x       y       z     vdW  Elec       q    Type
REMARK                         _______ _______ _______ _____ _____    ______ ____
ROOT
ATOM      1  C   LIG A   1      -7.631   2.025 127.405  0.00  0.00    +0.154 C 
ATOM      2  C   LIG A   1      -7.868   3.288 126.565  0.00  0.00    +0.056 C 
ATOM      3  C   LIG A   1      -8.310   2.761 125.222  0.00  0.00    +0.056 C 
ATOM      4  C   LIG A   1      -8.939   1.433 125.560  0.00  0.00    +0.167 C 
ATOM      5  O   LIG A   1      -8.214   0.919 126.680  0.00  0.00    -0.371 OA
ATOM      6  C   LIG A   1      -7.012   2.621 124.413  0.00  0.00    +0.154 C 
ATOM      7  O   LIG A   1      -5.994   3.347 125.133  0.00  0.00    -0.371 OA
ATOM      8  C   LIG A   1      -6.604   4.041 126.226  0.00  0.00    +0.167 C 
ENDROOT
BRANCH   6   9
ATOM      9  C   LIG A   1      -7.165   3.132 122.988  0.00  0.00    -0.015 A 
ATOM     10  C   LIG A   1      -6.061   3.726 122.337  0.00  0.00    +0.055 A 
ATOM     11  C   LIG A   1      -6.218   4.162 121.038  0.00  0.00    +0.167 A 
ATOM     12  C   LIG A   1      -7.411   4.052 120.372  0.00  0.00    +0.166 A 
ATOM     13  C   LIG A   1      -8.524   3.502 120.975  0.00  0.00    +0.050 A 
ATOM     14  C   LIG A   1      -8.392   3.045 122.292  0.00  0.00    +0.010 A 
ATOM     15  O   LIG A   1      -7.349   4.539 119.106  0.00  0.00    -0.453 OA
ATOM     16  C   LIG A   1      -5.981   4.970 119.050  0.00  0.00    +0.466 C 
ATOM     17  O   LIG A   1      -5.247   4.731 120.268  0.00  0.00    -0.453 OA
ENDBRANCH   6   9
BRANCH   1  20
ATOM     18  C   LIG A   1      -9.377   3.414 130.535  0.00  0.00    +0.162 A 
ATOM     19  C   LIG A   1      -8.814   3.308 129.252  0.00  0.00    +0.055 A 
ATOM     20  C   LIG A   1      -8.240   2.108 128.796  0.00  0.00    -0.015 A 
ATOM     21  C   LIG A   1      -8.246   1.006 129.663  0.00  0.00    +0.010 A 
ATOM     22  C   LIG A   1      -8.788   1.102 130.946  0.00  0.00    +0.049 A 
ATOM     23  C   LIG A   1      -9.350   2.304 131.383  0.00  0.00    +0.159 A 
BRANCH  18  24
ATOM     24  O   LIG A   1      -9.845   4.667 130.837  0.00  0.00    -0.491 OA
ATOM     25  C   LIG A   1     -11.179   4.956 130.436  0.00  0.00    +0.277 C 
ENDBRANCH  18  24
BRANCH  23  26
ATOM     26  O   LIG A   1      -9.835   2.369 132.659  0.00  0.00    -0.503 OA
ATOM     27  H   LIG A   1     -10.418   3.142 132.738  0.00  0.00    +0.292 HD
ENDBRANCH  23  26
ENDBRANCH   1  20
TORSDOF 4
ENDMDL
MODEL 6
REMARK VINA RESULT:      -7.5      6.979      8.715
REMARK  Name = NuBBE_1584
REMARK  5 active torsions:
REMARK  status: ('A' for Active; 'I' for Inactive)
REMARK    1  A    between atoms: O_1  and  C_2
REMARK    2  A    between atoms: O_1  and  C_3
REMARK    3  A    between atoms: C_5  and  C_10
REMARK    4  A    between atoms: C_8  and  O_9
REMARK    5  A    between atoms: C_18  and  C_22
REMARK                            x       y       z     vdW  Elec       q    Type
REMARK                         _______ _______ _______ _____ _____    ______ ____
ROOT
ATOM      1  C   LIG A   1     -10.966   5.008 131.210  0.00  0.00    +0.154 C 
ATOM      2  C   LIG A   1      -9.501   5.066 131.668  0.00  0.00    +0.056 C 
ATOM      3  C   LIG A   1      -8.909   3.766 131.181  0.00  0.00    +0.056 C 
ATOM      4  C   LIG A   1      -9.759   3.426 129.983  0.00  0.00    +0.167 C 
ATOM      5  O   LIG A   1     -11.071   3.917 130.268  0.00  0.00    -0.371 OA
ATOM      6  C   LIG A   1      -9.103   2.789 132.351  0.00  0.00    +0.154 C 
ATOM      7  O   LIG A   1      -9.447   3.585 133.503  0.00  0.00    -0.371 OA
ATOM      8  C   LIG A   1      -9.326   4.970 133.165  0.00  0.00    +0.167 C 
ENDROOT
BRANCH   6   9
ATOM      9  C   LIG A   1      -7.865   1.942 132.602  0.00  0.00    -0.015 A 
ATOM     10  C   LIG A   1      -7.539   0.899 131.707  0.00  0.00    +0.055 A 
ATOM     11  C   LIG A   1      -6.400   0.158 131.944  0.00  0.00    +0.167 A 
ATOM     12  C   LIG A   1      -5.590   0.392 133.024  0.00  0.00    +0.166 A 
ATOM     13  C   LIG A   1      -5.882   1.383 133.940  0.00  0.00    +0.050 A 
ATOM     14  C   LIG A   1      -7.029   2.155 133.722  0.00  0.00    +0.010 A 
ATOM     15  O   LIG A   1      -4.524  -0.447 133.070  0.00  0.00    -0.453 OA
ATOM     16  C   LIG A   1      -4.753  -1.237 131.894  0.00  0.00    +0.466 C 
ATOM     17  O   LIG A   1      -5.938  -0.861 131.164  0.00  0.00    -0.453 OA
ENDBRANCH   6   9
BRANCH   1  20
ATOM     18  C   LIG A   1     -11.256   7.955 128.760  0.00  0.00    +0.162 A 
ATOM     19  C   LIG A   1     -10.841   6.763 129.377  0.00  0.00    +0.055 A 
ATOM     20  C   LIG A   1     -11.441   6.297 130.560  0.00  0.00    -0.015 A 
ATOM     21  C   LIG A   1     -12.478   7.061 131.115  0.00  0.00    +0.010 A 
ATOM     22  C   LIG A   1     -12.891   8.256 130.520  0.00  0.00    +0.049 A 
ATOM     23  C   LIG A   1     -12.280   8.704 129.348  0.00  0.00    +0.159 A 
BRANCH  18  24
ATOM     24  O   LIG A   1     -10.531   8.288 127.645  0.00  0.00    -0.491 OA
ATOM     25  C   LIG A   1     -10.930   7.673 126.426  0.00  0.00    +0.277 C 
ENDBRANCH  18  24
BRANCH  23  26
ATOM     26  O   LIG A   1     -12.685   9.897 128.819  0.00  0.00    -0.503 OA
ATOM     27  H   LIG A   1     -12.154  10.612 129.206  0.00  0.00    +0.292 HD
ENDBRANCH  23  26
ENDBRANCH   1  20
TORSDOF 4
ENDMDL
MODEL 7
REMARK VINA RESULT:      -7.4      2.552      4.511
REMARK  Name = NuBBE_1584
REMARK  5 active torsions:
REMARK  status: ('A' for Active; 'I' for Inactive)
REMARK    1  A    between atoms: O_1  and  C_2
REMARK    2  A    between atoms: O_1  and  C_3
REMARK    3  A    between atoms: C_5  and  C_10
REMARK    4  A    between atoms: C_8  and  O_9
REMARK    5  A    between atoms: C_18  and  C_22
REMARK                            x       y       z     vdW  Elec       q    Type
REMARK                         _______ _______ _______ _____ _____    ______ ____
ROOT
ATOM      1  C   LIG A   1      -7.718  -0.473 125.272  0.00  0.00    +0.154 C 
ATOM      2  C   LIG A   1      -6.977  -0.033 126.543  0.00  0.00    +0.056 C 
ATOM      3  C   LIG A   1      -5.912  -1.085 126.733  0.00  0.00    +0.056 C 
ATOM      4  C   LIG A   1      -5.659  -1.580 125.331  0.00  0.00    +0.167 C 
ATOM      5  O   LIG A   1      -6.910  -1.494 124.645  0.00  0.00    -0.371 OA
ATOM      6  C   LIG A   1      -6.566  -2.141 127.635  0.00  0.00    +0.154 C 
ATOM      7  O   LIG A   1      -7.760  -1.541 128.178  0.00  0.00    -0.371 OA
ATOM      8  C   LIG A   1      -7.798  -0.161 127.803  0.00  0.00    +0.167 C 
ENDROOT
BRANCH   6   9
ATOM      9  C   LIG A   1      -5.628  -2.620 128.733  0.00  0.00    -0.015 A 
ATOM     10  C   LIG A   1      -6.122  -2.805 130.042  0.00  0.00    +0.055 A 
ATOM     11  C   LIG A   1      -5.258  -3.260 131.016  0.00  0.00    +0.167 A 
ATOM     12  C   LIG A   1      -3.938  -3.521 130.754  0.00  0.00    +0.166 A 
ATOM     13  C   LIG A   1      -3.403  -3.332 129.495  0.00  0.00    +0.050 A 
ATOM     14  C   LIG A   1      -4.259  -2.876 128.486  0.00  0.00    +0.010 A 
ATOM     15  O   LIG A   1      -3.265  -3.960 131.848  0.00  0.00    -0.453 OA
ATOM     16  C   LIG A   1      -4.312  -3.947 132.831  0.00  0.00    +0.466 C 
ATOM     17  O   LIG A   1      -5.585  -3.511 132.316  0.00  0.00    -0.453 OA
ENDBRANCH   6   9
BRANCH   1  20
ATOM     18  C   LIG A   1      -7.123   2.627 123.080  0.00  0.00    +0.162 A 
ATOM     19  C   LIG A   1      -6.925   1.562 123.975  0.00  0.00    +0.055 A 
ATOM     20  C   LIG A   1      -7.960   0.666 124.295  0.00  0.00    -0.015 A 
ATOM     21  C   LIG A   1      -9.210   0.863 123.690  0.00  0.00    +0.010 A 
ATOM     22  C   LIG A   1      -9.425   1.927 122.811  0.00  0.00    +0.049 A 
ATOM     23  C   LIG A   1      -8.386   2.809 122.510  0.00  0.00    +0.159 A 
BRANCH  18  24
ATOM     24  O   LIG A   1      -6.027   3.434 122.922  0.00  0.00    -0.491 OA
ATOM     25  C   LIG A   1      -5.664   4.234 124.041  0.00  0.00    +0.277 C 
ENDBRANCH  18  24
BRANCH  23  26
ATOM     26  O   LIG A   1      -8.647   3.860 121.676  0.00  0.00    -0.503 OA
ATOM     27  H   LIG A   1      -8.152   3.740 120.849  0.00  0.00    +0.292 HD
ENDBRANCH  23  26
ENDBRANCH   1  20
TORSDOF 4
ENDMDL
MODEL 8
REMARK VINA RESULT:      -7.4      2.294      8.970
REMARK  Name = NuBBE_1584
REMARK  5 active torsions:
REMARK  status: ('A' for Active; 'I' for Inactive)
REMARK    1  A    between atoms: O_1  and  C_2
REMARK    2  A    between atoms: O_1  and  C_3
REMARK    3  A    between atoms: C_5  and  C_10
REMARK    4  A    between atoms: C_8  and  O_9
REMARK    5  A    between atoms: C_18  and  C_22
REMARK                            x       y       z     vdW  Elec       q    Type
REMARK                         _______ _______ _______ _____ _____    ______ ____
ROOT
ATOM      1  C   LIG A   1      -7.459   1.609 126.886  0.00  0.00    +0.154 C 
ATOM      2  C   LIG A   1      -7.650   2.952 126.166  0.00  0.00    +0.056 C 
ATOM      3  C   LIG A   1      -8.235   2.574 124.827  0.00  0.00    +0.056 C 
ATOM      4  C   LIG A   1      -8.948   1.277 125.113  0.00  0.00    +0.167 C 
ATOM      5  O   LIG A   1      -8.187   0.616 126.128  0.00  0.00    -0.371 OA
ATOM      6  C   LIG A   1      -7.017   2.400 123.908  0.00  0.00    +0.154 C 
ATOM      7  O   LIG A   1      -5.891   2.981 124.596  0.00  0.00    -0.371 OA
ATOM      8  C   LIG A   1      -6.356   3.628 125.784  0.00  0.00    +0.167 C 
ENDROOT
BRANCH   6   9
ATOM      9  C   LIG A   1      -7.232   3.037 122.543  0.00  0.00    -0.015 A 
ATOM     10  C   LIG A   1      -6.138   3.612 121.861  0.00  0.00    +0.055 A 
ATOM     11  C   LIG A   1      -6.353   4.165 120.616  0.00  0.00    +0.167 A 
ATOM     12  C   LIG A   1      -7.593   4.187 120.033  0.00  0.00    +0.166 A 
ATOM     13  C   LIG A   1      -8.698   3.660 120.672  0.00  0.00    +0.050 A 
ATOM     14  C   LIG A   1      -8.508   3.087 121.935  0.00  0.00    +0.010 A 
ATOM     15  O   LIG A   1      -7.585   4.775 118.809  0.00  0.00    -0.453 OA
ATOM     16  C   LIG A   1      -6.197   5.121 118.685  0.00  0.00    +0.466 C 
ATOM     17  O   LIG A   1      -5.400   4.734 119.823  0.00  0.00    -0.453 OA
ENDBRANCH   6   9
BRANCH   1  20
ATOM     18  C   LIG A   1      -8.240   0.481 130.476  0.00  0.00    +0.162 A 
ATOM     19  C   LIG A   1      -7.786   0.496 129.146  0.00  0.00    +0.055 A 
ATOM     20  C   LIG A   1      -7.954   1.624 128.323  0.00  0.00    -0.015 A 
ATOM     21  C   LIG A   1      -8.592   2.747 128.870  0.00  0.00    +0.010 A 
ATOM     22  C   LIG A   1      -9.062   2.740 130.185  0.00  0.00    +0.049 A 
ATOM     23  C   LIG A   1      -8.890   1.609 130.985  0.00  0.00    +0.159 A 
BRANCH  18  24
ATOM     24  O   LIG A   1      -8.043  -0.713 131.119  0.00  0.00    -0.491 OA
ATOM     25  C   LIG A   1      -7.272  -1.685 130.422  0.00  0.00    +0.277 C 
ENDBRANCH  18  24
BRANCH  23  26
ATOM     26  O   LIG A   1      -9.399   1.627 132.254  0.00  0.00    -0.503 OA
ATOM     27  H   LIG A   1      -8.797   1.144 132.844  0.00  0.00    +0.292 HD
ENDBRANCH  23  26
ENDBRANCH   1  20
TORSDOF 4
ENDMDL
MODEL 9
REMARK VINA RESULT:      -7.3      4.480      7.466
REMARK  Name = NuBBE_1584
REMARK  5 active torsions:
REMARK  status: ('A' for Active; 'I' for Inactive)
REMARK    1  A    between atoms: O_1  and  C_2
REMARK    2  A    between atoms: O_1  and  C_3
REMARK    3  A    between atoms: C_5  and  C_10
REMARK    4  A    between atoms: C_8  and  O_9
REMARK    5  A    between atoms: C_18  and  C_22
REMARK                            x       y       z     vdW  Elec       q    Type
REMARK                         _______ _______ _______ _____ _____    ______ ____
ROOT
ATOM      1  C   LIG A   1      -4.221   4.481 126.670  0.00  0.00    +0.154 C 
ATOM      2  C   LIG A   1      -5.749   4.361 126.579  0.00  0.00    +0.056 C 
ATOM      3  C   LIG A   1      -5.984   2.925 126.177  0.00  0.00    +0.056 C 
ATOM      4  C   LIG A   1      -4.775   2.210 126.723  0.00  0.00    +0.167 C 
ATOM      5  O   LIG A   1      -3.690   3.137 126.642  0.00  0.00    -0.371 OA
ATOM      6  C   LIG A   1      -6.024   2.953 124.643  0.00  0.00    +0.154 C 
ATOM      7  O   LIG A   1      -6.155   4.337 124.256  0.00  0.00    -0.371 OA
ATOM      8  C   LIG A   1      -6.354   5.130 125.429  0.00  0.00    +0.167 C 
ENDROOT
BRANCH   6   9
ATOM      9  C   LIG A   1      -7.153   2.102 124.081  0.00  0.00    -0.015 A 
ATOM     10  C   LIG A   1      -6.991   0.703 123.983  0.00  0.00    +0.055 A 
ATOM     11  C   LIG A   1      -8.036  -0.049 123.491  0.00  0.00    +0.167 A 
ATOM     12  C   LIG A   1      -9.214   0.520 123.082  0.00  0.00    +0.166 A 
ATOM     13  C   LIG A   1      -9.410   1.885 123.135  0.00  0.00    +0.050 A 
ATOM     14  C   LIG A   1      -8.368   2.674 123.636  0.00  0.00    +0.010 A 
ATOM     15  O   LIG A   1     -10.110  -0.397 122.634  0.00  0.00    -0.453 OA
ATOM     16  C   LIG A   1      -9.363  -1.611 122.807  0.00  0.00    +0.466 C 
ATOM     17  O   LIG A   1      -8.046  -1.407 123.357  0.00  0.00    -0.453 OA
ENDBRANCH   6   9
BRANCH   1  20
ATOM     18  C   LIG A   1      -4.175   5.933 130.228  0.00  0.00    +0.162 A 
ATOM     19  C   LIG A   1      -4.583   5.273 129.056  0.00  0.00    +0.055 A 
ATOM     20  C   LIG A   1      -3.750   5.196 127.926  0.00  0.00    -0.015 A 
ATOM     21  C   LIG A   1      -2.487   5.801 127.998  0.00  0.00    +0.010 A 
ATOM     22  C   LIG A   1      -2.075   6.474 129.150  0.00  0.00    +0.049 A 
ATOM     23  C   LIG A   1      -2.918   6.544 130.261  0.00  0.00    +0.159 A 
BRANCH  18  24
ATOM     24  O   LIG A   1      -5.127   5.959 131.214  0.00  0.00    -0.491 OA
ATOM     25  C   LIG A   1      -6.166   6.919 131.062  0.00  0.00    +0.277 C 
ENDBRANCH  18  24
BRANCH  23  26
ATOM     26  O   LIG A   1      -2.494   7.245 131.355  0.00  0.00    -0.503 OA
ATOM     27  H   LIG A   1      -3.243   7.746 131.720  0.00  0.00    +0.292 HD
ENDBRANCH  23  26
ENDBRANCH   1  20
TORSDOF 4
ENDMDL
