MODEL 1
REMARK VINA RESULT:      -6.6      0.000      0.000
REMARK  Name = NuBBE_1896
REMARK  9 active torsions:
REMARK  status: ('A' for Active; 'I' for Inactive)
REMARK    1  A    between atoms: C_1  and  O_2
REMARK    2  A    between atoms: O_2  and  C_3
REMARK    3  A    between atoms: C_3  and  C_4
REMARK    4  A    between atoms: C_7  and  C_8
REMARK    5  A    between atoms: C_11  and  C_13
REMARK    6  A    between atoms: C_13  and  C_14
REMARK    7  A    between atoms: C_13  and  O_15
REMARK    8  A    between atoms: C_13  and  C_16
REMARK    9  A    between atoms: C_17  and  O_19
REMARK                            x       y       z     vdW  Elec       q    Type
REMARK                         _______ _______ _______ _____ _____    ______ ____
ROOT
ATOM      1  C   LIG A   1      -7.251   2.768 123.192  0.00  0.00    -0.011 A 
ATOM      2  C   LIG A   1      -6.229   3.496 123.817  0.00  0.00    +0.007 A 
ATOM      3  C   LIG A   1      -5.608   3.020 124.970  0.00  0.00    +0.004 A 
ATOM      4  C   LIG A   1      -5.992   1.800 125.540  0.00  0.00    -0.047 A 
ATOM      5  C   LIG A   1      -5.257   1.316 126.762  0.00  0.00    +0.044 C 
ATOM      6  C   LIG A   1      -7.055   1.065 124.963  0.00  0.00    -0.033 A 
ATOM      7  C   LIG A   1      -7.458  -0.265 125.573  0.00  0.00    +0.045 C 
ATOM      8  C   LIG A   1      -8.719  -0.969 125.008  0.00  0.00    +0.061 C 
ATOM      9  C   LIG A   1      -8.789  -0.714 123.500  0.00  0.00    +0.191 C 
ATOM     10  C   LIG A   1      -7.679   1.568 123.801  0.00  0.00    +0.029 A 
ATOM     11  C   LIG A   1      -8.800   0.784 123.238  0.00  0.00    +0.192 C 
ATOM     12  O   LIG A   1      -9.701   1.310 122.583  0.00  0.00    -0.289 OA
ENDROOT
BRANCH   8  13
ATOM     13  C   LIG A   1      -8.743  -2.486 125.406  0.00  0.00    +0.066 C 
ATOM     14  C   LIG A   1      -8.387  -2.767 126.875  0.00  0.00    +0.041 C 
ATOM     15  C   LIG A   1      -7.773  -3.304 124.537  0.00  0.00    +0.041 C 
BRANCH  13  16
ATOM     16  O   LIG A   1     -10.052  -3.013 125.157  0.00  0.00    -0.389 OA
ATOM     17  H   LIG A   1      -9.955  -3.859 124.684  0.00  0.00    +0.210 HD
ENDBRANCH  13  16
ENDBRANCH   8  13
BRANCH   9  18
ATOM     18  O   LIG A   1      -9.994  -1.247 122.944  0.00  0.00    -0.384 OA
ATOM     19  H   LIG A   1      -9.944  -1.099 121.975  0.00  0.00    +0.210 HD
ENDBRANCH   9  18
BRANCH   1  20
ATOM     20  C   LIG A   1      -7.864   3.299 121.911  0.00  0.00    +0.195 C 
BRANCH  20  22
ATOM     21  C   LIG A   1      -7.383   4.164 119.770  0.00  0.00    +0.194 C 
ATOM     22  O   LIG A   1      -6.840   3.762 121.020  0.00  0.00    -0.378 OA
ENDBRANCH  20  22
ENDBRANCH   1  20
TORSDOF 5
ENDMDL
MODEL 2
REMARK VINA RESULT:      -6.5      1.814      6.133
REMARK  Name = NuBBE_1896
REMARK  9 active torsions:
REMARK  status: ('A' for Active; 'I' for Inactive)
REMARK    1  A    between atoms: C_1  and  O_2
REMARK    2  A    between atoms: O_2  and  C_3
REMARK    3  A    between atoms: C_3  and  C_4
REMARK    4  A    between atoms: C_7  and  C_8
REMARK    5  A    between atoms: C_11  and  C_13
REMARK    6  A    between atoms: C_13  and  C_14
REMARK    7  A    between atoms: C_13  and  O_15
REMARK    8  A    between atoms: C_13  and  C_16
REMARK    9  A    between atoms: C_17  and  O_19
REMARK                            x       y       z     vdW  Elec       q    Type
REMARK                         _______ _______ _______ _____ _____    ______ ____
ROOT
ATOM      1  C   LIG A   1      -8.509  -2.681 125.366  0.00  0.00    -0.011 A 
ATOM      2  C   LIG A   1      -7.785  -3.767 124.853  0.00  0.00    +0.007 A 
ATOM      3  C   LIG A   1      -6.810  -3.584 123.874  0.00  0.00    +0.004 A 
ATOM      4  C   LIG A   1      -6.530  -2.307 123.372  0.00  0.00    -0.047 A 
ATOM      5  C   LIG A   1      -5.437  -2.165 122.344  0.00  0.00    +0.044 C 
ATOM      6  C   LIG A   1      -7.277  -1.197 123.831  0.00  0.00    -0.033 A 
ATOM      7  C   LIG A   1      -6.958   0.188 123.298  0.00  0.00    +0.045 C 
ATOM      8  C   LIG A   1      -7.892   1.355 123.710  0.00  0.00    +0.061 C 
ATOM      9  C   LIG A   1      -8.355   1.129 125.151  0.00  0.00    +0.191 C 
ATOM     10  C   LIG A   1      -8.267  -1.403 124.816  0.00  0.00    +0.029 A 
ATOM     11  C   LIG A   1      -9.042  -0.223 125.257  0.00  0.00    +0.192 C 
ATOM     12  O   LIG A   1     -10.189  -0.322 125.696  0.00  0.00    -0.289 OA
ENDROOT
BRANCH   8  13
ATOM     13  C   LIG A   1      -7.200   2.742 123.466  0.00  0.00    +0.066 C 
ATOM     14  C   LIG A   1      -6.524   2.887 122.093  0.00  0.00    +0.041 C 
ATOM     15  C   LIG A   1      -6.129   3.024 124.533  0.00  0.00    +0.041 C 
BRANCH  13  16
ATOM     16  O   LIG A   1      -8.180   3.781 123.590  0.00  0.00    -0.389 OA
ATOM     17  H   LIG A   1      -8.284   4.207 122.721  0.00  0.00    +0.210 HD
ENDBRANCH  13  16
ENDBRANCH   8  13
BRANCH   9  18
ATOM     18  O   LIG A   1      -9.308   2.118 125.546  0.00  0.00    -0.384 OA
ATOM     19  H   LIG A   1      -9.282   2.822 124.862  0.00  0.00    +0.210 HD
ENDBRANCH   9  18
BRANCH   1  20
ATOM     20  C   LIG A   1      -9.523  -2.920 126.467  0.00  0.00    +0.195 C 
BRANCH  20  22
ATOM     21  C   LIG A   1      -8.471  -3.354 128.532  0.00  0.00    +0.194 C 
ATOM     22  O   LIG A   1      -9.055  -3.929 127.370  0.00  0.00    -0.378 OA
ENDBRANCH  20  22
ENDBRANCH   1  20
TORSDOF 5
ENDMDL
MODEL 3
REMARK VINA RESULT:      -6.2      3.177      4.981
REMARK  Name = NuBBE_1896
REMARK  9 active torsions:
REMARK  status: ('A' for Active; 'I' for Inactive)
REMARK    1  A    between atoms: C_1  and  O_2
REMARK    2  A    between atoms: O_2  and  C_3
REMARK    3  A    between atoms: C_3  and  C_4
REMARK    4  A    between atoms: C_7  and  C_8
REMARK    5  A    between atoms: C_11  and  C_13
REMARK    6  A    between atoms: C_13  and  C_14
REMARK    7  A    between atoms: C_13  and  O_15
REMARK    8  A    between atoms: C_13  and  C_16
REMARK    9  A    between atoms: C_17  and  O_19
REMARK                            x       y       z     vdW  Elec       q    Type
REMARK                         _______ _______ _______ _____ _____    ______ ____
ROOT
ATOM      1  C   LIG A   1      -8.017   0.998 128.561  0.00  0.00    -0.011 A 
ATOM      2  C   LIG A   1      -7.717   0.482 129.830  0.00  0.00    +0.007 A 
ATOM      3  C   LIG A   1      -7.562  -0.888 130.030  0.00  0.00    +0.004 A 
ATOM      4  C   LIG A   1      -7.704  -1.789 128.968  0.00  0.00    -0.047 A 
ATOM      5  C   LIG A   1      -7.483  -3.255 129.236  0.00  0.00    +0.044 C 
ATOM      6  C   LIG A   1      -8.056  -1.306 127.686  0.00  0.00    -0.033 A 
ATOM      7  C   LIG A   1      -8.193  -2.283 126.533  0.00  0.00    +0.045 C 
ATOM      8  C   LIG A   1      -8.724  -1.739 125.181  0.00  0.00    +0.061 C 
ATOM      9  C   LIG A   1      -8.191  -0.319 124.980  0.00  0.00    +0.191 C 
ATOM     10  C   LIG A   1      -8.220   0.084 127.503  0.00  0.00    +0.029 A 
ATOM     11  C   LIG A   1      -8.608   0.552 126.155  0.00  0.00    +0.192 C 
ATOM     12  O   LIG A   1      -9.236   1.597 125.981  0.00  0.00    -0.289 OA
ENDROOT
BRANCH   8  13
ATOM     13  C   LIG A   1      -8.388  -2.725 124.007  0.00  0.00    +0.066 C 
ATOM     14  C   LIG A   1      -9.616  -3.282 123.269  0.00  0.00    +0.041 C 
ATOM     15  C   LIG A   1      -7.573  -3.929 124.508  0.00  0.00    +0.041 C 
BRANCH  13  16
ATOM     16  O   LIG A   1      -7.564  -2.047 123.050  0.00  0.00    -0.389 OA
ATOM     17  H   LIG A   1      -8.121  -1.416 122.562  0.00  0.00    +0.210 HD
ENDBRANCH  13  16
ENDBRANCH   8  13
BRANCH   9  18
ATOM     18  O   LIG A   1      -8.739   0.275 123.801  0.00  0.00    -0.384 OA
ATOM     19  H   LIG A   1      -9.671   0.503 124.009  0.00  0.00    +0.210 HD
ENDBRANCH   9  18
BRANCH   1  20
ATOM     20  C   LIG A   1      -8.127   2.499 128.378  0.00  0.00    +0.195 C 
BRANCH  20  22
ATOM     21  C   LIG A   1      -8.925   4.122 129.892  0.00  0.00    +0.194 C 
ATOM     22  O   LIG A   1      -9.269   3.007 129.080  0.00  0.00    -0.378 OA
ENDBRANCH  20  22
ENDBRANCH   1  20
TORSDOF 5
ENDMDL
MODEL 4
REMARK VINA RESULT:      -6.2      2.503      6.642
REMARK  Name = NuBBE_1896
REMARK  9 active torsions:
REMARK  status: ('A' for Active; 'I' for Inactive)
REMARK    1  A    between atoms: C_1  and  O_2
REMARK    2  A    between atoms: O_2  and  C_3
REMARK    3  A    between atoms: C_3  and  C_4
REMARK    4  A    between atoms: C_7  and  C_8
REMARK    5  A    between atoms: C_11  and  C_13
REMARK    6  A    between atoms: C_13  and  C_14
REMARK    7  A    between atoms: C_13  and  O_15
REMARK    8  A    between atoms: C_13  and  C_16
REMARK    9  A    between atoms: C_17  and  O_19
REMARK                            x       y       z     vdW  Elec       q    Type
REMARK                         _______ _______ _______ _____ _____    ______ ____
ROOT
ATOM      1  C   LIG A   1      -8.091  -1.999 127.360  0.00  0.00    -0.011 A 
ATOM      2  C   LIG A   1      -8.380  -3.276 126.858  0.00  0.00    +0.007 A 
ATOM      3  C   LIG A   1      -8.746  -3.461 125.527  0.00  0.00    +0.004 A 
ATOM      4  C   LIG A   1      -8.840  -2.372 124.651  0.00  0.00    -0.047 A 
ATOM      5  C   LIG A   1      -9.200  -2.638 123.213  0.00  0.00    +0.044 C 
ATOM      6  C   LIG A   1      -8.604  -1.064 125.137  0.00  0.00    -0.033 A 
ATOM      7  C   LIG A   1      -8.689   0.112 124.181  0.00  0.00    +0.045 C 
ATOM      8  C   LIG A   1      -8.573   1.539 124.777  0.00  0.00    +0.061 C 
ATOM      9  C   LIG A   1      -7.574   1.507 125.935  0.00  0.00    +0.191 C 
ATOM     10  C   LIG A   1      -8.244  -0.895 126.491  0.00  0.00    +0.029 A 
ATOM     11  C   LIG A   1      -8.026   0.488 126.969  0.00  0.00    +0.192 C 
ATOM     12  O   LIG A   1      -8.195   0.807 128.147  0.00  0.00    -0.289 OA
ENDROOT
BRANCH   8  13
ATOM     13  C   LIG A   1      -8.232   2.588 123.661  0.00  0.00    +0.066 C 
ATOM     14  C   LIG A   1      -9.095   2.476 122.393  0.00  0.00    +0.041 C 
ATOM     15  C   LIG A   1      -6.762   2.476 123.223  0.00  0.00    +0.041 C 
BRANCH  13  16
ATOM     16  O   LIG A   1      -8.397   3.908 124.195  0.00  0.00    -0.389 OA
ATOM     17  H   LIG A   1      -7.908   3.958 125.036  0.00  0.00    +0.210 HD
ENDBRANCH  13  16
ENDBRANCH   8  13
BRANCH   9  18
ATOM     18  O   LIG A   1      -7.510   2.774 126.594  0.00  0.00    -0.384 OA
ATOM     19  H   LIG A   1      -7.610   2.596 127.554  0.00  0.00    +0.210 HD
ENDBRANCH   9  18
BRANCH   1  20
ATOM     20  C   LIG A   1      -7.647  -1.850 128.801  0.00  0.00    +0.195 C 
BRANCH  20  22
ATOM     21  C   LIG A   1      -7.419  -3.135 130.765  0.00  0.00    +0.194 C 
ATOM     22  O   LIG A   1      -8.208  -2.893 129.608  0.00  0.00    -0.378 OA
ENDBRANCH  20  22
ENDBRANCH   1  20
TORSDOF 5
ENDMDL
MODEL 5
REMARK VINA RESULT:      -6.2      2.772      5.230
REMARK  Name = NuBBE_1896
REMARK  9 active torsions:
REMARK  status: ('A' for Active; 'I' for Inactive)
REMARK    1  A    between atoms: C_1  and  O_2
REMARK    2  A    between atoms: O_2  and  C_3
REMARK    3  A    between atoms: C_3  and  C_4
REMARK    4  A    between atoms: C_7  and  C_8
REMARK    5  A    between atoms: C_11  and  C_13
REMARK    6  A    between atoms: C_13  and  C_14
REMARK    7  A    between atoms: C_13  and  O_15
REMARK    8  A    between atoms: C_13  and  C_16
REMARK    9  A    between atoms: C_17  and  O_19
REMARK                            x       y       z     vdW  Elec       q    Type
REMARK                         _______ _______ _______ _____ _____    ______ ____
ROOT
ATOM      1  C   LIG A   1      -8.514  -1.652 124.468  0.00  0.00    -0.011 A 
ATOM      2  C   LIG A   1      -8.584  -3.042 124.639  0.00  0.00    +0.007 A 
ATOM      3  C   LIG A   1      -8.499  -3.617 125.905  0.00  0.00    +0.004 A 
ATOM      4  C   LIG A   1      -8.336  -2.819 127.045  0.00  0.00    -0.047 A 
ATOM      5  C   LIG A   1      -8.292  -3.493 128.391  0.00  0.00    +0.044 C 
ATOM      6  C   LIG A   1      -8.210  -1.417 126.903  0.00  0.00    -0.033 A 
ATOM      7  C   LIG A   1      -8.051  -0.554 128.142  0.00  0.00    +0.045 C 
ATOM      8  C   LIG A   1      -7.767   0.957 127.940  0.00  0.00    +0.061 C 
ATOM      9  C   LIG A   1      -8.537   1.441 126.709  0.00  0.00    +0.191 C 
ATOM     10  C   LIG A   1      -8.289  -0.853 125.611  0.00  0.00    +0.029 A 
ATOM     11  C   LIG A   1      -8.132   0.613 125.499  0.00  0.00    +0.192 C 
ATOM     12  O   LIG A   1      -7.701   1.148 124.477  0.00  0.00    -0.289 OA
ENDROOT
BRANCH   8  13
ATOM     13  C   LIG A   1      -8.072   1.766 129.249  0.00  0.00    +0.066 C 
ATOM     14  C   LIG A   1      -6.937   2.696 129.706  0.00  0.00    +0.041 C 
ATOM     15  C   LIG A   1      -8.391   0.824 130.423  0.00  0.00    +0.041 C 
BRANCH  13  16
ATOM     16  O   LIG A   1      -9.245   2.564 129.042  0.00  0.00    -0.389 OA
ATOM     17  H   LIG A   1      -8.979   3.501 129.042  0.00  0.00    +0.210 HD
ENDBRANCH  13  16
ENDBRANCH   8  13
BRANCH   9  18
ATOM     18  O   LIG A   1      -8.224   2.803 126.410  0.00  0.00    -0.384 OA
ATOM     19  H   LIG A   1      -8.763   3.354 127.018  0.00  0.00    +0.210 HD
ENDBRANCH   9  18
BRANCH   1  20
ATOM     20  C   LIG A   1      -8.662  -1.067 123.078  0.00  0.00    +0.195 C 
BRANCH  20  22
ATOM     21  C   LIG A   1     -10.318   0.482 122.427  0.00  0.00    +0.194 C 
ATOM     22  O   LIG A   1     -10.047  -0.872 122.761  0.00  0.00    -0.378 OA
ENDBRANCH  20  22
ENDBRANCH   1  20
TORSDOF 5
ENDMDL
MODEL 6
REMARK VINA RESULT:      -6.0      2.529      4.180
REMARK  Name = NuBBE_1896
REMARK  9 active torsions:
REMARK  status: ('A' for Active; 'I' for Inactive)
REMARK    1  A    between atoms: C_1  and  O_2
REMARK    2  A    between atoms: O_2  and  C_3
REMARK    3  A    between atoms: C_3  and  C_4
REMARK    4  A    between atoms: C_7  and  C_8
REMARK    5  A    between atoms: C_11  and  C_13
REMARK    6  A    between atoms: C_13  and  C_14
REMARK    7  A    between atoms: C_13  and  O_15
REMARK    8  A    between atoms: C_13  and  C_16
REMARK    9  A    between atoms: C_17  and  O_19
REMARK                            x       y       z     vdW  Elec       q    Type
REMARK                         _______ _______ _______ _____ _____    ______ ____
ROOT
ATOM      1  C   LIG A   1      -5.231   2.893 125.609  0.00  0.00    -0.011 A 
ATOM      2  C   LIG A   1      -5.141   4.064 124.843  0.00  0.00    +0.007 A 
ATOM      3  C   LIG A   1      -5.847   4.199 123.649  0.00  0.00    +0.004 A 
ATOM      4  C   LIG A   1      -6.664   3.164 123.178  0.00  0.00    -0.047 A 
ATOM      5  C   LIG A   1      -7.436   3.384 121.903  0.00  0.00    +0.044 C 
ATOM      6  C   LIG A   1      -6.738   1.950 123.901  0.00  0.00    -0.033 A 
ATOM      7  C   LIG A   1      -7.638   0.837 123.396  0.00  0.00    +0.045 C 
ATOM      8  C   LIG A   1      -7.579  -0.529 124.128  0.00  0.00    +0.061 C 
ATOM      9  C   LIG A   1      -7.361  -0.277 125.622  0.00  0.00    +0.191 C 
ATOM     10  C   LIG A   1      -6.008   1.827 125.102  0.00  0.00    +0.029 A 
ATOM     11  C   LIG A   1      -6.092   0.536 125.819  0.00  0.00    +0.192 C 
ATOM     12  O   LIG A   1      -5.184   0.133 126.548  0.00  0.00    -0.289 OA
ENDROOT
BRANCH   8  13
ATOM     13  C   LIG A   1      -8.844  -1.398 123.799  0.00  0.00    +0.066 C 
ATOM     14  C   LIG A   1      -8.534  -2.832 123.340  0.00  0.00    +0.041 C 
ATOM     15  C   LIG A   1      -9.699  -0.742 122.702  0.00  0.00    +0.041 C 
BRANCH  13  16
ATOM     16  O   LIG A   1      -9.673  -1.475 124.967  0.00  0.00    -0.389 OA
ATOM     17  H   LIG A   1      -9.152  -1.167 125.730  0.00  0.00    +0.210 HD
ENDBRANCH  13  16
ENDBRANCH   8  13
BRANCH   9  18
ATOM     18  O   LIG A   1      -7.187  -1.507 126.331  0.00  0.00    -0.384 OA
ATOM     19  H   LIG A   1      -7.381  -2.228 125.693  0.00  0.00    +0.210 HD
ENDBRANCH   9  18
BRANCH   1  20
ATOM     20  C   LIG A   1      -4.486   2.809 126.926  0.00  0.00    +0.195 C 
BRANCH  20  22
ATOM     21  C   LIG A   1      -2.381   3.745 127.430  0.00  0.00    +0.194 C 
ATOM     22  O   LIG A   1      -3.072   2.741 126.699  0.00  0.00    -0.378 OA
ENDBRANCH  20  22
ENDBRANCH   1  20
TORSDOF 5
ENDMDL
MODEL 7
REMARK VINA RESULT:      -6.0      3.167      6.131
REMARK  Name = NuBBE_1896
REMARK  9 active torsions:
REMARK  status: ('A' for Active; 'I' for Inactive)
REMARK    1  A    between atoms: C_1  and  O_2
REMARK    2  A    between atoms: O_2  and  C_3
REMARK    3  A    between atoms: C_3  and  C_4
REMARK    4  A    between atoms: C_7  and  C_8
REMARK    5  A    between atoms: C_11  and  C_13
REMARK    6  A    between atoms: C_13  and  C_14
REMARK    7  A    between atoms: C_13  and  O_15
REMARK    8  A    between atoms: C_13  and  C_16
REMARK    9  A    between atoms: C_17  and  O_19
REMARK                            x       y       z     vdW  Elec       q    Type
REMARK                         _______ _______ _______ _____ _____    ______ ____
ROOT
ATOM      1  C   LIG A   1      -6.483  -1.255 128.885  0.00  0.00    -0.011 A 
ATOM      2  C   LIG A   1      -6.888  -2.163 129.875  0.00  0.00    +0.007 A 
ATOM      3  C   LIG A   1      -7.843  -3.141 129.607  0.00  0.00    +0.004 A 
ATOM      4  C   LIG A   1      -8.429  -3.244 128.340  0.00  0.00    -0.047 A 
ATOM      5  C   LIG A   1      -9.424  -4.348 128.097  0.00  0.00    +0.044 C 
ATOM      6  C   LIG A   1      -8.080  -2.313 127.333  0.00  0.00    -0.033 A 
ATOM      7  C   LIG A   1      -8.705  -2.437 125.955  0.00  0.00    +0.045 C 
ATOM      8  C   LIG A   1      -8.415  -1.314 124.925  0.00  0.00    +0.061 C 
ATOM      9  C   LIG A   1      -6.978  -0.826 125.123  0.00  0.00    +0.191 C 
ATOM     10  C   LIG A   1      -7.119  -1.321 127.625  0.00  0.00    +0.029 A 
ATOM     11  C   LIG A   1      -6.795  -0.352 126.556  0.00  0.00    +0.192 C 
ATOM     12  O   LIG A   1      -6.391   0.785 126.804  0.00  0.00    -0.289 OA
ENDROOT
BRANCH   8  13
ATOM     13  C   LIG A   1      -8.738  -1.793 123.466  0.00  0.00    +0.066 C 
ATOM     14  C   LIG A   1      -9.608  -0.823 122.652  0.00  0.00    +0.041 C 
ATOM     15  C   LIG A   1      -9.455  -3.154 123.474  0.00  0.00    +0.041 C 
BRANCH  13  16
ATOM     16  O   LIG A   1      -7.507  -1.989 122.757  0.00  0.00    -0.389 OA
ATOM     17  H   LIG A   1      -7.083  -2.795 123.100  0.00  0.00    +0.210 HD
ENDBRANCH  13  16
ENDBRANCH   8  13
BRANCH   9  18
ATOM     18  O   LIG A   1      -6.692   0.287 124.272  0.00  0.00    -0.384 OA
ATOM     19  H   LIG A   1      -7.047   0.061 123.386  0.00  0.00    +0.210 HD
ENDBRANCH   9  18
BRANCH   1  20
ATOM     20  C   LIG A   1      -5.405  -0.240 129.205  0.00  0.00    +0.195 C 
BRANCH  20  22
ATOM     21  C   LIG A   1      -4.814   0.716 131.279  0.00  0.00    +0.194 C 
ATOM     22  O   LIG A   1      -5.821   0.610 130.282  0.00  0.00    -0.378 OA
ENDBRANCH  20  22
ENDBRANCH   1  20
TORSDOF 5
ENDMDL
MODEL 8
REMARK VINA RESULT:      -5.6      6.225      7.804
REMARK  Name = NuBBE_1896
REMARK  9 active torsions:
REMARK  status: ('A' for Active; 'I' for Inactive)
REMARK    1  A    between atoms: C_1  and  O_2
REMARK    2  A    between atoms: O_2  and  C_3
REMARK    3  A    between atoms: C_3  and  C_4
REMARK    4  A    between atoms: C_7  and  C_8
REMARK    5  A    between atoms: C_11  and  C_13
REMARK    6  A    between atoms: C_13  and  C_14
REMARK    7  A    between atoms: C_13  and  O_15
REMARK    8  A    between atoms: C_13  and  C_16
REMARK    9  A    between atoms: C_17  and  O_19
REMARK                            x       y       z     vdW  Elec       q    Type
REMARK                         _______ _______ _______ _____ _____    ______ ____
ROOT
ATOM      1  C   LIG A   1      -9.060   4.519 131.833  0.00  0.00    -0.011 A 
ATOM      2  C   LIG A   1      -9.351   3.752 132.970  0.00  0.00    +0.007 A 
ATOM      3  C   LIG A   1      -9.336   2.360 132.922  0.00  0.00    +0.004 A 
ATOM      4  C   LIG A   1      -9.034   1.686 131.732  0.00  0.00    -0.047 A 
ATOM      5  C   LIG A   1      -8.993   0.180 131.751  0.00  0.00    +0.044 C 
ATOM      6  C   LIG A   1      -8.785   2.429 130.554  0.00  0.00    -0.033 A 
ATOM      7  C   LIG A   1      -8.440   1.696 129.270  0.00  0.00    +0.045 C 
ATOM      8  C   LIG A   1      -8.321   2.532 127.969  0.00  0.00    +0.061 C 
ATOM      9  C   LIG A   1      -7.712   3.893 128.314  0.00  0.00    +0.191 C 
ATOM     10  C   LIG A   1      -8.814   3.839 130.619  0.00  0.00    +0.029 A 
ATOM     11  C   LIG A   1      -8.570   4.582 129.364  0.00  0.00    +0.192 C 
ATOM     12  O   LIG A   1      -9.031   5.708 129.171  0.00  0.00    -0.289 OA
ENDROOT
BRANCH   8  13
ATOM     13  C   LIG A   1      -7.542   1.740 126.862  0.00  0.00    +0.066 C 
ATOM     14  C   LIG A   1      -8.024   0.296 126.649  0.00  0.00    +0.041 C 
ATOM     15  C   LIG A   1      -6.038   1.677 127.177  0.00  0.00    +0.041 C 
BRANCH  13  16
ATOM     16  O   LIG A   1      -7.666   2.437 125.615  0.00  0.00    -0.389 OA
ATOM     17  H   LIG A   1      -8.308   1.959 125.062  0.00  0.00    +0.210 HD
ENDBRANCH  13  16
ENDBRANCH   8  13
BRANCH   9  18
ATOM     18  O   LIG A   1      -7.682   4.748 127.169  0.00  0.00    -0.384 OA
ATOM     19  H   LIG A   1      -7.502   4.172 126.394  0.00  0.00    +0.210 HD
ENDBRANCH   9  18
BRANCH   1  20
ATOM     20  C   LIG A   1      -9.037   6.031 131.943  0.00  0.00    +0.195 C 
BRANCH  20  22
ATOM     21  C   LIG A   1     -11.344   6.486 131.771  0.00  0.00    +0.194 C 
ATOM     22  O   LIG A   1     -10.208   6.501 132.623  0.00  0.00    -0.378 OA
ENDBRANCH  20  22
ENDBRANCH   1  20
TORSDOF 5
ENDMDL
MODEL 9
REMARK VINA RESULT:      -5.5      1.680      2.041
REMARK  Name = NuBBE_1896
REMARK  9 active torsions:
REMARK  status: ('A' for Active; 'I' for Inactive)
REMARK    1  A    between atoms: C_1  and  O_2
REMARK    2  A    between atoms: O_2  and  C_3
REMARK    3  A    between atoms: C_3  and  C_4
REMARK    4  A    between atoms: C_7  and  C_8
REMARK    5  A    between atoms: C_11  and  C_13
REMARK    6  A    between atoms: C_13  and  C_14
REMARK    7  A    between atoms: C_13  and  O_15
REMARK    8  A    between atoms: C_13  and  C_16
REMARK    9  A    between atoms: C_17  and  O_19
REMARK                            x       y       z     vdW  Elec       q    Type
REMARK                         _______ _______ _______ _____ _____    ______ ____
ROOT
ATOM      1  C   LIG A   1      -6.605   3.024 123.101  0.00  0.00    -0.011 A 
ATOM      2  C   LIG A   1      -5.878   4.160 123.482  0.00  0.00    +0.007 A 
ATOM      3  C   LIG A   1      -5.209   4.210 124.704  0.00  0.00    +0.004 A 
ATOM      4  C   LIG A   1      -5.249   3.125 125.587  0.00  0.00    -0.047 A 
ATOM      5  C   LIG A   1      -4.472   3.219 126.875  0.00  0.00    +0.044 C 
ATOM      6  C   LIG A   1      -6.015   1.983 125.256  0.00  0.00    -0.033 A 
ATOM      7  C   LIG A   1      -6.042   0.801 126.208  0.00  0.00    +0.045 C 
ATOM      8  C   LIG A   1      -7.008  -0.368 125.884  0.00  0.00    +0.061 C 
ATOM      9  C   LIG A   1      -7.067  -0.550 124.366  0.00  0.00    +0.191 C 
ATOM     10  C   LIG A   1      -6.695   1.954 124.019  0.00  0.00    +0.029 A 
ATOM     11  C   LIG A   1      -7.503   0.754 123.715  0.00  0.00    +0.192 C 
ATOM     12  O   LIG A   1      -8.481   0.796 122.967  0.00  0.00    -0.289 OA
ENDROOT
BRANCH   8  13
ATOM     13  C   LIG A   1      -6.607  -1.664 126.673  0.00  0.00    +0.066 C 
ATOM     14  C   LIG A   1      -7.770  -2.357 127.400  0.00  0.00    +0.041 C 
ATOM     15  C   LIG A   1      -5.527  -1.362 127.726  0.00  0.00    +0.041 C 
BRANCH  13  16
ATOM     16  O   LIG A   1      -6.029  -2.606 125.759  0.00  0.00    -0.389 OA
ATOM     17  H   LIG A   1      -5.144  -2.843 126.087  0.00  0.00    +0.210 HD
ENDBRANCH  13  16
ENDBRANCH   8  13
BRANCH   9  18
ATOM     18  O   LIG A   1      -8.030  -1.543 124.004  0.00  0.00    -0.384 OA
ATOM     19  H   LIG A   1      -7.525  -2.305 123.646  0.00  0.00    +0.210 HD
ENDBRANCH   9  18
BRANCH   1  20
ATOM     20  C   LIG A   1      -7.275   2.994 121.741  0.00  0.00    +0.195 C 
BRANCH  20  22
ATOM     21  C   LIG A   1      -9.063   3.855 120.467  0.00  0.00    +0.194 C 
ATOM     22  O   LIG A   1      -8.486   3.760 121.762  0.00  0.00    -0.378 OA
ENDBRANCH  20  22
ENDBRANCH   1  20
TORSDOF 5
ENDMDL
