MODEL 1
REMARK VINA RESULT:     -11.0      0.000      0.000
REMARK  Name = NuBBE_1348
REMARK  12 active torsions:
REMARK  status: ('A' for Active; 'I' for Inactive)
REMARK    1  A    between atoms: C_1  and  C_2
REMARK    2  A    between atoms: C_2  and  C_41
REMARK    3  A    between atoms: C_3  and  O_4
REMARK    4  A    between atoms: O_4  and  C_5
REMARK    5  A    between atoms: C_5  and  C_6
REMARK    6  A    between atoms: C_6  and  C_7
REMARK    7  A    between atoms: C_16  and  C_39
REMARK    8  A    between atoms: C_20  and  C_38
REMARK    9  A    between atoms: C_25  and  C_37
REMARK   10  A    between atoms: C_28  and  C_36
REMARK   11  A    between atoms: C_31  and  C_32
REMARK   12  A    between atoms: C_31  and  C_35
REMARK                            x       y       z     vdW  Elec       q    Type
REMARK                         _______ _______ _______ _____ _____    ______ ____
ROOT
ATOM      1  C   LIG A   1      -6.270   6.312 131.860  0.00  0.00    +0.015 C 
ATOM      2  C   LIG A   1      -7.051   5.194 132.596  0.00  0.00    +0.005 C 
ATOM      3  C   LIG A   1      -8.564   5.601 132.646  0.00  0.00    +0.182 C 
ATOM      4  C   LIG A   1      -9.303   4.566 133.520  0.00  0.00    +0.046 C 
ATOM      5  C   LIG A   1      -9.182   3.106 133.065  0.00  0.00    +0.011 C 
ATOM      6  C   LIG A   1      -7.849   2.632 132.382  0.00  0.00    -0.025 C 
ATOM      7  C   LIG A   1      -7.015   3.830 131.815  0.00  0.00    +0.004 C 
ATOM      8  C   LIG A   1      -5.652   3.308 131.418  0.00  0.00    +0.005 C 
ATOM      9  C   LIG A   1      -5.781   2.327 130.248  0.00  0.00    +0.008 C 
ATOM     10  C   LIG A   1      -7.088   1.456 130.007  0.00  0.00    -0.019 C 
ATOM     11  C   LIG A   1      -8.222   1.711 131.115  0.00  0.00    +0.006 C 
ATOM     12  C   LIG A   1      -8.984   0.430 131.505  0.00  0.00    +0.031 C 
ATOM     13  C   LIG A   1      -8.098  -0.757 131.685  0.00  0.00    -0.026 C 
ATOM     14  C   LIG A   1      -7.028  -1.007 130.908  0.00  0.00    -0.063 C 
ATOM     15  C   LIG A   1      -6.813  -0.128 129.677  0.00  0.00    -0.005 C 
ATOM     16  C   LIG A   1      -5.408  -0.375 129.041  0.00  0.00    +0.012 C 
ATOM     17  C   LIG A   1      -4.314  -0.666 130.061  0.00  0.00    +0.008 C 
ATOM     18  C   LIG A   1      -4.615  -1.907 130.927  0.00  0.00    -0.025 C 
ATOM     19  C   LIG A   1      -6.139  -2.248 130.978  0.00  0.00    +0.022 C 
ATOM     20  C   LIG A   1      -6.473  -3.284 132.075  0.00  0.00    +0.014 C 
ATOM     21  C   LIG A   1      -5.838  -3.065 133.468  0.00  0.00    -0.034 C 
ATOM     22  C   LIG A   1      -6.544  -1.971 134.288  0.00  0.00    +0.011 C 
ATOM     23  C   LIG A   1      -4.341  -2.729 133.338  0.00  0.00    +0.007 C 
ATOM     24  C   LIG A   1      -4.069  -1.611 132.342  0.00  0.00    +0.008 C 
ATOM     25  C   LIG A   1      -5.986  -4.379 134.257  0.00  0.00    +0.011 C 
ATOM     26  C   LIG A   1      -3.844  -3.080 130.281  0.00  0.00    +0.012 C 
ATOM     27  C   LIG A   1      -7.820  -0.728 128.615  0.00  0.00    +0.016 C 
ATOM     28  C   LIG A   1      -7.662   2.017 128.660  0.00  0.00    +0.012 C 
ATOM     29  C   LIG A   1      -7.052   1.792 133.422  0.00  0.00    +0.012 C 
ATOM     30  C   LIG A   1      -6.374   5.157 133.984  0.00  0.00    +0.015 C 
ENDROOT
BRANCH   3  31
ATOM     31  O   LIG A   1      -9.138   5.556 131.266  0.00  0.00    -0.461 OA
BRANCH  31  32
ATOM     32  C   LIG A   1      -9.696   6.702 130.732  0.00  0.00    +0.312 C 
ATOM     33  O   LIG A   1      -9.185   7.438 129.936  0.00  0.00    -0.251 OA
BRANCH  32  34
ATOM     34  C   LIG A   1     -11.190   6.768 131.129  0.00  0.00    +0.155 C 
BRANCH  34  35
ATOM     35  C   LIG A   1     -12.156   7.276 130.090  0.00  0.00    -0.037 A 
ATOM     36  C   LIG A   1     -12.668   6.374 129.149  0.00  0.00    +0.004 A 
ATOM     37  C   LIG A   1     -13.433   6.817 128.068  0.00  0.00    +0.000 A 
ATOM     38  C   LIG A   1     -13.637   8.179 127.871  0.00  0.00    +0.000 A 
ATOM     39  C   LIG A   1     -13.151   9.092 128.805  0.00  0.00    +0.000 A 
ATOM     40  C   LIG A   1     -12.453   8.643 129.936  0.00  0.00    +0.004 A 
ENDBRANCH  34  35
ENDBRANCH  32  34
ENDBRANCH  31  32
ENDBRANCH   3  31
TORSDOF 4
ENDMDL
MODEL 2
REMARK VINA RESULT:     -10.4      3.648      8.544
REMARK  Name = NuBBE_1348
REMARK  12 active torsions:
REMARK  status: ('A' for Active; 'I' for Inactive)
REMARK    1  A    between atoms: C_1  and  C_2
REMARK    2  A    between atoms: C_2  and  C_41
REMARK    3  A    between atoms: C_3  and  O_4
REMARK    4  A    between atoms: O_4  and  C_5
REMARK    5  A    between atoms: C_5  and  C_6
REMARK    6  A    between atoms: C_6  and  C_7
REMARK    7  A    between atoms: C_16  and  C_39
REMARK    8  A    between atoms: C_20  and  C_38
REMARK    9  A    between atoms: C_25  and  C_37
REMARK   10  A    between atoms: C_28  and  C_36
REMARK   11  A    between atoms: C_31  and  C_32
REMARK   12  A    between atoms: C_31  and  C_35
REMARK                            x       y       z     vdW  Elec       q    Type
REMARK                         _______ _______ _______ _____ _____    ______ ____
ROOT
ATOM      1  C   LIG A   1      -5.830  -1.879 135.493  0.00  0.00    +0.015 C 
ATOM      2  C   LIG A   1      -4.822  -1.372 134.431  0.00  0.00    +0.005 C 
ATOM      3  C   LIG A   1      -4.359  -2.595 133.566  0.00  0.00    +0.182 C 
ATOM      4  C   LIG A   1      -3.238  -2.111 132.624  0.00  0.00    +0.046 C 
ATOM      5  C   LIG A   1      -3.606  -0.942 131.700  0.00  0.00    +0.011 C 
ATOM      6  C   LIG A   1      -4.614   0.146 132.217  0.00  0.00    -0.025 C 
ATOM      7  C   LIG A   1      -5.482  -0.371 133.414  0.00  0.00    +0.004 C 
ATOM      8  C   LIG A   1      -6.223   0.808 134.002  0.00  0.00    +0.005 C 
ATOM      9  C   LIG A   1      -7.233   1.358 132.989  0.00  0.00    +0.008 C 
ATOM     10  C   LIG A   1      -7.019   1.230 131.420  0.00  0.00    -0.019 C 
ATOM     11  C   LIG A   1      -5.649   0.490 131.033  0.00  0.00    +0.006 C 
ATOM     12  C   LIG A   1      -4.965   1.093 129.791  0.00  0.00    +0.031 C 
ATOM     13  C   LIG A   1      -4.970   2.585 129.776  0.00  0.00    -0.026 C 
ATOM     14  C   LIG A   1      -6.007   3.326 130.209  0.00  0.00    -0.063 C 
ATOM     15  C   LIG A   1      -7.305   2.605 130.569  0.00  0.00    -0.005 C 
ATOM     16  C   LIG A   1      -8.305   3.563 131.291  0.00  0.00    +0.012 C 
ATOM     17  C   LIG A   1      -7.633   4.578 132.206  0.00  0.00    +0.008 C 
ATOM     18  C   LIG A   1      -6.633   5.487 131.462  0.00  0.00    -0.025 C 
ATOM     19  C   LIG A   1      -6.114   4.849 130.133  0.00  0.00    +0.022 C 
ATOM     20  C   LIG A   1      -4.899   5.606 129.553  0.00  0.00    +0.014 C 
ATOM     21  C   LIG A   1      -3.770   5.990 130.539  0.00  0.00    -0.034 C 
ATOM     22  C   LIG A   1      -2.858   4.805 130.904  0.00  0.00    +0.011 C 
ATOM     23  C   LIG A   1      -4.356   6.606 131.822  0.00  0.00    +0.007 C 
ATOM     24  C   LIG A   1      -5.463   5.761 132.435  0.00  0.00    +0.008 C 
ATOM     25  C   LIG A   1      -2.884   7.039 129.843  0.00  0.00    +0.011 C 
ATOM     26  C   LIG A   1      -7.393   6.795 131.144  0.00  0.00    +0.012 C 
ATOM     27  C   LIG A   1      -7.982   2.341 129.163  0.00  0.00    +0.016 C 
ATOM     28  C   LIG A   1      -8.176   0.272 130.966  0.00  0.00    +0.012 C 
ATOM     29  C   LIG A   1      -3.797   1.419 132.582  0.00  0.00    +0.012 C 
ATOM     30  C   LIG A   1      -3.693  -0.761 135.291  0.00  0.00    +0.015 C 
ENDROOT
BRANCH   3  31
ATOM     31  O   LIG A   1      -5.504  -3.078 132.735  0.00  0.00    -0.461 OA
BRANCH  31  32
ATOM     32  C   LIG A   1      -5.661  -4.436 132.531  0.00  0.00    +0.312 C 
ATOM     33  O   LIG A   1      -6.006  -5.243 133.346  0.00  0.00    -0.251 OA
BRANCH  32  34
ATOM     34  C   LIG A   1      -5.561  -4.733 131.016  0.00  0.00    +0.155 C 
BRANCH  34  35
ATOM     35  C   LIG A   1      -6.024  -3.653 130.072  0.00  0.00    -0.037 A 
ATOM     36  C   LIG A   1      -7.400  -3.443 129.914  0.00  0.00    +0.004 A 
ATOM     37  C   LIG A   1      -7.888  -2.575 128.936  0.00  0.00    +0.000 A 
ATOM     38  C   LIG A   1      -7.010  -1.957 128.051  0.00  0.00    +0.000 A 
ATOM     39  C   LIG A   1      -5.637  -2.138 128.203  0.00  0.00    +0.000 A 
ATOM     40  C   LIG A   1      -5.140  -2.945 129.237  0.00  0.00    +0.004 A 
ENDBRANCH  34  35
ENDBRANCH  32  34
ENDBRANCH  31  32
ENDBRANCH   3  31
TORSDOF 4
ENDMDL
MODEL 3
REMARK VINA RESULT:     -10.3      3.539      8.446
REMARK  Name = NuBBE_1348
REMARK  12 active torsions:
REMARK  status: ('A' for Active; 'I' for Inactive)
REMARK    1  A    between atoms: C_1  and  C_2
REMARK    2  A    between atoms: C_2  and  C_41
REMARK    3  A    between atoms: C_3  and  O_4
REMARK    4  A    between atoms: O_4  and  C_5
REMARK    5  A    between atoms: C_5  and  C_6
REMARK    6  A    between atoms: C_6  and  C_7
REMARK    7  A    between atoms: C_16  and  C_39
REMARK    8  A    between atoms: C_20  and  C_38
REMARK    9  A    between atoms: C_25  and  C_37
REMARK   10  A    between atoms: C_28  and  C_36
REMARK   11  A    between atoms: C_31  and  C_32
REMARK   12  A    between atoms: C_31  and  C_35
REMARK                            x       y       z     vdW  Elec       q    Type
REMARK                         _______ _______ _______ _____ _____    ______ ____
ROOT
ATOM      1  C   LIG A   1      -8.567  -3.268 129.237  0.00  0.00    +0.015 C 
ATOM      2  C   LIG A   1      -7.277  -2.420 129.098  0.00  0.00    +0.005 C 
ATOM      3  C   LIG A   1      -6.892  -2.354 127.580  0.00  0.00    +0.182 C 
ATOM      4  C   LIG A   1      -5.524  -1.650 127.469  0.00  0.00    +0.046 C 
ATOM      5  C   LIG A   1      -5.451  -0.243 128.077  0.00  0.00    +0.011 C 
ATOM      6  C   LIG A   1      -6.312   0.080 129.350  0.00  0.00    -0.025 C 
ATOM      7  C   LIG A   1      -7.497  -0.926 129.535  0.00  0.00    +0.004 C 
ATOM      8  C   LIG A   1      -8.099  -0.698 130.903  0.00  0.00    +0.005 C 
ATOM      9  C   LIG A   1      -8.744   0.691 130.974  0.00  0.00    +0.008 C 
ATOM     10  C   LIG A   1      -8.232   1.912 130.095  0.00  0.00    -0.019 C 
ATOM     11  C   LIG A   1      -6.984   1.530 129.161  0.00  0.00    +0.006 C 
ATOM     12  C   LIG A   1      -5.947   2.664 129.044  0.00  0.00    +0.031 C 
ATOM     13  C   LIG A   1      -5.656   3.339 130.343  0.00  0.00    -0.026 C 
ATOM     14  C   LIG A   1      -6.594   3.588 131.274  0.00  0.00    -0.063 C 
ATOM     15  C   LIG A   1      -8.055   3.324 130.912  0.00  0.00    -0.005 C 
ATOM     16  C   LIG A   1      -8.977   3.413 132.170  0.00  0.00    +0.012 C 
ATOM     17  C   LIG A   1      -8.327   2.895 133.446  0.00  0.00    +0.008 C 
ATOM     18  C   LIG A   1      -7.033   3.652 133.811  0.00  0.00    -0.025 C 
ATOM     19  C   LIG A   1      -6.382   4.356 132.578  0.00  0.00    +0.022 C 
ATOM     20  C   LIG A   1      -4.946   4.846 132.873  0.00  0.00    +0.014 C 
ATOM     21  C   LIG A   1      -3.999   3.861 133.598  0.00  0.00    -0.034 C 
ATOM     22  C   LIG A   1      -3.436   2.771 132.669  0.00  0.00    +0.011 C 
ATOM     23  C   LIG A   1      -4.710   3.204 134.794  0.00  0.00    +0.007 C 
ATOM     24  C   LIG A   1      -6.066   2.617 134.429  0.00  0.00    +0.008 C 
ATOM     25  C   LIG A   1      -2.797   4.670 134.116  0.00  0.00    +0.011 C 
ATOM     26  C   LIG A   1      -7.437   4.714 134.860  0.00  0.00    +0.012 C 
ATOM     27  C   LIG A   1      -8.457   4.594 130.058  0.00  0.00    +0.016 C 
ATOM     28  C   LIG A   1      -9.432   2.197 129.126  0.00  0.00    +0.012 C 
ATOM     29  C   LIG A   1      -5.356   0.105 130.579  0.00  0.00    +0.012 C 
ATOM     30  C   LIG A   1      -6.259  -3.198 129.961  0.00  0.00    +0.015 C 
ENDROOT
BRANCH   3  31
ATOM     31  O   LIG A   1      -7.907  -1.540 126.844  0.00  0.00    -0.461 OA
BRANCH  31  32
ATOM     32  C   LIG A   1      -8.832  -2.182 126.043  0.00  0.00    +0.312 C 
ATOM     33  O   LIG A   1      -9.913  -1.769 125.730  0.00  0.00    -0.251 OA
BRANCH  32  34
ATOM     34  C   LIG A   1      -8.167  -3.422 125.399  0.00  0.00    +0.155 C 
BRANCH  34  35
ATOM     35  C   LIG A   1      -7.164  -3.172 124.302  0.00  0.00    -0.037 A 
ATOM     36  C   LIG A   1      -5.914  -3.800 124.379  0.00  0.00    +0.004 A 
ATOM     37  C   LIG A   1      -4.892  -3.479 123.484  0.00  0.00    +0.000 A 
ATOM     38  C   LIG A   1      -5.079  -2.472 122.543  0.00  0.00    +0.000 A 
ATOM     39  C   LIG A   1      -6.321  -1.848 122.439  0.00  0.00    +0.000 A 
ATOM     40  C   LIG A   1      -7.376  -2.227 123.282  0.00  0.00    +0.004 A 
ENDBRANCH  34  35
ENDBRANCH  32  34
ENDBRANCH  31  32
ENDBRANCH   3  31
TORSDOF 4
ENDMDL
MODEL 4
REMARK VINA RESULT:     -10.2      2.597      5.582
REMARK  Name = NuBBE_1348
REMARK  12 active torsions:
REMARK  status: ('A' for Active; 'I' for Inactive)
REMARK    1  A    between atoms: C_1  and  C_2
REMARK    2  A    between atoms: C_2  and  C_41
REMARK    3  A    between atoms: C_3  and  O_4
REMARK    4  A    between atoms: O_4  and  C_5
REMARK    5  A    between atoms: C_5  and  C_6
REMARK    6  A    between atoms: C_6  and  C_7
REMARK    7  A    between atoms: C_16  and  C_39
REMARK    8  A    between atoms: C_20  and  C_38
REMARK    9  A    between atoms: C_25  and  C_37
REMARK   10  A    between atoms: C_28  and  C_36
REMARK   11  A    between atoms: C_31  and  C_32
REMARK   12  A    between atoms: C_31  and  C_35
REMARK                            x       y       z     vdW  Elec       q    Type
REMARK                         _______ _______ _______ _____ _____    ______ ____
ROOT
ATOM      1  C   LIG A   1      -9.508   4.458 132.981  0.00  0.00    +0.015 C 
ATOM      2  C   LIG A   1      -9.222   4.232 131.475  0.00  0.00    +0.005 C 
ATOM      3  C   LIG A   1      -8.544   5.524 130.902  0.00  0.00    +0.182 C 
ATOM      4  C   LIG A   1      -8.413   5.352 129.375  0.00  0.00    +0.046 C 
ATOM      5  C   LIG A   1      -7.630   4.117 128.911  0.00  0.00    +0.011 C 
ATOM      6  C   LIG A   1      -7.710   2.802 129.767  0.00  0.00    -0.025 C 
ATOM      7  C   LIG A   1      -8.181   3.078 131.234  0.00  0.00    +0.004 C 
ATOM      8  C   LIG A   1      -8.475   1.748 131.892  0.00  0.00    +0.005 C 
ATOM      9  C   LIG A   1      -7.185   0.933 132.037  0.00  0.00    +0.008 C 
ATOM     10  C   LIG A   1      -5.959   1.096 131.039  0.00  0.00    -0.019 C 
ATOM     11  C   LIG A   1      -6.231   2.177 129.884  0.00  0.00    +0.006 C 
ATOM     12  C   LIG A   1      -5.640   1.768 128.521  0.00  0.00    +0.031 C 
ATOM     13  C   LIG A   1      -5.859   0.330 128.186  0.00  0.00    -0.026 C 
ATOM     14  C   LIG A   1      -5.799  -0.659 129.096  0.00  0.00    -0.063 C 
ATOM     15  C   LIG A   1      -5.312  -0.314 130.502  0.00  0.00    -0.005 C 
ATOM     16  C   LIG A   1      -5.548  -1.500 131.491  0.00  0.00    +0.012 C 
ATOM     17  C   LIG A   1      -6.826  -2.284 131.219  0.00  0.00    +0.008 C 
ATOM     18  C   LIG A   1      -6.864  -2.895 129.803  0.00  0.00    -0.025 C 
ATOM     19  C   LIG A   1      -5.919  -2.155 128.803  0.00  0.00    +0.022 C 
ATOM     20  C   LIG A   1      -6.183  -2.559 127.335  0.00  0.00    +0.014 C 
ATOM     21  C   LIG A   1      -7.659  -2.612 126.873  0.00  0.00    -0.034 C 
ATOM     22  C   LIG A   1      -8.253  -1.219 126.596  0.00  0.00    +0.011 C 
ATOM     23  C   LIG A   1      -8.528  -3.348 127.907  0.00  0.00    +0.007 C 
ATOM     24  C   LIG A   1      -8.333  -2.829 129.324  0.00  0.00    +0.008 C 
ATOM     25  C   LIG A   1      -7.701  -3.387 125.544  0.00  0.00    +0.011 C 
ATOM     26  C   LIG A   1      -6.408  -4.364 129.955  0.00  0.00    +0.012 C 
ATOM     27  C   LIG A   1      -3.739  -0.260 130.345  0.00  0.00    +0.016 C 
ATOM     28  C   LIG A   1      -4.826   1.698 131.941  0.00  0.00    +0.012 C 
ATOM     29  C   LIG A   1      -8.641   1.803 129.021  0.00  0.00    +0.012 C 
ATOM     30  C   LIG A   1     -10.627   3.960 130.893  0.00  0.00    +0.015 C 
ENDROOT
BRANCH   3  31
ATOM     31  O   LIG A   1      -7.175   5.668 131.485  0.00  0.00    -0.461 OA
BRANCH  31  32
ATOM     32  C   LIG A   1      -6.347   6.671 131.017  0.00  0.00    +0.312 C 
ATOM     33  O   LIG A   1      -6.692   7.721 130.554  0.00  0.00    -0.251 OA
BRANCH  32  34
ATOM     34  C   LIG A   1      -4.886   6.340 131.404  0.00  0.00    +0.155 C 
BRANCH  34  35
ATOM     35  C   LIG A   1      -3.951   5.950 130.288  0.00  0.00    -0.037 A 
ATOM     36  C   LIG A   1      -3.494   6.945 129.415  0.00  0.00    +0.004 A 
ATOM     37  C   LIG A   1      -2.763   6.619 128.271  0.00  0.00    +0.000 A 
ATOM     38  C   LIG A   1      -2.537   5.285 127.944  0.00  0.00    +0.000 A 
ATOM     39  C   LIG A   1      -2.967   4.282 128.810  0.00  0.00    +0.000 A 
ATOM     40  C   LIG A   1      -3.630   4.610 130.001  0.00  0.00    +0.004 A 
ENDBRANCH  34  35
ENDBRANCH  32  34
ENDBRANCH  31  32
ENDBRANCH   3  31
TORSDOF 4
ENDMDL
MODEL 5
REMARK VINA RESULT:     -10.2      3.773      5.471
REMARK  Name = NuBBE_1348
REMARK  12 active torsions:
REMARK  status: ('A' for Active; 'I' for Inactive)
REMARK    1  A    between atoms: C_1  and  C_2
REMARK    2  A    between atoms: C_2  and  C_41
REMARK    3  A    between atoms: C_3  and  O_4
REMARK    4  A    between atoms: O_4  and  C_5
REMARK    5  A    between atoms: C_5  and  C_6
REMARK    6  A    between atoms: C_6  and  C_7
REMARK    7  A    between atoms: C_16  and  C_39
REMARK    8  A    between atoms: C_20  and  C_38
REMARK    9  A    between atoms: C_25  and  C_37
REMARK   10  A    between atoms: C_28  and  C_36
REMARK   11  A    between atoms: C_31  and  C_32
REMARK   12  A    between atoms: C_31  and  C_35
REMARK                            x       y       z     vdW  Elec       q    Type
REMARK                         _______ _______ _______ _____ _____    ______ ____
ROOT
ATOM      1  C   LIG A   1      -4.598   2.681 126.165  0.00  0.00    +0.015 C 
ATOM      2  C   LIG A   1      -5.389   2.816 127.490  0.00  0.00    +0.005 C 
ATOM      3  C   LIG A   1      -6.684   3.653 127.209  0.00  0.00    +0.182 C 
ATOM      4  C   LIG A   1      -7.378   3.921 128.560  0.00  0.00    +0.046 C 
ATOM      5  C   LIG A   1      -7.743   2.674 129.377  0.00  0.00    +0.011 C 
ATOM      6  C   LIG A   1      -6.808   1.415 129.298  0.00  0.00    -0.025 C 
ATOM      7  C   LIG A   1      -5.901   1.428 128.022  0.00  0.00    +0.004 C 
ATOM      8  C   LIG A   1      -4.870   0.331 128.166  0.00  0.00    +0.005 C 
ATOM      9  C   LIG A   1      -5.552  -1.041 128.152  0.00  0.00    +0.008 C 
ATOM     10  C   LIG A   1      -7.044  -1.255 128.655  0.00  0.00    -0.019 C 
ATOM     11  C   LIG A   1      -7.729   0.099 129.176  0.00  0.00    +0.006 C 
ATOM     12  C   LIG A   1      -8.638  -0.115 130.401  0.00  0.00    +0.031 C 
ATOM     13  C   LIG A   1      -8.050  -1.030 131.424  0.00  0.00    -0.026 C 
ATOM     14  C   LIG A   1      -7.331  -2.124 131.113  0.00  0.00    -0.063 C 
ATOM     15  C   LIG A   1      -7.262  -2.545 129.647  0.00  0.00    -0.005 C 
ATOM     16  C   LIG A   1      -6.191  -3.661 129.427  0.00  0.00    +0.012 C 
ATOM     17  C   LIG A   1      -4.961  -3.517 130.313  0.00  0.00    +0.008 C 
ATOM     18  C   LIG A   1      -5.300  -3.540 131.818  0.00  0.00    -0.025 C 
ATOM     19  C   LIG A   1      -6.785  -3.149 132.106  0.00  0.00    +0.022 C 
ATOM     20  C   LIG A   1      -7.040  -2.874 133.605  0.00  0.00    +0.014 C 
ATOM     21  C   LIG A   1      -6.009  -1.988 134.345  0.00  0.00    -0.034 C 
ATOM     22  C   LIG A   1      -6.175  -0.489 134.042  0.00  0.00    +0.011 C 
ATOM     23  C   LIG A   1      -4.573  -2.428 134.009  0.00  0.00    +0.007 C 
ATOM     24  C   LIG A   1      -4.327  -2.560 132.514  0.00  0.00    +0.008 C 
ATOM     25  C   LIG A   1      -6.245  -2.167 135.856  0.00  0.00    +0.011 C 
ATOM     26  C   LIG A   1      -5.045  -4.989 132.295  0.00  0.00    +0.012 C 
ATOM     27  C   LIG A   1      -8.638  -3.289 129.411  0.00  0.00    +0.016 C 
ATOM     28  C   LIG A   1      -7.817  -1.661 127.351  0.00  0.00    +0.012 C 
ATOM     29  C   LIG A   1      -5.981   1.352 130.615  0.00  0.00    +0.012 C 
ATOM     30  C   LIG A   1      -4.383   3.528 128.422  0.00  0.00    +0.015 C 
ENDROOT
BRANCH   3  31
ATOM     31  O   LIG A   1      -7.612   2.860 126.346  0.00  0.00    -0.461 OA
BRANCH  31  32
ATOM     32  C   LIG A   1      -8.339   3.509 125.366  0.00  0.00    +0.312 C 
ATOM     33  O   LIG A   1      -8.606   4.676 125.332  0.00  0.00    -0.251 OA
BRANCH  32  34
ATOM     34  C   LIG A   1      -8.557   2.543 124.177  0.00  0.00    +0.155 C 
BRANCH  34  35
ATOM     35  C   LIG A   1      -7.901   2.904 122.869  0.00  0.00    -0.037 A 
ATOM     36  C   LIG A   1      -6.506   3.021 122.826  0.00  0.00    +0.004 A 
ATOM     37  C   LIG A   1      -5.860   3.512 121.690  0.00  0.00    +0.000 A 
ATOM     38  C   LIG A   1      -6.604   3.962 120.603  0.00  0.00    +0.000 A 
ATOM     39  C   LIG A   1      -7.991   3.838 120.620  0.00  0.00    +0.000 A 
ATOM     40  C   LIG A   1      -8.638   3.268 121.727  0.00  0.00    +0.004 A 
ENDBRANCH  34  35
ENDBRANCH  32  34
ENDBRANCH  31  32
ENDBRANCH   3  31
TORSDOF 4
ENDMDL
MODEL 6
REMARK VINA RESULT:     -10.1      3.219      6.599
REMARK  Name = NuBBE_1348
REMARK  12 active torsions:
REMARK  status: ('A' for Active; 'I' for Inactive)
REMARK    1  A    between atoms: C_1  and  C_2
REMARK    2  A    between atoms: C_2  and  C_41
REMARK    3  A    between atoms: C_3  and  O_4
REMARK    4  A    between atoms: O_4  and  C_5
REMARK    5  A    between atoms: C_5  and  C_6
REMARK    6  A    between atoms: C_6  and  C_7
REMARK    7  A    between atoms: C_16  and  C_39
REMARK    8  A    between atoms: C_20  and  C_38
REMARK    9  A    between atoms: C_25  and  C_37
REMARK   10  A    between atoms: C_28  and  C_36
REMARK   11  A    between atoms: C_31  and  C_32
REMARK   12  A    between atoms: C_31  and  C_35
REMARK                            x       y       z     vdW  Elec       q    Type
REMARK                         _______ _______ _______ _____ _____    ______ ____
ROOT
ATOM      1  C   LIG A   1      -4.528  -1.832 132.681  0.00  0.00    +0.015 C 
ATOM      2  C   LIG A   1      -5.959  -1.820 132.088  0.00  0.00    +0.005 C 
ATOM      3  C   LIG A   1      -6.848  -0.869 132.963  0.00  0.00    +0.182 C 
ATOM      4  C   LIG A   1      -8.303  -0.991 132.465  0.00  0.00    +0.046 C 
ATOM      5  C   LIG A   1      -8.524  -0.673 130.980  0.00  0.00    +0.011 C 
ATOM      6  C   LIG A   1      -7.392  -1.028 129.951  0.00  0.00    -0.025 C 
ATOM      7  C   LIG A   1      -5.998  -1.206 130.641  0.00  0.00    +0.004 C 
ATOM      8  C   LIG A   1      -5.042  -1.792 129.627  0.00  0.00    +0.005 C 
ATOM      9  C   LIG A   1      -4.796  -0.793 128.491  0.00  0.00    +0.008 C 
ATOM     10  C   LIG A   1      -5.878   0.288 128.060  0.00  0.00    -0.019 C 
ATOM     11  C   LIG A   1      -7.227   0.202 128.925  0.00  0.00    +0.006 C 
ATOM     12  C   LIG A   1      -8.497   0.467 128.094  0.00  0.00    +0.031 C 
ATOM     13  C   LIG A   1      -8.487  -0.207 126.763  0.00  0.00    -0.026 C 
ATOM     14  C   LIG A   1      -7.384  -0.326 126.002  0.00  0.00    -0.063 C 
ATOM     15  C   LIG A   1      -6.123   0.416 126.442  0.00  0.00    -0.005 C 
ATOM     16  C   LIG A   1      -4.880  -0.032 125.608  0.00  0.00    +0.012 C 
ATOM     17  C   LIG A   1      -4.891  -1.507 125.231  0.00  0.00    +0.008 C 
ATOM     18  C   LIG A   1      -6.129  -1.905 124.400  0.00  0.00    -0.025 C 
ATOM     19  C   LIG A   1      -7.325  -0.918 124.594  0.00  0.00    +0.022 C 
ATOM     20  C   LIG A   1      -8.646  -1.475 124.016  0.00  0.00    +0.014 C 
ATOM     21  C   LIG A   1      -8.994  -2.947 124.344  0.00  0.00    -0.034 C 
ATOM     22  C   LIG A   1      -9.539  -3.134 125.770  0.00  0.00    +0.011 C 
ATOM     23  C   LIG A   1      -7.769  -3.856 124.135  0.00  0.00    +0.007 C 
ATOM     24  C   LIG A   1      -6.520  -3.337 124.832  0.00  0.00    +0.008 C 
ATOM     25  C   LIG A   1     -10.109  -3.385 123.378  0.00  0.00    +0.011 C 
ATOM     26  C   LIG A   1      -5.679  -1.887 122.921  0.00  0.00    +0.012 C 
ATOM     27  C   LIG A   1      -6.384   1.902 125.965  0.00  0.00    +0.016 C 
ATOM     28  C   LIG A   1      -5.204   1.654 128.437  0.00  0.00    +0.012 C 
ATOM     29  C   LIG A   1      -7.836  -2.300 129.171  0.00  0.00    +0.012 C 
ATOM     30  C   LIG A   1      -6.379  -3.304 132.166  0.00  0.00    +0.015 C 
ENDROOT
BRANCH   3  31
ATOM     31  O   LIG A   1      -6.397   0.544 132.778  0.00  0.00    -0.461 OA
BRANCH  31  32
ATOM     32  C   LIG A   1      -6.333   1.379 133.877  0.00  0.00    +0.312 C 
ATOM     33  O   LIG A   1      -5.722   1.179 134.888  0.00  0.00    -0.251 OA
BRANCH  32  34
ATOM     34  C   LIG A   1      -6.975   2.740 133.515  0.00  0.00    +0.155 C 
BRANCH  34  35
ATOM     35  C   LIG A   1      -7.948   2.756 132.364  0.00  0.00    -0.037 A 
ATOM     36  C   LIG A   1      -7.515   3.245 131.125  0.00  0.00    +0.004 A 
ATOM     37  C   LIG A   1      -8.413   3.437 130.074  0.00  0.00    +0.000 A 
ATOM     38  C   LIG A   1      -9.773   3.211 130.268  0.00  0.00    +0.000 A 
ATOM     39  C   LIG A   1     -10.221   2.708 131.487  0.00  0.00    +0.000 A 
ATOM     40  C   LIG A   1      -9.309   2.435 132.518  0.00  0.00    +0.004 A 
ENDBRANCH  34  35
ENDBRANCH  32  34
ENDBRANCH  31  32
ENDBRANCH   3  31
TORSDOF 4
ENDMDL
MODEL 7
REMARK VINA RESULT:     -10.0      3.750      8.275
REMARK  Name = NuBBE_1348
REMARK  12 active torsions:
REMARK  status: ('A' for Active; 'I' for Inactive)
REMARK    1  A    between atoms: C_1  and  C_2
REMARK    2  A    between atoms: C_2  and  C_41
REMARK    3  A    between atoms: C_3  and  O_4
REMARK    4  A    between atoms: O_4  and  C_5
REMARK    5  A    between atoms: C_5  and  C_6
REMARK    6  A    between atoms: C_6  and  C_7
REMARK    7  A    between atoms: C_16  and  C_39
REMARK    8  A    between atoms: C_20  and  C_38
REMARK    9  A    between atoms: C_25  and  C_37
REMARK   10  A    between atoms: C_28  and  C_36
REMARK   11  A    between atoms: C_31  and  C_32
REMARK   12  A    between atoms: C_31  and  C_35
REMARK                            x       y       z     vdW  Elec       q    Type
REMARK                         _______ _______ _______ _____ _____    ______ ____
ROOT
ATOM      1  C   LIG A   1      -6.070  -3.734 130.129  0.00  0.00    +0.015 C 
ATOM      2  C   LIG A   1      -5.590  -2.461 129.387  0.00  0.00    +0.005 C 
ATOM      3  C   LIG A   1      -6.205  -2.469 127.945  0.00  0.00    +0.182 C 
ATOM      4  C   LIG A   1      -5.593  -1.289 127.163  0.00  0.00    +0.046 C 
ATOM      5  C   LIG A   1      -5.788   0.096 127.793  0.00  0.00    +0.011 C 
ATOM      6  C   LIG A   1      -5.812   0.222 129.359  0.00  0.00    -0.025 C 
ATOM      7  C   LIG A   1      -6.126  -1.144 130.058  0.00  0.00    +0.004 C 
ATOM      8  C   LIG A   1      -5.874  -0.983 131.540  0.00  0.00    +0.005 C 
ATOM      9  C   LIG A   1      -6.874   0.009 132.143  0.00  0.00    +0.008 C 
ATOM     10  C   LIG A   1      -7.522   1.186 131.294  0.00  0.00    -0.019 C 
ATOM     11  C   LIG A   1      -7.006   1.219 129.774  0.00  0.00    +0.006 C 
ATOM     12  C   LIG A   1      -6.813   2.648 129.231  0.00  0.00    +0.031 C 
ATOM     13  C   LIG A   1      -6.155   3.569 130.204  0.00  0.00    -0.026 C 
ATOM     14  C   LIG A   1      -6.397   3.545 131.527  0.00  0.00    -0.063 C 
ATOM     15  C   LIG A   1      -7.527   2.651 132.034  0.00  0.00    -0.005 C 
ATOM     16  C   LIG A   1      -7.506   2.538 133.592  0.00  0.00    +0.012 C 
ATOM     17  C   LIG A   1      -6.104   2.532 134.189  0.00  0.00    +0.008 C 
ATOM     18  C   LIG A   1      -5.298   3.801 133.842  0.00  0.00    -0.025 C 
ATOM     19  C   LIG A   1      -5.830   4.518 132.560  0.00  0.00    +0.022 C 
ATOM     20  C   LIG A   1      -4.851   5.595 132.040  0.00  0.00    +0.014 C 
ATOM     21  C   LIG A   1      -3.355   5.209 131.961  0.00  0.00    -0.034 C 
ATOM     22  C   LIG A   1      -3.024   4.323 130.747  0.00  0.00    +0.011 C 
ATOM     23  C   LIG A   1      -2.906   4.504 133.253  0.00  0.00    +0.007 C 
ATOM     24  C   LIG A   1      -3.827   3.363 133.658  0.00  0.00    +0.008 C 
ATOM     25  C   LIG A   1      -2.549   6.510 131.797  0.00  0.00    +0.011 C 
ATOM     26  C   LIG A   1      -5.436   4.745 135.058  0.00  0.00    +0.012 C 
ATOM     27  C   LIG A   1      -8.830   3.498 131.734  0.00  0.00    +0.016 C 
ATOM     28  C   LIG A   1      -9.041   0.802 131.230  0.00  0.00    +0.012 C 
ATOM     29  C   LIG A   1      -4.449   0.822 129.811  0.00  0.00    +0.012 C 
ATOM     30  C   LIG A   1      -4.053  -2.610 129.405  0.00  0.00    +0.015 C 
ENDROOT
BRANCH   3  31
ATOM     31  O   LIG A   1      -7.683  -2.267 128.033  0.00  0.00    -0.461 OA
BRANCH  31  32
ATOM     32  C   LIG A   1      -8.526  -3.218 127.489  0.00  0.00    +0.312 C 
ATOM     33  O   LIG A   1      -8.851  -4.254 127.995  0.00  0.00    -0.251 OA
BRANCH  32  34
ATOM     34  C   LIG A   1      -9.191  -2.636 126.219  0.00  0.00    +0.155 C 
BRANCH  34  35
ATOM     35  C   LIG A   1      -8.287  -2.300 125.062  0.00  0.00    -0.037 A 
ATOM     36  C   LIG A   1      -7.404  -3.281 124.591  0.00  0.00    +0.004 A 
ATOM     37  C   LIG A   1      -6.433  -2.976 123.636  0.00  0.00    +0.000 A 
ATOM     38  C   LIG A   1      -6.282  -1.668 123.187  0.00  0.00    +0.000 A 
ATOM     39  C   LIG A   1      -7.161  -0.682 123.629  0.00  0.00    +0.000 A 
ATOM     40  C   LIG A   1      -8.191  -1.002 124.527  0.00  0.00    +0.004 A 
ENDBRANCH  34  35
ENDBRANCH  32  34
ENDBRANCH  31  32
ENDBRANCH   3  31
TORSDOF 4
ENDMDL
MODEL 8
REMARK VINA RESULT:     -10.0      2.977      4.798
REMARK  Name = NuBBE_1348
REMARK  12 active torsions:
REMARK  status: ('A' for Active; 'I' for Inactive)
REMARK    1  A    between atoms: C_1  and  C_2
REMARK    2  A    between atoms: C_2  and  C_41
REMARK    3  A    between atoms: C_3  and  O_4
REMARK    4  A    between atoms: O_4  and  C_5
REMARK    5  A    between atoms: C_5  and  C_6
REMARK    6  A    between atoms: C_6  and  C_7
REMARK    7  A    between atoms: C_16  and  C_39
REMARK    8  A    between atoms: C_20  and  C_38
REMARK    9  A    between atoms: C_25  and  C_37
REMARK   10  A    between atoms: C_28  and  C_36
REMARK   11  A    between atoms: C_31  and  C_32
REMARK   12  A    between atoms: C_31  and  C_35
REMARK                            x       y       z     vdW  Elec       q    Type
REMARK                         _______ _______ _______ _____ _____    ______ ____
ROOT
ATOM      1  C   LIG A   1      -2.771   3.183 132.985  0.00  0.00    +0.015 C 
ATOM      2  C   LIG A   1      -4.103   2.392 132.974  0.00  0.00    +0.005 C 
ATOM      3  C   LIG A   1      -5.100   3.090 133.963  0.00  0.00    +0.182 C 
ATOM      4  C   LIG A   1      -6.359   2.206 134.069  0.00  0.00    +0.046 C 
ATOM      5  C   LIG A   1      -7.076   1.913 132.745  0.00  0.00    +0.011 C 
ATOM      6  C   LIG A   1      -6.223   1.774 131.433  0.00  0.00    -0.025 C 
ATOM      7  C   LIG A   1      -4.812   2.439 131.571  0.00  0.00    +0.004 C 
ATOM      8  C   LIG A   1      -3.981   2.034 130.375  0.00  0.00    +0.005 C 
ATOM      9  C   LIG A   1      -4.575   2.627 129.092  0.00  0.00    +0.008 C 
ATOM     10  C   LIG A   1      -6.125   2.943 128.939  0.00  0.00    -0.019 C 
ATOM     11  C   LIG A   1      -6.973   2.563 130.248  0.00  0.00    +0.006 C 
ATOM     12  C   LIG A   1      -8.361   1.981 129.920  0.00  0.00    +0.031 C 
ATOM     13  C   LIG A   1      -8.343   0.995 128.800  0.00  0.00    -0.026 C 
ATOM     14  C   LIG A   1      -7.566   1.128 127.710  0.00  0.00    -0.063 C 
ATOM     15  C   LIG A   1      -6.797   2.436 127.530  0.00  0.00    -0.005 C 
ATOM     16  C   LIG A   1      -5.757   2.328 126.370  0.00  0.00    +0.012 C 
ATOM     17  C   LIG A   1      -5.107   0.955 126.252  0.00  0.00    +0.008 C 
ATOM     18  C   LIG A   1      -6.131  -0.174 126.014  0.00  0.00    -0.025 C 
ATOM     19  C   LIG A   1      -7.569   0.209 126.489  0.00  0.00    +0.022 C 
ATOM     20  C   LIG A   1      -8.516  -1.012 126.537  0.00  0.00    +0.014 C 
ATOM     21  C   LIG A   1      -7.969  -2.304 127.190  0.00  0.00    -0.034 C 
ATOM     22  C   LIG A   1      -7.964  -2.247 128.728  0.00  0.00    +0.011 C 
ATOM     23  C   LIG A   1      -6.551  -2.613 126.679  0.00  0.00    +0.007 C 
ATOM     24  C   LIG A   1      -5.613  -1.418 126.771  0.00  0.00    +0.008 C 
ATOM     25  C   LIG A   1      -8.906  -3.458 126.789  0.00  0.00    +0.011 C 
ATOM     26  C   LIG A   1      -6.142  -0.432 124.489  0.00  0.00    +0.012 C 
ATOM     27  C   LIG A   1      -7.890   3.431 126.966  0.00  0.00    +0.016 C 
ATOM     28  C   LIG A   1      -6.173   4.507 128.826  0.00  0.00    +0.012 C 
ATOM     29  C   LIG A   1      -6.135   0.261 131.079  0.00  0.00    +0.012 C 
ATOM     30  C   LIG A   1      -3.671   0.980 133.427  0.00  0.00    +0.015 C 
ENDROOT
BRANCH   3  31
ATOM     31  O   LIG A   1      -5.497   4.422 133.412  0.00  0.00    -0.461 OA
BRANCH  31  32
ATOM     32  C   LIG A   1      -5.851   5.433 134.285  0.00  0.00    +0.312 C 
ATOM     33  O   LIG A   1      -5.106   6.194 134.833  0.00  0.00    -0.251 OA
BRANCH  32  34
ATOM     34  C   LIG A   1      -7.389   5.601 134.265  0.00  0.00    +0.155 C 
BRANCH  34  35
ATOM     35  C   LIG A   1      -8.068   5.553 132.920  0.00  0.00    -0.037 A 
ATOM     36  C   LIG A   1      -7.659   6.453 131.928  0.00  0.00    +0.004 A 
ATOM     37  C   LIG A   1      -8.359   6.566 130.726  0.00  0.00    +0.000 A 
ATOM     38  C   LIG A   1      -9.524   5.831 130.525  0.00  0.00    +0.000 A 
ATOM     39  C   LIG A   1      -9.937   4.917 131.492  0.00  0.00    +0.000 A 
ATOM     40  C   LIG A   1      -9.189   4.742 132.666  0.00  0.00    +0.004 A 
ENDBRANCH  34  35
ENDBRANCH  32  34
ENDBRANCH  31  32
ENDBRANCH   3  31
TORSDOF 4
ENDMDL
MODEL 9
REMARK VINA RESULT:     -10.0      3.652      5.880
REMARK  Name = NuBBE_1348
REMARK  12 active torsions:
REMARK  status: ('A' for Active; 'I' for Inactive)
REMARK    1  A    between atoms: C_1  and  C_2
REMARK    2  A    between atoms: C_2  and  C_41
REMARK    3  A    between atoms: C_3  and  O_4
REMARK    4  A    between atoms: O_4  and  C_5
REMARK    5  A    between atoms: C_5  and  C_6
REMARK    6  A    between atoms: C_6  and  C_7
REMARK    7  A    between atoms: C_16  and  C_39
REMARK    8  A    between atoms: C_20  and  C_38
REMARK    9  A    between atoms: C_25  and  C_37
REMARK   10  A    between atoms: C_28  and  C_36
REMARK   11  A    between atoms: C_31  and  C_32
REMARK   12  A    between atoms: C_31  and  C_35
REMARK                            x       y       z     vdW  Elec       q    Type
REMARK                         _______ _______ _______ _____ _____    ______ ____
ROOT
ATOM      1  C   LIG A   1      -5.504   2.950 125.606  0.00  0.00    +0.015 C 
ATOM      2  C   LIG A   1      -6.144   3.056 127.013  0.00  0.00    +0.005 C 
ATOM      3  C   LIG A   1      -7.596   3.625 126.853  0.00  0.00    +0.182 C 
ATOM      4  C   LIG A   1      -8.162   3.880 128.265  0.00  0.00    +0.046 C 
ATOM      5  C   LIG A   1      -8.191   2.662 129.198  0.00  0.00    +0.011 C 
ATOM      6  C   LIG A   1      -7.054   1.585 129.076  0.00  0.00    -0.025 C 
ATOM      7  C   LIG A   1      -6.323   1.650 127.693  0.00  0.00    +0.004 C 
ATOM      8  C   LIG A   1      -5.097   0.768 127.766  0.00  0.00    +0.005 C 
ATOM      9  C   LIG A   1      -5.509  -0.700 127.928  0.00  0.00    +0.008 C 
ATOM     10  C   LIG A   1      -6.865  -1.130 128.635  0.00  0.00    -0.019 C 
ATOM     11  C   LIG A   1      -7.723   0.123 129.158  0.00  0.00    +0.006 C 
ATOM     12  C   LIG A   1      -8.425  -0.144 130.503  0.00  0.00    +0.031 C 
ATOM     13  C   LIG A   1      -7.561  -0.850 131.494  0.00  0.00    -0.026 C 
ATOM     14  C   LIG A   1      -6.693  -1.823 131.159  0.00  0.00    -0.063 C 
ATOM     15  C   LIG A   1      -6.721  -2.348 129.725  0.00  0.00    -0.005 C 
ATOM     16  C   LIG A   1      -5.496  -3.273 129.436  0.00  0.00    +0.012 C 
ATOM     17  C   LIG A   1      -4.217  -2.839 130.141  0.00  0.00    +0.008 C 
ATOM     18  C   LIG A   1      -4.365  -2.794 131.676  0.00  0.00    -0.025 C 
ATOM     19  C   LIG A   1      -5.852  -2.648 132.133  0.00  0.00    +0.022 C 
ATOM     20  C   LIG A   1      -5.975  -2.296 133.633  0.00  0.00    +0.014 C 
ATOM     21  C   LIG A   1      -5.046  -1.183 134.174  0.00  0.00    -0.034 C 
ATOM     22  C   LIG A   1      -5.521   0.233 133.803  0.00  0.00    +0.011 C 
ATOM     23  C   LIG A   1      -3.603  -1.390 133.680  0.00  0.00    +0.007 C 
ATOM     24  C   LIG A   1      -3.516  -1.603 132.176  0.00  0.00    +0.008 C 
ATOM     25  C   LIG A   1      -5.064  -1.271 135.711  0.00  0.00    +0.011 C 
ATOM     26  C   LIG A   1      -3.792  -4.130 132.204  0.00  0.00    +0.012 C 
ATOM     27  C   LIG A   1      -7.953  -3.341 129.720  0.00  0.00    +0.016 C 
ATOM     28  C   LIG A   1      -7.698  -1.774 127.473  0.00  0.00    +0.012 C 
ATOM     29  C   LIG A   1      -6.079   1.781 130.273  0.00  0.00    +0.012 C 
ATOM     30  C   LIG A   1      -5.184   4.011 127.758  0.00  0.00    +0.015 C 
ENDROOT
BRANCH   3  31
ATOM     31  O   LIG A   1      -8.456   2.610 126.171  0.00  0.00    -0.461 OA
BRANCH  31  32
ATOM     32  C   LIG A   1      -8.808   2.806 124.849  0.00  0.00    +0.312 C 
ATOM     33  O   LIG A   1      -8.458   3.711 124.146  0.00  0.00    -0.251 OA
BRANCH  32  34
ATOM     34  C   LIG A   1      -9.533   1.543 124.327  0.00  0.00    +0.155 C 
BRANCH  34  35
ATOM     35  C   LIG A   1      -8.670   0.408 123.838  0.00  0.00    -0.037 A 
ATOM     36  C   LIG A   1      -9.263  -0.607 123.076  0.00  0.00    +0.004 A 
ATOM     37  C   LIG A   1      -8.553  -1.760 122.737  0.00  0.00    +0.000 A 
ATOM     38  C   LIG A   1      -7.261  -1.951 123.217  0.00  0.00    +0.000 A 
ATOM     39  C   LIG A   1      -6.648  -0.946 123.962  0.00  0.00    +0.000 A 
ATOM     40  C   LIG A   1      -7.329   0.250 124.234  0.00  0.00    +0.004 A 
ENDBRANCH  34  35
ENDBRANCH  32  34
ENDBRANCH  31  32
ENDBRANCH   3  31
TORSDOF 4
ENDMDL
