MODEL 1
REMARK VINA RESULT:      -7.8      0.000      0.000
REMARK  Name = NuBBE_651
REMARK  2 active torsions:
REMARK  status: ('A' for Active; 'I' for Inactive)
REMARK    1  A    between atoms: C_14  and  C_15
REMARK    2  A    between atoms: C_14  and  C_16
REMARK                            x       y       z     vdW  Elec       q    Type
REMARK                         _______ _______ _______ _____ _____    ______ ____
ROOT
ATOM      1  O   LIG A   1      -8.513   4.254 134.739  0.00  0.00    -0.245 OA
ATOM      2  C   LIG A   1      -8.602   4.924 133.718  0.00  0.00    +0.337 A 
ATOM      3  C   LIG A   1      -7.391   5.367 133.003  0.00  0.00    +0.092 A 
ATOM      4  C   LIG A   1      -7.442   6.097 131.886  0.00  0.00    +0.018 A 
ATOM      5  O   LIG A   1      -9.823   5.303 133.178  0.00  0.00    -0.422 OA
ATOM      6  C   LIG A   1      -9.891   6.069 131.998  0.00  0.00    +0.143 A 
ATOM      7  C   LIG A   1      -8.734   6.475 131.338  0.00  0.00    +0.018 A 
ATOM      8  C   LIG A   1      -8.850   7.229 130.168  0.00  0.00    +0.023 A 
ATOM      9  C   LIG A   1     -11.156   6.395 131.520  0.00  0.00    +0.093 A 
ATOM     10  C   LIG A   1     -11.266   7.148 130.352  0.00  0.00    +0.132 A 
ATOM     11  C   LIG A   1     -10.116   7.566 129.671  0.00  0.00    +0.017 A 
ATOM     12  C   LIG A   1     -10.244   8.335 128.444  0.00  0.00    +0.011 C 
ATOM     13  C   LIG A   1     -11.474   8.655 128.034  0.00  0.00    +0.020 C 
ATOM     14  C   LIG A   1     -12.730   8.262 128.781  0.00  0.00    +0.123 C 
ATOM     15  C   LIG A   1     -13.435   9.529 129.275  0.00  0.00    +0.060 C 
ATOM     16  C   LIG A   1     -13.651   7.479 127.838  0.00  0.00    +0.060 C 
ATOM     17  O   LIG A   1     -12.538   7.422 129.938  0.00  0.00    -0.481 OA
ENDROOT
TORSDOF 0
ENDMDL
MODEL 2
REMARK VINA RESULT:      -7.6      1.928      2.788
REMARK  Name = NuBBE_651
REMARK  2 active torsions:
REMARK  status: ('A' for Active; 'I' for Inactive)
REMARK    1  A    between atoms: C_14  and  C_15
REMARK    2  A    between atoms: C_14  and  C_16
REMARK                            x       y       z     vdW  Elec       q    Type
REMARK                         _______ _______ _______ _____ _____    ______ ____
ROOT
ATOM      1  O   LIG A   1      -4.679   6.461 131.495  0.00  0.00    -0.245 OA
ATOM      2  C   LIG A   1      -5.895   6.404 131.637  0.00  0.00    +0.337 A 
ATOM      3  C   LIG A   1      -6.481   5.749 132.821  0.00  0.00    +0.092 A 
ATOM      4  C   LIG A   1      -7.800   5.666 133.016  0.00  0.00    +0.018 A 
ATOM      5  O   LIG A   1      -6.779   6.939 130.712  0.00  0.00    -0.422 OA
ATOM      6  C   LIG A   1      -8.172   6.862 130.908  0.00  0.00    +0.143 A 
ATOM      7  C   LIG A   1      -8.705   6.241 132.035  0.00  0.00    +0.018 A 
ATOM      8  C   LIG A   1     -10.093   6.193 132.190  0.00  0.00    +0.023 A 
ATOM      9  C   LIG A   1      -8.987   7.434 129.937  0.00  0.00    +0.093 A 
ATOM     10  C   LIG A   1     -10.371   7.383 130.097  0.00  0.00    +0.132 A 
ATOM     11  C   LIG A   1     -10.929   6.766 131.222  0.00  0.00    +0.017 A 
ATOM     12  C   LIG A   1     -12.373   6.734 131.387  0.00  0.00    +0.011 C 
ATOM     13  C   LIG A   1     -13.122   7.267 130.417  0.00  0.00    +0.020 C 
ATOM     14  C   LIG A   1     -12.545   7.892 129.167  0.00  0.00    +0.123 C 
ATOM     15  C   LIG A   1     -12.984   7.071 127.949  0.00  0.00    +0.060 C 
ATOM     16  C   LIG A   1     -13.056   9.332 129.043  0.00  0.00    +0.060 C 
ATOM     17  O   LIG A   1     -11.106   7.974 129.109  0.00  0.00    -0.481 OA
ENDROOT
TORSDOF 0
ENDMDL
MODEL 3
REMARK VINA RESULT:      -7.3      1.229      5.920
REMARK  Name = NuBBE_651
REMARK  2 active torsions:
REMARK  status: ('A' for Active; 'I' for Inactive)
REMARK    1  A    between atoms: C_14  and  C_15
REMARK    2  A    between atoms: C_14  and  C_16
REMARK                            x       y       z     vdW  Elec       q    Type
REMARK                         _______ _______ _______ _____ _____    ______ ____
ROOT
ATOM      1  O   LIG A   1     -13.887   7.018 127.716  0.00  0.00    -0.245 OA
ATOM      2  C   LIG A   1     -12.802   7.083 128.280  0.00  0.00    +0.337 A 
ATOM      3  C   LIG A   1     -11.876   8.195 127.998  0.00  0.00    +0.092 A 
ATOM      4  C   LIG A   1     -10.684   8.306 128.591  0.00  0.00    +0.018 A 
ATOM      5  O   LIG A   1     -12.383   6.135 129.202  0.00  0.00    -0.422 OA
ATOM      6  C   LIG A   1     -11.131   6.242 129.838  0.00  0.00    +0.143 A 
ATOM      7  C   LIG A   1     -10.271   7.302 129.557  0.00  0.00    +0.018 A 
ATOM      8  C   LIG A   1      -9.041   7.371 130.217  0.00  0.00    +0.023 A 
ATOM      9  C   LIG A   1     -10.794   5.254 130.757  0.00  0.00    +0.093 A 
ATOM     10  C   LIG A   1      -9.565   5.327 131.411  0.00  0.00    +0.132 A 
ATOM     11  C   LIG A   1      -8.686   6.384 131.147  0.00  0.00    +0.017 A 
ATOM     12  C   LIG A   1      -7.416   6.459 131.848  0.00  0.00    +0.011 C 
ATOM     13  C   LIG A   1      -7.115   5.475 132.700  0.00  0.00    +0.020 C 
ATOM     14  C   LIG A   1      -8.023   4.294 132.963  0.00  0.00    +0.123 C 
ATOM     15  C   LIG A   1      -7.327   3.013 132.493  0.00  0.00    +0.060 C 
ATOM     16  C   LIG A   1      -8.319   4.213 134.465  0.00  0.00    +0.060 C 
ATOM     17  O   LIG A   1      -9.307   4.328 132.306  0.00  0.00    -0.481 OA
ENDROOT
TORSDOF 0
ENDMDL
MODEL 4
REMARK VINA RESULT:      -7.0      1.878      6.519
REMARK  Name = NuBBE_651
REMARK  2 active torsions:
REMARK  status: ('A' for Active; 'I' for Inactive)
REMARK    1  A    between atoms: C_14  and  C_15
REMARK    2  A    between atoms: C_14  and  C_16
REMARK                            x       y       z     vdW  Elec       q    Type
REMARK                         _______ _______ _______ _____ _____    ______ ____
ROOT
ATOM      1  O   LIG A   1     -10.750   8.570 127.922  0.00  0.00    -0.245 OA
ATOM      2  C   LIG A   1     -10.558   7.956 128.964  0.00  0.00    +0.337 A 
ATOM      3  C   LIG A   1     -11.693   7.463 129.765  0.00  0.00    +0.092 A 
ATOM      4  C   LIG A   1     -11.529   6.788 130.906  0.00  0.00    +0.018 A 
ATOM      5  O   LIG A   1      -9.285   7.689 129.448  0.00  0.00    -0.422 OA
ATOM      6  C   LIG A   1      -9.097   6.975 130.647  0.00  0.00    +0.143 A 
ATOM      7  C   LIG A   1     -10.184   6.517 131.388  0.00  0.00    +0.018 A 
ATOM      8  C   LIG A   1      -9.950   5.808 132.569  0.00  0.00    +0.023 A 
ATOM      9  C   LIG A   1      -7.788   6.742 131.055  0.00  0.00    +0.093 A 
ATOM     10  C   LIG A   1      -7.560   6.034 132.234  0.00  0.00    +0.132 A 
ATOM     11  C   LIG A   1      -8.637   5.563 132.993  0.00  0.00    +0.017 A 
ATOM     12  C   LIG A   1      -8.387   4.811 134.212  0.00  0.00    +0.011 C 
ATOM     13  C   LIG A   1      -7.117   4.635 134.586  0.00  0.00    +0.020 C 
ATOM     14  C   LIG A   1      -5.937   5.180 133.811  0.00  0.00    +0.123 C 
ATOM     15  C   LIG A   1      -5.205   6.212 134.675  0.00  0.00    +0.060 C 
ATOM     16  C   LIG A   1      -4.993   4.026 133.456  0.00  0.00    +0.060 C 
ATOM     17  O   LIG A   1      -6.250   5.836 132.565  0.00  0.00    -0.481 OA
ENDROOT
TORSDOF 0
ENDMDL
MODEL 5
REMARK VINA RESULT:      -6.9      2.079      6.204
REMARK  Name = NuBBE_651
REMARK  2 active torsions:
REMARK  status: ('A' for Active; 'I' for Inactive)
REMARK    1  A    between atoms: C_14  and  C_15
REMARK    2  A    between atoms: C_14  and  C_16
REMARK                            x       y       z     vdW  Elec       q    Type
REMARK                         _______ _______ _______ _____ _____    ______ ____
ROOT
ATOM      1  O   LIG A   1     -10.873   7.785 125.723  0.00  0.00    -0.245 OA
ATOM      2  C   LIG A   1     -10.802   7.575 126.928  0.00  0.00    +0.337 A 
ATOM      3  C   LIG A   1     -11.569   8.400 127.879  0.00  0.00    +0.092 A 
ATOM      4  C   LIG A   1     -11.522   8.204 129.200  0.00  0.00    +0.018 A 
ATOM      5  O   LIG A   1     -10.011   6.568 127.463  0.00  0.00    -0.422 OA
ATOM      6  C   LIG A   1      -9.956   6.349 128.854  0.00  0.00    +0.143 A 
ATOM      7  C   LIG A   1     -10.690   7.139 129.735  0.00  0.00    +0.018 A 
ATOM      8  C   LIG A   1     -10.609   6.882 131.106  0.00  0.00    +0.023 A 
ATOM      9  C   LIG A   1      -9.146   5.312 129.306  0.00  0.00    +0.093 A 
ATOM     10  C   LIG A   1      -9.068   5.060 130.675  0.00  0.00    +0.132 A 
ATOM     11  C   LIG A   1      -9.799   5.840 131.578  0.00  0.00    +0.017 A 
ATOM     12  C   LIG A   1      -9.724   5.556 133.002  0.00  0.00    +0.011 C 
ATOM     13  C   LIG A   1      -8.911   4.573 133.399  0.00  0.00    +0.020 C 
ATOM     14  C   LIG A   1      -8.071   3.751 132.447  0.00  0.00    +0.123 C 
ATOM     15  C   LIG A   1      -6.589   4.005 132.741  0.00  0.00    +0.060 C 
ATOM     16  C   LIG A   1      -8.400   2.266 132.640  0.00  0.00    +0.060 C 
ATOM     17  O   LIG A   1      -8.262   4.022 131.043  0.00  0.00    -0.481 OA
ENDROOT
TORSDOF 0
ENDMDL
MODEL 6
REMARK VINA RESULT:      -6.9      9.966     10.515
REMARK  Name = NuBBE_651
REMARK  2 active torsions:
REMARK  status: ('A' for Active; 'I' for Inactive)
REMARK    1  A    between atoms: C_14  and  C_15
REMARK    2  A    between atoms: C_14  and  C_16
REMARK                            x       y       z     vdW  Elec       q    Type
REMARK                         _______ _______ _______ _____ _____    ______ ____
ROOT
ATOM      1  O   LIG A   1      -6.364  -1.001 131.367  0.00  0.00    -0.245 OA
ATOM      2  C   LIG A   1      -6.878  -1.564 130.409  0.00  0.00    +0.337 A 
ATOM      3  C   LIG A   1      -7.539  -2.872 130.573  0.00  0.00    +0.092 A 
ATOM      4  C   LIG A   1      -8.113  -3.520 129.556  0.00  0.00    +0.018 A 
ATOM      5  O   LIG A   1      -6.873  -1.019 129.133  0.00  0.00    -0.422 OA
ATOM      6  C   LIG A   1      -7.479  -1.690 128.053  0.00  0.00    +0.143 A 
ATOM      7  C   LIG A   1      -8.098  -2.924 128.230  0.00  0.00    +0.018 A 
ATOM      8  C   LIG A   1      -8.692  -3.550 127.131  0.00  0.00    +0.023 A 
ATOM      9  C   LIG A   1      -7.437  -1.067 126.809  0.00  0.00    +0.093 A 
ATOM     10  C   LIG A   1      -8.029  -1.696 125.716  0.00  0.00    +0.132 A 
ATOM     11  C   LIG A   1      -8.660  -2.936 125.871  0.00  0.00    +0.017 A 
ATOM     12  C   LIG A   1      -9.290  -3.574 124.727  0.00  0.00    +0.011 C 
ATOM     13  C   LIG A   1      -9.201  -2.960 123.544  0.00  0.00    +0.020 C 
ATOM     14  C   LIG A   1      -8.480  -1.646 123.339  0.00  0.00    +0.123 C 
ATOM     15  C   LIG A   1      -7.286  -1.872 122.406  0.00  0.00    +0.060 C 
ATOM     16  C   LIG A   1      -9.448  -0.632 122.720  0.00  0.00    +0.060 C 
ATOM     17  O   LIG A   1      -7.958  -1.022 124.530  0.00  0.00    -0.481 OA
ENDROOT
TORSDOF 0
ENDMDL
MODEL 7
REMARK VINA RESULT:      -6.9      1.468      6.171
REMARK  Name = NuBBE_651
REMARK  2 active torsions:
REMARK  status: ('A' for Active; 'I' for Inactive)
REMARK    1  A    between atoms: C_14  and  C_15
REMARK    2  A    between atoms: C_14  and  C_16
REMARK                            x       y       z     vdW  Elec       q    Type
REMARK                         _______ _______ _______ _____ _____    ______ ____
ROOT
ATOM      1  O   LIG A   1     -13.346   7.172 130.097  0.00  0.00    -0.245 OA
ATOM      2  C   LIG A   1     -12.140   7.086 130.297  0.00  0.00    +0.337 A 
ATOM      3  C   LIG A   1     -11.178   7.655 129.336  0.00  0.00    +0.092 A 
ATOM      4  C   LIG A   1      -9.856   7.585 129.516  0.00  0.00    +0.018 A 
ATOM      5  O   LIG A   1     -11.614   6.460 131.419  0.00  0.00    -0.422 OA
ATOM      6  C   LIG A   1     -10.222   6.384 131.622  0.00  0.00    +0.143 A 
ATOM      7  C   LIG A   1      -9.330   6.929 130.702  0.00  0.00    +0.018 A 
ATOM      8  C   LIG A   1      -7.958   6.834 130.949  0.00  0.00    +0.023 A 
ATOM      9  C   LIG A   1      -9.779   5.748 132.778  0.00  0.00    +0.093 A 
ATOM     10  C   LIG A   1      -8.409   5.656 133.018  0.00  0.00    +0.132 A 
ATOM     11  C   LIG A   1      -7.495   6.199 132.109  0.00  0.00    +0.017 A 
ATOM     12  C   LIG A   1      -6.069   6.112 132.379  0.00  0.00    +0.011 C 
ATOM     13  C   LIG A   1      -5.683   5.467 133.483  0.00  0.00    +0.020 C 
ATOM     14  C   LIG A   1      -6.648   4.826 134.455  0.00  0.00    +0.123 C 
ATOM     15  C   LIG A   1      -6.420   3.311 134.460  0.00  0.00    +0.060 C 
ATOM     16  C   LIG A   1      -6.409   5.400 135.856  0.00  0.00    +0.060 C 
ATOM     17  O   LIG A   1      -8.049   5.028 134.176  0.00  0.00    -0.481 OA
ENDROOT
TORSDOF 0
ENDMDL
MODEL 8
REMARK VINA RESULT:      -6.8      2.288      6.319
REMARK  Name = NuBBE_651
REMARK  2 active torsions:
REMARK  status: ('A' for Active; 'I' for Inactive)
REMARK    1  A    between atoms: C_14  and  C_15
REMARK    2  A    between atoms: C_14  and  C_16
REMARK                            x       y       z     vdW  Elec       q    Type
REMARK                         _______ _______ _______ _____ _____    ______ ____
ROOT
ATOM      1  O   LIG A   1     -13.626   6.818 128.182  0.00  0.00    -0.245 OA
ATOM      2  C   LIG A   1     -12.913   6.618 129.158  0.00  0.00    +0.337 A 
ATOM      3  C   LIG A   1     -13.021   7.472 130.354  0.00  0.00    +0.092 A 
ATOM      4  C   LIG A   1     -12.265   7.289 131.440  0.00  0.00    +0.018 A 
ATOM      5  O   LIG A   1     -11.976   5.595 129.199  0.00  0.00    -0.422 OA
ATOM      6  C   LIG A   1     -11.175   5.388 130.340  0.00  0.00    +0.143 A 
ATOM      7  C   LIG A   1     -11.295   6.206 131.460  0.00  0.00    +0.018 A 
ATOM      8  C   LIG A   1     -10.484   5.960 132.570  0.00  0.00    +0.023 A 
ATOM      9  C   LIG A   1     -10.269   4.333 130.301  0.00  0.00    +0.093 A 
ATOM     10  C   LIG A   1      -9.461   4.092 131.412  0.00  0.00    +0.132 A 
ATOM     11  C   LIG A   1      -9.566   4.901 132.549  0.00  0.00    +0.017 A 
ATOM     12  C   LIG A   1      -8.731   4.628 133.708  0.00  0.00    +0.011 C 
ATOM     13  C   LIG A   1      -7.852   3.627 133.620  0.00  0.00    +0.020 C 
ATOM     14  C   LIG A   1      -7.682   2.773 132.384  0.00  0.00    +0.123 C 
ATOM     15  C   LIG A   1      -6.275   2.988 131.817  0.00  0.00    +0.060 C 
ATOM     16  C   LIG A   1      -7.879   1.300 132.759  0.00  0.00    +0.060 C 
ATOM     17  O   LIG A   1      -8.603   3.035 131.305  0.00  0.00    -0.481 OA
ENDROOT
TORSDOF 0
ENDMDL
MODEL 9
REMARK VINA RESULT:      -6.8     10.262     12.157
REMARK  Name = NuBBE_651
REMARK  2 active torsions:
REMARK  status: ('A' for Active; 'I' for Inactive)
REMARK    1  A    between atoms: C_14  and  C_15
REMARK    2  A    between atoms: C_14  and  C_16
REMARK                            x       y       z     vdW  Elec       q    Type
REMARK                         _______ _______ _______ _____ _____    ______ ____
ROOT
ATOM      1  O   LIG A   1      -7.634  -2.099 122.224  0.00  0.00    -0.245 OA
ATOM      2  C   LIG A   1      -7.847  -2.346 123.405  0.00  0.00    +0.337 A 
ATOM      3  C   LIG A   1      -9.142  -2.907 123.833  0.00  0.00    +0.092 A 
ATOM      4  C   LIG A   1      -9.415  -3.193 125.109  0.00  0.00    +0.018 A 
ATOM      5  O   LIG A   1      -6.902  -2.119 124.396  0.00  0.00    -0.422 OA
ATOM      6  C   LIG A   1      -7.176  -2.420 125.745  0.00  0.00    +0.143 A 
ATOM      7  C   LIG A   1      -8.406  -2.950 126.127  0.00  0.00    +0.018 A 
ATOM      8  C   LIG A   1      -8.631  -3.238 127.475  0.00  0.00    +0.023 A 
ATOM      9  C   LIG A   1      -6.170  -2.171 126.672  0.00  0.00    +0.093 A 
ATOM     10  C   LIG A   1      -6.400  -2.459 128.017  0.00  0.00    +0.132 A 
ATOM     11  C   LIG A   1      -7.628  -2.995 128.423  0.00  0.00    +0.017 A 
ATOM     12  C   LIG A   1      -7.849  -3.309 129.825  0.00  0.00    +0.011 C 
ATOM     13  C   LIG A   1      -6.871  -3.027 130.689  0.00  0.00    +0.020 C 
ATOM     14  C   LIG A   1      -5.556  -2.398 130.283  0.00  0.00    +0.123 C 
ATOM     15  C   LIG A   1      -5.438  -1.018 130.937  0.00  0.00    +0.060 C 
ATOM     16  C   LIG A   1      -4.405  -3.300 130.742  0.00  0.00    +0.060 C 
ATOM     17  O   LIG A   1      -5.364  -2.198 128.867  0.00  0.00    -0.481 OA
ENDROOT
TORSDOF 0
ENDMDL
