MODEL 1
REMARK VINA RESULT:      -6.9      0.000      0.000
REMARK  Name = NuBBE_559
REMARK  23 active torsions:
REMARK  status: ('A' for Active; 'I' for Inactive)
REMARK    1  A    between atoms: C_1  and  C_2
REMARK    2  A    between atoms: C_2  and  C_3
REMARK    3  A    between atoms: C_4  and  C_5
REMARK    4  A    between atoms: C_5  and  C_6
REMARK    5  A    between atoms: C_6  and  C_7
REMARK    6  A    between atoms: C_7  and  C_8
REMARK    7  A    between atoms: C_9  and  C_10
REMARK    8  A    between atoms: C_10  and  C_11
REMARK    9  A    between atoms: C_11  and  C_12
REMARK   10  A    between atoms: C_12  and  C_13
REMARK   11  A    between atoms: C_14  and  C_15
REMARK   12  A    between atoms: C_15  and  C_16
REMARK   13  A    between atoms: C_16  and  C_17
REMARK   14  A    between atoms: C_18  and  C_19
REMARK   15  A    between atoms: C_18  and  C_20
REMARK   16  A    between atoms: C_20  and  C_21
REMARK   17  A    between atoms: C_21  and  C_22
REMARK   18  A    between atoms: C_23  and  C_24
REMARK   19  A    between atoms: C_23  and  C_25
REMARK   20  A    between atoms: C_25  and  C_26
REMARK   21  A    between atoms: C_26  and  C_27
REMARK   22  A    between atoms: C_28  and  C_29
REMARK   23  A    between atoms: C_28  and  C_30
REMARK                            x       y       z     vdW  Elec       q    Type
REMARK                         _______ _______ _______ _____ _____    ______ ____
ROOT
ATOM      1  C   LIG A   1      -7.865  -2.679 130.036  0.00  0.00    +0.031 C 
ENDROOT
BRANCH   1   4
ATOM      2  C   LIG A   1      -8.727  -3.655 127.835  0.00  0.00    -0.076 C 
ATOM      3  C   LIG A   1      -9.894  -4.352 128.476  0.00  0.00    +0.038 C 
ATOM      4  C   LIG A   1      -7.825  -2.956 128.564  0.00  0.00    -0.027 C 
BRANCH   2   5
ATOM      5  C   LIG A   1      -8.598  -3.821 126.332  0.00  0.00    +0.034 C 
BRANCH   5   6
ATOM      6  C   LIG A   1      -9.646  -3.031 125.542  0.00  0.00    +0.031 C 
BRANCH   6   9
ATOM      7  C   LIG A   1      -8.689  -0.895 124.605  0.00  0.00    -0.076 C 
ATOM      8  C   LIG A   1      -8.918  -0.356 125.965  0.00  0.00    +0.038 C 
ATOM      9  C   LIG A   1      -9.053  -2.227 124.429  0.00  0.00    -0.027 C 
BRANCH   7  10
ATOM     10  C   LIG A   1      -8.209  -0.057 123.465  0.00  0.00    +0.034 C 
BRANCH  10  11
ATOM     11  C   LIG A   1      -6.748  -0.319 122.999  0.00  0.00    +0.031 C 
BRANCH  11  15
ATOM     12  C   LIG A   1      -4.946  -3.793 123.730  0.00  0.00    +0.038 C 
ATOM     13  C   LIG A   1      -5.596  -2.482 123.995  0.00  0.00    -0.080 C 
ATOM     14  C   LIG A   1      -5.410  -2.156 125.437  0.00  0.00    +0.038 C 
ATOM     15  C   LIG A   1      -6.167  -1.717 123.012  0.00  0.00    -0.028 C 
ENDBRANCH  11  15
ENDBRANCH  10  11
ENDBRANCH   7  10
ENDBRANCH   6   9
ENDBRANCH   5   6
ENDBRANCH   2   5
ENDBRANCH   1   4
BRANCH   1  16
ATOM     16  C   LIG A   1      -7.532  -1.225 130.319  0.00  0.00    +0.031 C 
BRANCH  16  17
ATOM     17  C   LIG A   1      -6.624  -0.643 129.234  0.00  0.00    -0.027 C 
ATOM     18  C   LIG A   1      -6.683   0.684 128.785  0.00  0.00    -0.076 C 
ATOM     19  C   LIG A   1      -7.707   1.502 129.399  0.00  0.00    +0.038 C 
BRANCH  18  20
ATOM     20  C   LIG A   1      -5.606   1.372 128.008  0.00  0.00    +0.034 C 
BRANCH  20  21
ATOM     21  C   LIG A   1      -5.620   1.115 126.433  0.00  0.00    +0.031 C 
BRANCH  21  22
ATOM     22  C   LIG A   1      -6.030   2.261 125.464  0.00  0.00    -0.027 C 
ATOM     23  C   LIG A   1      -5.552   3.544 125.391  0.00  0.00    -0.076 C 
ATOM     24  C   LIG A   1      -4.496   4.194 126.323  0.00  0.00    +0.038 C 
BRANCH  23  25
ATOM     25  C   LIG A   1      -5.825   4.404 124.162  0.00  0.00    +0.034 C 
BRANCH  25  26
ATOM     26  C   LIG A   1      -5.883   3.691 122.767  0.00  0.00    +0.031 C 
BRANCH  26  27
ATOM     27  C   LIG A   1      -7.234   3.517 122.093  0.00  0.00    -0.028 C 
ATOM     28  C   LIG A   1      -7.571   3.738 120.802  0.00  0.00    -0.080 C 
ATOM     29  C   LIG A   1      -6.635   4.195 119.697  0.00  0.00    +0.038 C 
ATOM     30  C   LIG A   1      -9.030   3.783 120.398  0.00  0.00    +0.038 C 
ENDBRANCH  26  27
ENDBRANCH  25  26
ENDBRANCH  23  25
ENDBRANCH  21  22
ENDBRANCH  20  21
ENDBRANCH  18  20
ENDBRANCH  16  17
ENDBRANCH   1  16
TORSDOF 15
ENDMDL
MODEL 2
REMARK VINA RESULT:      -6.9      2.340      5.314
REMARK  Name = NuBBE_559
REMARK  23 active torsions:
REMARK  status: ('A' for Active; 'I' for Inactive)
REMARK    1  A    between atoms: C_1  and  C_2
REMARK    2  A    between atoms: C_2  and  C_3
REMARK    3  A    between atoms: C_4  and  C_5
REMARK    4  A    between atoms: C_5  and  C_6
REMARK    5  A    between atoms: C_6  and  C_7
REMARK    6  A    between atoms: C_7  and  C_8
REMARK    7  A    between atoms: C_9  and  C_10
REMARK    8  A    between atoms: C_10  and  C_11
REMARK    9  A    between atoms: C_11  and  C_12
REMARK   10  A    between atoms: C_12  and  C_13
REMARK   11  A    between atoms: C_14  and  C_15
REMARK   12  A    between atoms: C_15  and  C_16
REMARK   13  A    between atoms: C_16  and  C_17
REMARK   14  A    between atoms: C_18  and  C_19
REMARK   15  A    between atoms: C_18  and  C_20
REMARK   16  A    between atoms: C_20  and  C_21
REMARK   17  A    between atoms: C_21  and  C_22
REMARK   18  A    between atoms: C_23  and  C_24
REMARK   19  A    between atoms: C_23  and  C_25
REMARK   20  A    between atoms: C_25  and  C_26
REMARK   21  A    between atoms: C_26  and  C_27
REMARK   22  A    between atoms: C_28  and  C_29
REMARK   23  A    between atoms: C_28  and  C_30
REMARK                            x       y       z     vdW  Elec       q    Type
REMARK                         _______ _______ _______ _____ _____    ______ ____
ROOT
ATOM      1  C   LIG A   1      -8.638  -3.626 127.479  0.00  0.00    +0.031 C 
ENDROOT
BRANCH   1   4
ATOM      2  C   LIG A   1      -8.801  -3.448 124.934  0.00  0.00    -0.076 C 
ATOM      3  C   LIG A   1      -7.438  -4.034 124.697  0.00  0.00    +0.038 C 
ATOM      4  C   LIG A   1      -9.283  -3.243 126.182  0.00  0.00    -0.027 C 
BRANCH   2   5
ATOM      5  C   LIG A   1      -9.581  -3.058 123.691  0.00  0.00    +0.034 C 
BRANCH   5   6
ATOM      6  C   LIG A   1      -8.844  -2.052 122.802  0.00  0.00    +0.031 C 
BRANCH   6   9
ATOM      7  C   LIG A   1      -8.123   0.283 123.421  0.00  0.00    -0.076 C 
ATOM      8  C   LIG A   1      -6.749  -0.255 123.298  0.00  0.00    +0.038 C 
ATOM      9  C   LIG A   1      -9.140  -0.631 123.161  0.00  0.00    -0.027 C 
BRANCH   7  10
ATOM     10  C   LIG A   1      -8.417   1.668 123.896  0.00  0.00    +0.034 C 
BRANCH  10  11
ATOM     11  C   LIG A   1      -8.504   2.760 122.791  0.00  0.00    +0.031 C 
BRANCH  11  15
ATOM     12  C   LIG A   1      -5.090   4.214 121.348  0.00  0.00    +0.038 C 
ATOM     13  C   LIG A   1      -6.101   3.773 122.345  0.00  0.00    -0.080 C 
ATOM     14  C   LIG A   1      -5.640   4.206 123.695  0.00  0.00    +0.038 C 
ATOM     15  C   LIG A   1      -7.277   3.162 121.999  0.00  0.00    -0.028 C 
ENDBRANCH  11  15
ENDBRANCH  10  11
ENDBRANCH   7  10
ENDBRANCH   6   9
ENDBRANCH   5   6
ENDBRANCH   2   5
ENDBRANCH   1   4
BRANCH   1  16
ATOM     16  C   LIG A   1      -8.105  -2.398 128.197  0.00  0.00    +0.031 C 
BRANCH  16  17
ATOM     17  C   LIG A   1      -6.795  -1.916 127.572  0.00  0.00    -0.027 C 
ATOM     18  C   LIG A   1      -6.597  -0.630 127.048  0.00  0.00    -0.076 C 
ATOM     19  C   LIG A   1      -7.749   0.244 127.099  0.00  0.00    +0.038 C 
BRANCH  18  20
ATOM     20  C   LIG A   1      -5.262  -0.018 126.766  0.00  0.00    +0.034 C 
BRANCH  20  21
ATOM     21  C   LIG A   1      -5.293   1.479 126.213  0.00  0.00    +0.031 C 
BRANCH  21  22
ATOM     22  C   LIG A   1      -4.870   2.656 127.139  0.00  0.00    -0.027 C 
ATOM     23  C   LIG A   1      -3.638   3.237 127.291  0.00  0.00    -0.076 C 
ATOM     24  C   LIG A   1      -2.319   2.807 126.596  0.00  0.00    +0.038 C 
BRANCH  23  25
ATOM     25  C   LIG A   1      -3.498   4.590 127.978  0.00  0.00    +0.034 C 
BRANCH  25  26
ATOM     26  C   LIG A   1      -3.661   4.642 129.537  0.00  0.00    +0.031 C 
BRANCH  26  27
ATOM     27  C   LIG A   1      -4.929   5.245 130.117  0.00  0.00    -0.028 C 
ATOM     28  C   LIG A   1      -5.147   6.513 130.538  0.00  0.00    -0.080 C 
ATOM     29  C   LIG A   1      -4.149   7.657 130.492  0.00  0.00    +0.038 C 
ATOM     30  C   LIG A   1      -6.384   6.837 131.349  0.00  0.00    +0.038 C 
ENDBRANCH  26  27
ENDBRANCH  25  26
ENDBRANCH  23  25
ENDBRANCH  21  22
ENDBRANCH  20  21
ENDBRANCH  18  20
ENDBRANCH  16  17
ENDBRANCH   1  16
TORSDOF 15
ENDMDL
MODEL 3
REMARK VINA RESULT:      -6.7      1.508      5.108
REMARK  Name = NuBBE_559
REMARK  23 active torsions:
REMARK  status: ('A' for Active; 'I' for Inactive)
REMARK    1  A    between atoms: C_1  and  C_2
REMARK    2  A    between atoms: C_2  and  C_3
REMARK    3  A    between atoms: C_4  and  C_5
REMARK    4  A    between atoms: C_5  and  C_6
REMARK    5  A    between atoms: C_6  and  C_7
REMARK    6  A    between atoms: C_7  and  C_8
REMARK    7  A    between atoms: C_9  and  C_10
REMARK    8  A    between atoms: C_10  and  C_11
REMARK    9  A    between atoms: C_11  and  C_12
REMARK   10  A    between atoms: C_12  and  C_13
REMARK   11  A    between atoms: C_14  and  C_15
REMARK   12  A    between atoms: C_15  and  C_16
REMARK   13  A    between atoms: C_16  and  C_17
REMARK   14  A    between atoms: C_18  and  C_19
REMARK   15  A    between atoms: C_18  and  C_20
REMARK   16  A    between atoms: C_20  and  C_21
REMARK   17  A    between atoms: C_21  and  C_22
REMARK   18  A    between atoms: C_23  and  C_24
REMARK   19  A    between atoms: C_23  and  C_25
REMARK   20  A    between atoms: C_25  and  C_26
REMARK   21  A    between atoms: C_26  and  C_27
REMARK   22  A    between atoms: C_28  and  C_29
REMARK   23  A    between atoms: C_28  and  C_30
REMARK                            x       y       z     vdW  Elec       q    Type
REMARK                         _______ _______ _______ _____ _____    ______ ____
ROOT
ATOM      1  C   LIG A   1      -8.525  -3.838 128.100  0.00  0.00    +0.031 C 
ENDROOT
BRANCH   1   4
ATOM      2  C   LIG A   1      -7.429  -3.239 130.331  0.00  0.00    -0.076 C 
ATOM      3  C   LIG A   1      -6.289  -4.203 130.153  0.00  0.00    +0.038 C 
ATOM      4  C   LIG A   1      -8.424  -3.135 129.419  0.00  0.00    -0.027 C 
BRANCH   2   5
ATOM      5  C   LIG A   1      -7.419  -2.428 131.614  0.00  0.00    +0.034 C 
BRANCH   5   6
ATOM      6  C   LIG A   1      -6.388  -1.295 131.607  0.00  0.00    +0.031 C 
BRANCH   6   9
ATOM      7  C   LIG A   1      -6.135   0.179 129.578  0.00  0.00    -0.076 C 
ATOM      8  C   LIG A   1      -5.014  -0.724 129.231  0.00  0.00    +0.038 C 
ATOM      9  C   LIG A   1      -6.802  -0.136 130.759  0.00  0.00    -0.027 C 
BRANCH   7  10
ATOM     10  C   LIG A   1      -6.470   1.405 128.792  0.00  0.00    +0.034 C 
BRANCH  10  11
ATOM     11  C   LIG A   1      -5.408   2.542 128.824  0.00  0.00    +0.031 C 
BRANCH  11  15
ATOM     12  C   LIG A   1      -2.032   3.082 126.784  0.00  0.00    +0.038 C 
ATOM     13  C   LIG A   1      -3.073   3.284 127.827  0.00  0.00    -0.080 C 
ATOM     14  C   LIG A   1      -2.751   4.537 128.567  0.00  0.00    +0.038 C 
ATOM     15  C   LIG A   1      -4.165   2.468 127.962  0.00  0.00    -0.028 C 
ENDBRANCH  11  15
ENDBRANCH  10  11
ENDBRANCH   7  10
ENDBRANCH   6   9
ENDBRANCH   5   6
ENDBRANCH   2   5
ENDBRANCH   1   4
BRANCH   1  16
ATOM     16  C   LIG A   1      -8.665  -2.837 126.966  0.00  0.00    +0.031 C 
BRANCH  16  17
ATOM     17  C   LIG A   1      -7.466  -2.903 126.018  0.00  0.00    -0.027 C 
ATOM     18  C   LIG A   1      -7.561  -3.154 124.641  0.00  0.00    -0.076 C 
ATOM     19  C   LIG A   1      -8.901  -3.390 124.146  0.00  0.00    +0.038 C 
BRANCH  18  20
ATOM     20  C   LIG A   1      -6.482  -2.876 123.645  0.00  0.00    +0.034 C 
BRANCH  20  21
ATOM     21  C   LIG A   1      -6.510  -1.423 122.984  0.00  0.00    +0.031 C 
BRANCH  21  22
ATOM     22  C   LIG A   1      -7.185  -0.242 123.739  0.00  0.00    -0.027 C 
ATOM     23  C   LIG A   1      -6.740   0.450 124.836  0.00  0.00    -0.076 C 
ATOM     24  C   LIG A   1      -5.445   0.173 125.643  0.00  0.00    +0.038 C 
BRANCH  23  25
ATOM     25  C   LIG A   1      -7.365   1.788 125.214  0.00  0.00    +0.034 C 
BRANCH  25  26
ATOM     26  C   LIG A   1      -6.490   3.078 125.051  0.00  0.00    +0.031 C 
BRANCH  26  27
ATOM     27  C   LIG A   1      -5.978   3.441 123.668  0.00  0.00    -0.028 C 
ATOM     28  C   LIG A   1      -6.645   3.442 122.491  0.00  0.00    -0.080 C 
ATOM     29  C   LIG A   1      -8.112   3.101 122.292  0.00  0.00    +0.038 C 
ATOM     30  C   LIG A   1      -5.881   3.553 121.188  0.00  0.00    +0.038 C 
ENDBRANCH  26  27
ENDBRANCH  25  26
ENDBRANCH  23  25
ENDBRANCH  21  22
ENDBRANCH  20  21
ENDBRANCH  18  20
ENDBRANCH  16  17
ENDBRANCH   1  16
TORSDOF 15
ENDMDL
MODEL 4
REMARK VINA RESULT:      -6.7      2.285      7.578
REMARK  Name = NuBBE_559
REMARK  23 active torsions:
REMARK  status: ('A' for Active; 'I' for Inactive)
REMARK    1  A    between atoms: C_1  and  C_2
REMARK    2  A    between atoms: C_2  and  C_3
REMARK    3  A    between atoms: C_4  and  C_5
REMARK    4  A    between atoms: C_5  and  C_6
REMARK    5  A    between atoms: C_6  and  C_7
REMARK    6  A    between atoms: C_7  and  C_8
REMARK    7  A    between atoms: C_9  and  C_10
REMARK    8  A    between atoms: C_10  and  C_11
REMARK    9  A    between atoms: C_11  and  C_12
REMARK   10  A    between atoms: C_12  and  C_13
REMARK   11  A    between atoms: C_14  and  C_15
REMARK   12  A    between atoms: C_15  and  C_16
REMARK   13  A    between atoms: C_16  and  C_17
REMARK   14  A    between atoms: C_18  and  C_19
REMARK   15  A    between atoms: C_18  and  C_20
REMARK   16  A    between atoms: C_20  and  C_21
REMARK   17  A    between atoms: C_21  and  C_22
REMARK   18  A    between atoms: C_23  and  C_24
REMARK   19  A    between atoms: C_23  and  C_25
REMARK   20  A    between atoms: C_25  and  C_26
REMARK   21  A    between atoms: C_26  and  C_27
REMARK   22  A    between atoms: C_28  and  C_29
REMARK   23  A    between atoms: C_28  and  C_30
REMARK                            x       y       z     vdW  Elec       q    Type
REMARK                         _______ _______ _______ _____ _____    ______ ____
ROOT
ATOM      1  C   LIG A   1      -6.470  -1.417 123.177  0.00  0.00    +0.031 C 
ENDROOT
BRANCH   1   4
ATOM      2  C   LIG A   1      -7.917   0.422 124.207  0.00  0.00    -0.076 C 
ATOM      3  C   LIG A   1      -9.024   0.264 123.202  0.00  0.00    +0.038 C 
ATOM      4  C   LIG A   1      -6.781  -0.312 124.139  0.00  0.00    -0.027 C 
BRANCH   2   5
ATOM      5  C   LIG A   1      -8.131   1.486 125.268  0.00  0.00    +0.034 C 
BRANCH   5   6
ATOM      6  C   LIG A   1      -8.233   0.916 126.686  0.00  0.00    +0.031 C 
BRANCH   6   9
ATOM      7  C   LIG A   1      -7.279   2.238 128.609  0.00  0.00    -0.076 C 
ATOM      8  C   LIG A   1      -8.665   2.728 128.782  0.00  0.00    +0.038 C 
ATOM      9  C   LIG A   1      -7.099   1.334 127.566  0.00  0.00    -0.027 C 
BRANCH   7  10
ATOM     10  C   LIG A   1      -6.126   2.748 129.411  0.00  0.00    +0.034 C 
BRANCH  10  11
ATOM     11  C   LIG A   1      -4.821   1.905 129.335  0.00  0.00    +0.031 C 
BRANCH  11  15
ATOM     12  C   LIG A   1      -1.967   3.241 126.901  0.00  0.00    +0.038 C 
ATOM     13  C   LIG A   1      -3.329   2.887 127.383  0.00  0.00    -0.080 C 
ATOM     14  C   LIG A   1      -4.271   2.994 126.233  0.00  0.00    +0.038 C 
ATOM     15  C   LIG A   1      -3.581   2.452 128.658  0.00  0.00    -0.028 C 
ENDBRANCH  11  15
ENDBRANCH  10  11
ENDBRANCH   7  10
ENDBRANCH   6   9
ENDBRANCH   5   6
ENDBRANCH   2   5
ENDBRANCH   1   4
BRANCH   1  16
ATOM     16  C   LIG A   1      -6.574  -2.770 123.860  0.00  0.00    +0.031 C 
BRANCH  16  17
ATOM     17  C   LIG A   1      -7.413  -2.684 125.136  0.00  0.00    -0.027 C 
ATOM     18  C   LIG A   1      -8.779  -2.997 125.205  0.00  0.00    -0.076 C 
ATOM     19  C   LIG A   1      -9.388  -3.390 123.952  0.00  0.00    +0.038 C 
BRANCH  18  20
ATOM     20  C   LIG A   1      -9.532  -3.267 126.468  0.00  0.00    +0.034 C 
BRANCH  20  21
ATOM     21  C   LIG A   1      -8.746  -4.111 127.572  0.00  0.00    +0.031 C 
BRANCH  21  22
ATOM     22  C   LIG A   1      -8.539  -3.520 128.996  0.00  0.00    -0.027 C 
ATOM     23  C   LIG A   1      -7.569  -2.661 129.443  0.00  0.00    -0.076 C 
ATOM     24  C   LIG A   1      -6.377  -2.101 128.621  0.00  0.00    +0.038 C 
BRANCH  23  25
ATOM     25  C   LIG A   1      -7.733  -1.927 130.769  0.00  0.00    +0.034 C 
BRANCH  25  26
ATOM     26  C   LIG A   1      -8.209  -0.434 130.726  0.00  0.00    +0.031 C 
BRANCH  26  27
ATOM     27  C   LIG A   1      -7.815   0.489 131.867  0.00  0.00    -0.028 C 
ATOM     28  C   LIG A   1      -8.523   1.499 132.423  0.00  0.00    -0.080 C 
ATOM     29  C   LIG A   1      -9.929   1.926 132.036  0.00  0.00    +0.038 C 
ATOM     30  C   LIG A   1      -7.840   2.481 133.351  0.00  0.00    +0.038 C 
ENDBRANCH  26  27
ENDBRANCH  25  26
ENDBRANCH  23  25
ENDBRANCH  21  22
ENDBRANCH  20  21
ENDBRANCH  18  20
ENDBRANCH  16  17
ENDBRANCH   1  16
TORSDOF 15
ENDMDL
MODEL 5
REMARK VINA RESULT:      -6.7      1.498      3.972
REMARK  Name = NuBBE_559
REMARK  23 active torsions:
REMARK  status: ('A' for Active; 'I' for Inactive)
REMARK    1  A    between atoms: C_1  and  C_2
REMARK    2  A    between atoms: C_2  and  C_3
REMARK    3  A    between atoms: C_4  and  C_5
REMARK    4  A    between atoms: C_5  and  C_6
REMARK    5  A    between atoms: C_6  and  C_7
REMARK    6  A    between atoms: C_7  and  C_8
REMARK    7  A    between atoms: C_9  and  C_10
REMARK    8  A    between atoms: C_10  and  C_11
REMARK    9  A    between atoms: C_11  and  C_12
REMARK   10  A    between atoms: C_12  and  C_13
REMARK   11  A    between atoms: C_14  and  C_15
REMARK   12  A    between atoms: C_15  and  C_16
REMARK   13  A    between atoms: C_16  and  C_17
REMARK   14  A    between atoms: C_18  and  C_19
REMARK   15  A    between atoms: C_18  and  C_20
REMARK   16  A    between atoms: C_20  and  C_21
REMARK   17  A    between atoms: C_21  and  C_22
REMARK   18  A    between atoms: C_23  and  C_24
REMARK   19  A    between atoms: C_23  and  C_25
REMARK   20  A    between atoms: C_25  and  C_26
REMARK   21  A    between atoms: C_26  and  C_27
REMARK   22  A    between atoms: C_28  and  C_29
REMARK   23  A    between atoms: C_28  and  C_30
REMARK                            x       y       z     vdW  Elec       q    Type
REMARK                         _______ _______ _______ _____ _____    ______ ____
ROOT
ATOM      1  C   LIG A   1      -4.571   0.236 130.315  0.00  0.00    +0.031 C 
ENDROOT
BRANCH   1   4
ATOM      2  C   LIG A   1      -5.127  -2.182 129.697  0.00  0.00    -0.076 C 
ATOM      3  C   LIG A   1      -3.699  -2.548 129.402  0.00  0.00    +0.038 C 
ATOM      4  C   LIG A   1      -5.481  -0.927 130.059  0.00  0.00    -0.027 C 
BRANCH   2   5
ATOM      5  C   LIG A   1      -6.147  -3.291 129.519  0.00  0.00    +0.034 C 
BRANCH   5   6
ATOM      6  C   LIG A   1      -7.587  -2.780 129.414  0.00  0.00    +0.031 C 
BRANCH   6   9
ATOM      7  C   LIG A   1      -8.783  -3.107 127.219  0.00  0.00    -0.076 C 
ATOM      8  C   LIG A   1      -9.282  -4.358 127.833  0.00  0.00    +0.038 C 
ATOM      9  C   LIG A   1      -7.951  -2.342 128.031  0.00  0.00    -0.027 C 
BRANCH   7  10
ATOM     10  C   LIG A   1      -9.050  -2.732 125.798  0.00  0.00    +0.034 C 
BRANCH  10  11
ATOM     11  C   LIG A   1      -8.339  -3.601 124.720  0.00  0.00    +0.031 C 
BRANCH  11  15
ATOM     12  C   LIG A   1      -4.561  -3.111 123.562  0.00  0.00    +0.038 C 
ATOM     13  C   LIG A   1      -6.030  -2.896 123.636  0.00  0.00    -0.080 C 
ATOM     14  C   LIG A   1      -6.422  -1.982 122.525  0.00  0.00    +0.038 C 
ATOM     15  C   LIG A   1      -6.836  -3.537 124.540  0.00  0.00    -0.028 C 
ENDBRANCH  11  15
ENDBRANCH  10  11
ENDBRANCH   7  10
ENDBRANCH   6   9
ENDBRANCH   5   6
ENDBRANCH   2   5
ENDBRANCH   1   4
BRANCH   1  16
ATOM     16  C   LIG A   1      -4.452   1.108 129.077  0.00  0.00    +0.031 C 
BRANCH  16  17
ATOM     17  C   LIG A   1      -5.813   1.315 128.411  0.00  0.00    -0.027 C 
ATOM     18  C   LIG A   1      -6.132   0.885 127.114  0.00  0.00    -0.076 C 
ATOM     19  C   LIG A   1      -5.054   0.239 126.395  0.00  0.00    +0.038 C 
BRANCH  18  20
ATOM     20  C   LIG A   1      -7.519   0.747 126.575  0.00  0.00    +0.034 C 
BRANCH  20  21
ATOM     21  C   LIG A   1      -7.625   0.409 125.019  0.00  0.00    +0.031 C 
BRANCH  21  22
ATOM     22  C   LIG A   1      -6.963   1.354 123.975  0.00  0.00    -0.027 C 
ATOM     23  C   LIG A   1      -7.557   2.220 123.094  0.00  0.00    -0.076 C 
ATOM     24  C   LIG A   1      -9.080   2.428 122.883  0.00  0.00    +0.038 C 
BRANCH  23  25
ATOM     25  C   LIG A   1      -6.739   3.305 122.402  0.00  0.00    +0.034 C 
BRANCH  25  26
ATOM     26  C   LIG A   1      -5.618   4.019 123.233  0.00  0.00    +0.031 C 
BRANCH  26  27
ATOM     27  C   LIG A   1      -5.950   4.515 124.629  0.00  0.00    -0.028 C 
ATOM     28  C   LIG A   1      -5.235   4.379 125.770  0.00  0.00    -0.080 C 
ATOM     29  C   LIG A   1      -3.880   3.704 125.902  0.00  0.00    +0.038 C 
ATOM     30  C   LIG A   1      -5.874   4.689 127.106  0.00  0.00    +0.038 C 
ENDBRANCH  26  27
ENDBRANCH  25  26
ENDBRANCH  23  25
ENDBRANCH  21  22
ENDBRANCH  20  21
ENDBRANCH  18  20
ENDBRANCH  16  17
ENDBRANCH   1  16
TORSDOF 15
ENDMDL
MODEL 6
REMARK VINA RESULT:      -6.7      3.140      6.004
REMARK  Name = NuBBE_559
REMARK  23 active torsions:
REMARK  status: ('A' for Active; 'I' for Inactive)
REMARK    1  A    between atoms: C_1  and  C_2
REMARK    2  A    between atoms: C_2  and  C_3
REMARK    3  A    between atoms: C_4  and  C_5
REMARK    4  A    between atoms: C_5  and  C_6
REMARK    5  A    between atoms: C_6  and  C_7
REMARK    6  A    between atoms: C_7  and  C_8
REMARK    7  A    between atoms: C_9  and  C_10
REMARK    8  A    between atoms: C_10  and  C_11
REMARK    9  A    between atoms: C_11  and  C_12
REMARK   10  A    between atoms: C_12  and  C_13
REMARK   11  A    between atoms: C_14  and  C_15
REMARK   12  A    between atoms: C_15  and  C_16
REMARK   13  A    between atoms: C_16  and  C_17
REMARK   14  A    between atoms: C_18  and  C_19
REMARK   15  A    between atoms: C_18  and  C_20
REMARK   16  A    between atoms: C_20  and  C_21
REMARK   17  A    between atoms: C_21  and  C_22
REMARK   18  A    between atoms: C_23  and  C_24
REMARK   19  A    between atoms: C_23  and  C_25
REMARK   20  A    between atoms: C_25  and  C_26
REMARK   21  A    between atoms: C_26  and  C_27
REMARK   22  A    between atoms: C_28  and  C_29
REMARK   23  A    between atoms: C_28  and  C_30
REMARK                            x       y       z     vdW  Elec       q    Type
REMARK                         _______ _______ _______ _____ _____    ______ ____
ROOT
ATOM      1  C   LIG A   1      -5.879  -1.849 128.808  0.00  0.00    +0.031 C 
ENDROOT
BRANCH   1   4
ATOM      2  C   LIG A   1      -7.978  -3.152 128.152  0.00  0.00    -0.076 C 
ATOM      3  C   LIG A   1      -8.515  -3.205 129.555  0.00  0.00    +0.038 C 
ATOM      4  C   LIG A   1      -6.785  -2.579 127.865  0.00  0.00    -0.027 C 
BRANCH   2   5
ATOM      5  C   LIG A   1      -8.830  -3.821 127.089  0.00  0.00    +0.034 C 
BRANCH   5   6
ATOM      6  C   LIG A   1      -9.540  -2.826 126.166  0.00  0.00    +0.031 C 
BRANCH   6   9
ATOM      7  C   LIG A   1      -8.453  -1.689 124.196  0.00  0.00    -0.076 C 
ATOM      8  C   LIG A   1      -8.444  -0.491 125.067  0.00  0.00    +0.038 C 
ATOM      9  C   LIG A   1      -8.996  -2.833 124.773  0.00  0.00    -0.027 C 
BRANCH   7  10
ATOM     10  C   LIG A   1      -8.020  -1.663 122.767  0.00  0.00    +0.034 C 
BRANCH  10  11
ATOM     11  C   LIG A   1      -6.488  -1.540 122.524  0.00  0.00    +0.031 C 
BRANCH  11  15
ATOM     12  C   LIG A   1      -4.028  -4.506 123.526  0.00  0.00    +0.038 C 
ATOM     13  C   LIG A   1      -5.023  -3.412 123.685  0.00  0.00    -0.080 C 
ATOM     14  C   LIG A   1      -5.180  -3.136 125.142  0.00  0.00    +0.038 C 
ATOM     15  C   LIG A   1      -5.586  -2.753 122.624  0.00  0.00    -0.028 C 
ENDBRANCH  11  15
ENDBRANCH  10  11
ENDBRANCH   7  10
ENDBRANCH   6   9
ENDBRANCH   5   6
ENDBRANCH   2   5
ENDBRANCH   1   4
BRANCH   1  16
ATOM     16  C   LIG A   1      -4.633  -2.668 129.099  0.00  0.00    +0.031 C 
BRANCH  16  17
ATOM     17  C   LIG A   1      -4.959  -3.884 129.967  0.00  0.00    -0.027 C 
ATOM     18  C   LIG A   1      -4.562  -4.030 131.304  0.00  0.00    -0.076 C 
ATOM     19  C   LIG A   1      -3.767  -2.943 131.836  0.00  0.00    +0.038 C 
BRANCH  18  20
ATOM     20  C   LIG A   1      -5.150  -5.008 132.270  0.00  0.00    +0.034 C 
BRANCH  20  21
ATOM     21  C   LIG A   1      -6.082  -4.382 133.404  0.00  0.00    +0.031 C 
BRANCH  21  22
ATOM     22  C   LIG A   1      -7.169  -3.336 133.024  0.00  0.00    -0.027 C 
ATOM     23  C   LIG A   1      -7.178  -1.982 133.239  0.00  0.00    -0.076 C 
ATOM     24  C   LIG A   1      -6.099  -1.155 133.987  0.00  0.00    +0.038 C 
BRANCH  23  25
ATOM     25  C   LIG A   1      -8.159  -1.085 132.492  0.00  0.00    +0.034 C 
BRANCH  25  26
ATOM     26  C   LIG A   1      -7.599  -0.195 131.330  0.00  0.00    +0.031 C 
BRANCH  26  27
ATOM     27  C   LIG A   1      -8.331   1.089 130.978  0.00  0.00    -0.028 C 
ATOM     28  C   LIG A   1      -8.518   1.651 129.761  0.00  0.00    -0.080 C 
ATOM     29  C   LIG A   1      -8.049   1.086 128.431  0.00  0.00    +0.038 C 
ATOM     30  C   LIG A   1      -9.022   3.075 129.655  0.00  0.00    +0.038 C 
ENDBRANCH  26  27
ENDBRANCH  25  26
ENDBRANCH  23  25
ENDBRANCH  21  22
ENDBRANCH  20  21
ENDBRANCH  18  20
ENDBRANCH  16  17
ENDBRANCH   1  16
TORSDOF 15
ENDMDL
MODEL 7
REMARK VINA RESULT:      -6.7      1.484      5.466
REMARK  Name = NuBBE_559
REMARK  23 active torsions:
REMARK  status: ('A' for Active; 'I' for Inactive)
REMARK    1  A    between atoms: C_1  and  C_2
REMARK    2  A    between atoms: C_2  and  C_3
REMARK    3  A    between atoms: C_4  and  C_5
REMARK    4  A    between atoms: C_5  and  C_6
REMARK    5  A    between atoms: C_6  and  C_7
REMARK    6  A    between atoms: C_7  and  C_8
REMARK    7  A    between atoms: C_9  and  C_10
REMARK    8  A    between atoms: C_10  and  C_11
REMARK    9  A    between atoms: C_11  and  C_12
REMARK   10  A    between atoms: C_12  and  C_13
REMARK   11  A    between atoms: C_14  and  C_15
REMARK   12  A    between atoms: C_15  and  C_16
REMARK   13  A    between atoms: C_16  and  C_17
REMARK   14  A    between atoms: C_18  and  C_19
REMARK   15  A    between atoms: C_18  and  C_20
REMARK   16  A    between atoms: C_20  and  C_21
REMARK   17  A    between atoms: C_21  and  C_22
REMARK   18  A    between atoms: C_23  and  C_24
REMARK   19  A    between atoms: C_23  and  C_25
REMARK   20  A    between atoms: C_25  and  C_26
REMARK   21  A    between atoms: C_26  and  C_27
REMARK   22  A    between atoms: C_28  and  C_29
REMARK   23  A    between atoms: C_28  and  C_30
REMARK                            x       y       z     vdW  Elec       q    Type
REMARK                         _______ _______ _______ _____ _____    ______ ____
ROOT
ATOM      1  C   LIG A   1      -7.167  -0.482 132.385  0.00  0.00    +0.031 C 
ENDROOT
BRANCH   1   4
ATOM      2  C   LIG A   1      -8.384   1.324 131.046  0.00  0.00    -0.076 C 
ATOM      3  C   LIG A   1      -9.673   1.169 131.803  0.00  0.00    +0.038 C 
ATOM      4  C   LIG A   1      -7.307   0.545 131.304  0.00  0.00    -0.027 C 
BRANCH   2   5
ATOM      5  C   LIG A   1      -8.381   2.371 129.948  0.00  0.00    +0.034 C 
BRANCH   5   6
ATOM      6  C   LIG A   1      -8.678   1.796 128.560  0.00  0.00    +0.031 C 
BRANCH   6   9
ATOM      7  C   LIG A   1      -7.668   1.614 126.257  0.00  0.00    -0.076 C 
ATOM      8  C   LIG A   1      -8.925   0.916 125.909  0.00  0.00    +0.038 C 
ATOM      9  C   LIG A   1      -7.579   2.047 127.578  0.00  0.00    -0.027 C 
BRANCH   7  10
ATOM     10  C   LIG A   1      -6.523   1.757 125.308  0.00  0.00    +0.034 C 
BRANCH  10  11
ATOM     11  C   LIG A   1      -6.201   3.208 124.846  0.00  0.00    +0.031 C 
BRANCH  11  15
ATOM     12  C   LIG A   1      -6.486   3.699 120.905  0.00  0.00    +0.038 C 
ATOM     13  C   LIG A   1      -6.911   3.458 122.310  0.00  0.00    -0.080 C 
ATOM     14  C   LIG A   1      -8.339   3.032 122.296  0.00  0.00    +0.038 C 
ATOM     15  C   LIG A   1      -6.054   3.541 123.376  0.00  0.00    -0.028 C 
ENDBRANCH  11  15
ENDBRANCH  10  11
ENDBRANCH   7  10
ENDBRANCH   6   9
ENDBRANCH   5   6
ENDBRANCH   2   5
ENDBRANCH   1   4
BRANCH   1  16
ATOM     16  C   LIG A   1      -6.775  -1.828 131.800  0.00  0.00    +0.031 C 
BRANCH  16  17
ATOM     17  C   LIG A   1      -7.587  -2.144 130.543  0.00  0.00    -0.027 C 
ATOM     18  C   LIG A   1      -7.372  -3.263 129.724  0.00  0.00    -0.076 C 
ATOM     19  C   LIG A   1      -6.277  -4.121 130.125  0.00  0.00    +0.038 C 
BRANCH  18  20
ATOM     20  C   LIG A   1      -8.347  -3.788 128.720  0.00  0.00    +0.034 C 
BRANCH  20  21
ATOM     21  C   LIG A   1      -8.670  -2.816 127.497  0.00  0.00    +0.031 C 
BRANCH  21  22
ATOM     22  C   LIG A   1      -7.806  -2.883 126.205  0.00  0.00    -0.027 C 
ATOM     23  C   LIG A   1      -6.573  -2.337 125.960  0.00  0.00    -0.076 C 
ATOM     24  C   LIG A   1      -5.746  -1.445 126.924  0.00  0.00    +0.038 C 
BRANCH  23  25
ATOM     25  C   LIG A   1      -5.741  -2.800 124.769  0.00  0.00    +0.034 C 
BRANCH  25  26
ATOM     26  C   LIG A   1      -6.094  -2.216 123.358  0.00  0.00    +0.031 C 
BRANCH  26  27
ATOM     27  C   LIG A   1      -7.273  -1.266 123.236  0.00  0.00    -0.028 C 
ATOM     28  C   LIG A   1      -8.578  -1.558 123.032  0.00  0.00    -0.080 C 
ATOM     29  C   LIG A   1      -9.176  -2.949 122.907  0.00  0.00    +0.038 C 
ATOM     30  C   LIG A   1      -9.548  -0.460 122.651  0.00  0.00    +0.038 C 
ENDBRANCH  26  27
ENDBRANCH  25  26
ENDBRANCH  23  25
ENDBRANCH  21  22
ENDBRANCH  20  21
ENDBRANCH  18  20
ENDBRANCH  16  17
ENDBRANCH   1  16
TORSDOF 15
ENDMDL
MODEL 8
REMARK VINA RESULT:      -6.6      3.857      5.911
REMARK  Name = NuBBE_559
REMARK  23 active torsions:
REMARK  status: ('A' for Active; 'I' for Inactive)
REMARK    1  A    between atoms: C_1  and  C_2
REMARK    2  A    between atoms: C_2  and  C_3
REMARK    3  A    between atoms: C_4  and  C_5
REMARK    4  A    between atoms: C_5  and  C_6
REMARK    5  A    between atoms: C_6  and  C_7
REMARK    6  A    between atoms: C_7  and  C_8
REMARK    7  A    between atoms: C_9  and  C_10
REMARK    8  A    between atoms: C_10  and  C_11
REMARK    9  A    between atoms: C_11  and  C_12
REMARK   10  A    between atoms: C_12  and  C_13
REMARK   11  A    between atoms: C_14  and  C_15
REMARK   12  A    between atoms: C_15  and  C_16
REMARK   13  A    between atoms: C_16  and  C_17
REMARK   14  A    between atoms: C_18  and  C_19
REMARK   15  A    between atoms: C_18  and  C_20
REMARK   16  A    between atoms: C_20  and  C_21
REMARK   17  A    between atoms: C_21  and  C_22
REMARK   18  A    between atoms: C_23  and  C_24
REMARK   19  A    between atoms: C_23  and  C_25
REMARK   20  A    between atoms: C_25  and  C_26
REMARK   21  A    between atoms: C_26  and  C_27
REMARK   22  A    between atoms: C_28  and  C_29
REMARK   23  A    between atoms: C_28  and  C_30
REMARK                            x       y       z     vdW  Elec       q    Type
REMARK                         _______ _______ _______ _____ _____    ______ ____
ROOT
ATOM      1  C   LIG A   1      -5.450  -4.983 131.103  0.00  0.00    +0.031 C 
ENDROOT
BRANCH   1   4
ATOM      2  C   LIG A   1      -5.093  -3.209 129.297  0.00  0.00    -0.076 C 
ATOM      3  C   LIG A   1      -3.606  -3.418 129.234  0.00  0.00    +0.038 C 
ATOM      4  C   LIG A   1      -5.873  -3.892 130.167  0.00  0.00    -0.027 C 
BRANCH   2   5
ATOM      5  C   LIG A   1      -5.656  -2.156 128.360  0.00  0.00    +0.034 C 
BRANCH   5   6
ATOM      6  C   LIG A   1      -7.155  -1.911 128.553  0.00  0.00    +0.031 C 
BRANCH   6   9
ATOM      7  C   LIG A   1      -8.777  -3.018 126.973  0.00  0.00    -0.076 C 
ATOM      8  C   LIG A   1      -8.873  -4.062 128.018  0.00  0.00    +0.038 C 
ATOM      9  C   LIG A   1      -7.923  -1.960 127.271  0.00  0.00    -0.027 C 
BRANCH   7  10
ATOM     10  C   LIG A   1      -9.452  -3.129 125.644  0.00  0.00    +0.034 C 
BRANCH  10  11
ATOM     11  C   LIG A   1      -8.553  -2.867 124.402  0.00  0.00    +0.031 C 
BRANCH  11  15
ATOM     12  C   LIG A   1      -4.809  -4.123 123.890  0.00  0.00    +0.038 C 
ATOM     13  C   LIG A   1      -5.935  -3.227 124.266  0.00  0.00    -0.080 C 
ATOM     14  C   LIG A   1      -5.373  -1.883 124.580  0.00  0.00    +0.038 C 
ATOM     15  C   LIG A   1      -7.249  -3.615 124.216  0.00  0.00    -0.028 C 
ENDBRANCH  11  15
ENDBRANCH  10  11
ENDBRANCH   7  10
ENDBRANCH   6   9
ENDBRANCH   5   6
ENDBRANCH   2   5
ENDBRANCH   1   4
BRANCH   1  16
ATOM     16  C   LIG A   1      -5.655  -4.563 132.548  0.00  0.00    +0.031 C 
BRANCH  16  17
ATOM     17  C   LIG A   1      -6.778  -3.531 132.671  0.00  0.00    -0.027 C 
ATOM     18  C   LIG A   1      -6.572  -2.168 132.932  0.00  0.00    -0.076 C 
ATOM     19  C   LIG A   1      -5.192  -1.775 133.120  0.00  0.00    +0.038 C 
BRANCH  18  20
ATOM     20  C   LIG A   1      -7.585  -1.092 132.707  0.00  0.00    +0.034 C 
BRANCH  20  21
ATOM     21  C   LIG A   1      -7.029   0.403 132.769  0.00  0.00    +0.031 C 
BRANCH  21  22
ATOM     22  C   LIG A   1      -8.013   1.601 132.636  0.00  0.00    -0.027 C 
ATOM     23  C   LIG A   1      -8.614   2.107 131.513  0.00  0.00    -0.076 C 
ATOM     24  C   LIG A   1      -8.404   1.624 130.053  0.00  0.00    +0.038 C 
BRANCH  23  25
ATOM     25  C   LIG A   1      -9.804   3.052 131.628  0.00  0.00    +0.034 C 
BRANCH  25  26
ATOM     26  C   LIG A   1     -10.321   3.744 130.320  0.00  0.00    +0.031 C 
BRANCH  26  27
ATOM     27  C   LIG A   1      -9.940   5.192 130.063  0.00  0.00    -0.028 C 
ATOM     28  C   LIG A   1     -10.749   6.255 129.847  0.00  0.00    -0.080 C 
ATOM     29  C   LIG A   1     -12.268   6.239 129.846  0.00  0.00    +0.038 C 
ATOM     30  C   LIG A   1     -10.170   7.552 129.324  0.00  0.00    +0.038 C 
ENDBRANCH  26  27
ENDBRANCH  25  26
ENDBRANCH  23  25
ENDBRANCH  21  22
ENDBRANCH  20  21
ENDBRANCH  18  20
ENDBRANCH  16  17
ENDBRANCH   1  16
TORSDOF 15
ENDMDL
MODEL 9
REMARK VINA RESULT:      -6.6      2.502      6.499
REMARK  Name = NuBBE_559
REMARK  23 active torsions:
REMARK  status: ('A' for Active; 'I' for Inactive)
REMARK    1  A    between atoms: C_1  and  C_2
REMARK    2  A    between atoms: C_2  and  C_3
REMARK    3  A    between atoms: C_4  and  C_5
REMARK    4  A    between atoms: C_5  and  C_6
REMARK    5  A    between atoms: C_6  and  C_7
REMARK    6  A    between atoms: C_7  and  C_8
REMARK    7  A    between atoms: C_9  and  C_10
REMARK    8  A    between atoms: C_10  and  C_11
REMARK    9  A    between atoms: C_11  and  C_12
REMARK   10  A    between atoms: C_12  and  C_13
REMARK   11  A    between atoms: C_14  and  C_15
REMARK   12  A    between atoms: C_15  and  C_16
REMARK   13  A    between atoms: C_16  and  C_17
REMARK   14  A    between atoms: C_18  and  C_19
REMARK   15  A    between atoms: C_18  and  C_20
REMARK   16  A    between atoms: C_20  and  C_21
REMARK   17  A    between atoms: C_21  and  C_22
REMARK   18  A    between atoms: C_23  and  C_24
REMARK   19  A    between atoms: C_23  and  C_25
REMARK   20  A    between atoms: C_25  and  C_26
REMARK   21  A    between atoms: C_26  and  C_27
REMARK   22  A    between atoms: C_28  and  C_29
REMARK   23  A    between atoms: C_28  and  C_30
REMARK                            x       y       z     vdW  Elec       q    Type
REMARK                         _______ _______ _______ _____ _____    ______ ____
ROOT
ATOM      1  C   LIG A   1      -8.665  -3.505 128.059  0.00  0.00    +0.031 C 
ENDROOT
BRANCH   1   4
ATOM      2  C   LIG A   1      -6.570  -2.524 129.149  0.00  0.00    -0.076 C 
ATOM      3  C   LIG A   1      -6.401  -3.670 130.106  0.00  0.00    +0.038 C 
ATOM      4  C   LIG A   1      -7.610  -2.465 128.283  0.00  0.00    -0.027 C 
BRANCH   2   5
ATOM      5  C   LIG A   1      -5.533  -1.420 129.245  0.00  0.00    +0.034 C 
BRANCH   5   6
ATOM      6  C   LIG A   1      -5.902  -0.327 130.252  0.00  0.00    +0.031 C 
BRANCH   6   9
ATOM      7  C   LIG A   1      -7.970   1.090 129.983  0.00  0.00    -0.076 C 
ATOM      8  C   LIG A   1      -8.549   0.199 131.013  0.00  0.00    +0.038 C 
ATOM      9  C   LIG A   1      -6.652   0.808 129.632  0.00  0.00    -0.027 C 
BRANCH   7  10
ATOM     10  C   LIG A   1      -8.758   2.146 129.279  0.00  0.00    +0.034 C 
BRANCH  10  11
ATOM     11  C   LIG A   1      -7.934   3.323 128.681  0.00  0.00    +0.031 C 
BRANCH  11  15
ATOM     12  C   LIG A   1      -7.238   6.313 131.215  0.00  0.00    +0.038 C 
ATOM     13  C   LIG A   1      -7.106   4.981 130.569  0.00  0.00    -0.080 C 
ATOM     14  C   LIG A   1      -6.222   4.137 131.422  0.00  0.00    +0.038 C 
ATOM     15  C   LIG A   1      -7.787   4.629 129.433  0.00  0.00    -0.028 C 
ENDBRANCH  11  15
ENDBRANCH  10  11
ENDBRANCH   7  10
ENDBRANCH   6   9
ENDBRANCH   5   6
ENDBRANCH   2   5
ENDBRANCH   1   4
BRANCH   1  16
ATOM     16  C   LIG A   1      -9.136  -3.491 126.615  0.00  0.00    +0.031 C 
BRANCH  16  17
ATOM     17  C   LIG A   1      -7.957  -3.362 125.649  0.00  0.00    -0.027 C 
ATOM     18  C   LIG A   1      -8.087  -3.200 124.261  0.00  0.00    -0.076 C 
ATOM     19  C   LIG A   1      -9.446  -3.193 123.764  0.00  0.00    +0.038 C 
BRANCH  18  20
ATOM     20  C   LIG A   1      -7.002  -2.721 123.351  0.00  0.00    +0.034 C 
BRANCH  20  21
ATOM     21  C   LIG A   1      -7.053  -1.171 122.973  0.00  0.00    +0.031 C 
BRANCH  21  22
ATOM     22  C   LIG A   1      -7.098  -0.100 124.101  0.00  0.00    -0.027 C 
ATOM     23  C   LIG A   1      -6.315   0.009 125.221  0.00  0.00    -0.076 C 
ATOM     24  C   LIG A   1      -5.203  -0.975 125.674  0.00  0.00    +0.038 C 
BRANCH  23  25
ATOM     25  C   LIG A   1      -6.277   1.308 126.018  0.00  0.00    +0.034 C 
BRANCH  25  26
ATOM     26  C   LIG A   1      -4.923   2.095 126.072  0.00  0.00    +0.031 C 
BRANCH  26  27
ATOM     27  C   LIG A   1      -4.619   2.937 127.299  0.00  0.00    -0.028 C 
ATOM     28  C   LIG A   1      -3.423   3.393 127.739  0.00  0.00    -0.080 C 
ATOM     29  C   LIG A   1      -2.080   3.182 127.061  0.00  0.00    +0.038 C 
ATOM     30  C   LIG A   1      -3.298   3.967 129.134  0.00  0.00    +0.038 C 
ENDBRANCH  26  27
ENDBRANCH  25  26
ENDBRANCH  23  25
ENDBRANCH  21  22
ENDBRANCH  20  21
ENDBRANCH  18  20
ENDBRANCH  16  17
ENDBRANCH   1  16
TORSDOF 15
ENDMDL
