MODEL 1
REMARK VINA RESULT:      -9.2      0.000      0.000
REMARK  Name = NuBBE_1047
REMARK  12 active torsions:
REMARK  status: ('A' for Active; 'I' for Inactive)
REMARK    1  A    between atoms: C_1  and  C_2
REMARK    2  A    between atoms: C_2  and  O_3
REMARK    3  A    between atoms: C_2  and  C_4
REMARK    4  A    between atoms: C_2  and  C_39
REMARK    5  A    between atoms: C_8  and  C_9
REMARK    6  A    between atoms: C_8  and  C_37
REMARK    7  A    between atoms: C_13  and  C_36
REMARK    8  A    between atoms: C_14  and  C_35
REMARK    9  A    between atoms: C_18  and  C_19
REMARK   10  A    between atoms: C_18  and  C_33
REMARK   11  A    between atoms: C_20  and  O_32
REMARK   12  A    between atoms: C_24  and  C_31
REMARK                            x       y       z     vdW  Elec       q    Type
REMARK                         _______ _______ _______ _____ _____    ______ ____
ROOT
ATOM      1  C   LIG A   1      -7.549   1.628 130.721  0.00  0.00    +0.024 C 
ATOM      2  C   LIG A   1      -6.350   2.468 130.220  0.00  0.00    +0.007 C 
ATOM      3  C   LIG A   1      -5.147   1.529 130.199  0.00  0.00    +0.008 C 
ATOM      4  C   LIG A   1      -5.705   0.087 130.081  0.00  0.00    -0.023 C 
ATOM      5  C   LIG A   1      -6.055  -0.410 128.546  0.00  0.00    -0.023 C 
ATOM      6  C   LIG A   1      -5.038  -1.490 128.093  0.00  0.00    +0.008 C 
ATOM      7  C   LIG A   1      -5.206  -1.955 126.660  0.00  0.00    +0.005 C 
ATOM      8  C   LIG A   1      -6.609  -2.463 126.262  0.00  0.00    +0.003 C 
ATOM      9  C   LIG A   1      -6.743  -2.497 124.659  0.00  0.00    -0.006 C 
ATOM     10  C   LIG A   1      -6.116  -1.265 123.944  0.00  0.00    +0.014 C 
ATOM     11  C   LIG A   1      -8.217  -2.566 124.179  0.00  0.00    +0.120 C 
ATOM     12  C   LIG A   1      -9.131  -1.510 124.811  0.00  0.00    +0.032 C 
ATOM     13  C   LIG A   1      -8.621  -0.882 126.116  0.00  0.00    +0.010 C 
ATOM     14  C   LIG A   1      -7.837  -1.842 127.055  0.00  0.00    -0.025 C 
ATOM     15  C   LIG A   1      -7.485  -1.064 128.434  0.00  0.00    +0.002 C 
ATOM     16  C   LIG A   1      -7.738  -1.871 129.729  0.00  0.00    +0.005 C 
ATOM     17  C   LIG A   1      -7.913  -0.952 130.929  0.00  0.00    +0.005 C 
ATOM     18  C   LIG A   1      -6.946   0.227 131.012  0.00  0.00    +0.001 C 
ATOM     19  C   LIG A   1      -8.848  -2.984 127.401  0.00  0.00    +0.012 C 
ATOM     20  C   LIG A   1      -5.963  -3.728 124.123  0.00  0.00    +0.014 C 
ATOM     21  C   LIG A   1      -5.988   0.770 127.541  0.00  0.00    +0.012 C 
ATOM     22  C   LIG A   1      -4.689  -0.844 130.803  0.00  0.00    +0.012 C 
ENDROOT
BRANCH   1  26
ATOM     23  C   LIG A   1      -9.458   4.120 130.858  0.00  0.00    +0.150 C 
ATOM     24  C   LIG A   1     -10.386   2.905 130.836  0.00  0.00    +0.037 C 
ATOM     25  C   LIG A   1      -9.833   2.033 131.938  0.00  0.00    +0.037 C 
ATOM     26  C   LIG A   1      -8.332   2.325 131.891  0.00  0.00    +0.070 C 
ATOM     27  C   LIG A   1      -7.727   2.081 133.281  0.00  0.00    +0.042 C 
ATOM     28  O   LIG A   1      -8.298   3.754 131.644  0.00  0.00    -0.367 OA
BRANCH  23  30
ATOM     29  C   LIG A   1     -11.466   5.655 130.710  0.00  0.00    +0.043 C 
ATOM     30  C   LIG A   1     -10.109   5.425 131.387  0.00  0.00    +0.086 C 
ATOM     31  C   LIG A   1      -9.224   6.659 131.181  0.00  0.00    +0.043 C 
BRANCH  30  32
ATOM     32  O   LIG A   1     -10.341   5.276 132.797  0.00  0.00    -0.387 OA
ATOM     33  H   LIG A   1     -10.566   6.152 133.155  0.00  0.00    +0.210 HD
ENDBRANCH  30  32
ENDBRANCH  23  30
ENDBRANCH   1  26
BRANCH  11  34
ATOM     34  O   LIG A   1      -8.795  -3.863 124.326  0.00  0.00    -0.391 OA
ATOM     35  H   LIG A   1      -8.505  -4.429 123.592  0.00  0.00    +0.210 HD
ENDBRANCH  11  34
TORSDOF 4
ENDMDL
MODEL 2
REMARK VINA RESULT:      -9.0      2.707      4.146
REMARK  Name = NuBBE_1047
REMARK  12 active torsions:
REMARK  status: ('A' for Active; 'I' for Inactive)
REMARK    1  A    between atoms: C_1  and  C_2
REMARK    2  A    between atoms: C_2  and  O_3
REMARK    3  A    between atoms: C_2  and  C_4
REMARK    4  A    between atoms: C_2  and  C_39
REMARK    5  A    between atoms: C_8  and  C_9
REMARK    6  A    between atoms: C_8  and  C_37
REMARK    7  A    between atoms: C_13  and  C_36
REMARK    8  A    between atoms: C_14  and  C_35
REMARK    9  A    between atoms: C_18  and  C_19
REMARK   10  A    between atoms: C_18  and  C_33
REMARK   11  A    between atoms: C_20  and  O_32
REMARK   12  A    between atoms: C_24  and  C_31
REMARK                            x       y       z     vdW  Elec       q    Type
REMARK                         _______ _______ _______ _____ _____    ______ ____
ROOT
ATOM      1  C   LIG A   1      -5.376   1.625 129.647  0.00  0.00    +0.024 C 
ATOM      2  C   LIG A   1      -4.441   0.422 129.920  0.00  0.00    +0.007 C 
ATOM      3  C   LIG A   1      -5.341  -0.734 130.350  0.00  0.00    +0.008 C 
ATOM      4  C   LIG A   1      -6.750  -0.445 129.768  0.00  0.00    -0.023 C 
ATOM      5  C   LIG A   1      -6.976  -0.918 128.203  0.00  0.00    -0.023 C 
ATOM      6  C   LIG A   1      -7.943  -2.130 128.150  0.00  0.00    +0.008 C 
ATOM      7  C   LIG A   1      -8.153  -2.711 126.766  0.00  0.00    +0.005 C 
ATOM      8  C   LIG A   1      -8.608  -1.724 125.668  0.00  0.00    +0.003 C 
ATOM      9  C   LIG A   1      -8.363  -2.373 124.216  0.00  0.00    -0.006 C 
ATOM     10  C   LIG A   1      -7.015  -3.138 124.082  0.00  0.00    +0.014 C 
ATOM     11  C   LIG A   1      -8.372  -1.320 123.076  0.00  0.00    +0.120 C 
ATOM     12  C   LIG A   1      -7.458  -0.116 123.330  0.00  0.00    +0.032 C 
ATOM     13  C   LIG A   1      -7.060   0.122 124.793  0.00  0.00    +0.010 C 
ATOM     14  C   LIG A   1      -8.155  -0.212 125.845  0.00  0.00    -0.025 C 
ATOM     15  C   LIG A   1      -7.624   0.213 127.318  0.00  0.00    +0.002 C 
ATOM     16  C   LIG A   1      -8.650   0.970 128.194  0.00  0.00    +0.005 C 
ATOM     17  C   LIG A   1      -7.957   1.785 129.277  0.00  0.00    +0.005 C 
ATOM     18  C   LIG A   1      -6.796   1.096 129.989  0.00  0.00    +0.001 C 
ATOM     19  C   LIG A   1      -9.357   0.723 125.487  0.00  0.00    +0.012 C 
ATOM     20  C   LIG A   1      -9.468  -3.432 123.955  0.00  0.00    +0.014 C 
ATOM     21  C   LIG A   1      -5.638  -1.338 127.540  0.00  0.00    +0.012 C 
ATOM     22  C   LIG A   1      -7.775  -1.082 130.749  0.00  0.00    +0.012 C 
ENDROOT
BRANCH   1  26
ATOM     23  C   LIG A   1      -4.017   4.280 128.658  0.00  0.00    +0.150 C 
ATOM     24  C   LIG A   1      -5.501   4.618 128.802  0.00  0.00    +0.037 C 
ATOM     25  C   LIG A   1      -5.824   4.145 130.199  0.00  0.00    +0.037 C 
ATOM     26  C   LIG A   1      -4.906   2.935 130.378  0.00  0.00    +0.070 C 
ATOM     27  C   LIG A   1      -4.606   2.745 131.870  0.00  0.00    +0.042 C 
ATOM     28  O   LIG A   1      -3.681   3.373 129.736  0.00  0.00    -0.367 OA
BRANCH  23  30
ATOM     29  C   LIG A   1      -2.443   5.718 130.023  0.00  0.00    +0.043 C 
ATOM     30  C   LIG A   1      -3.069   5.508 128.639  0.00  0.00    +0.086 C 
ATOM     31  C   LIG A   1      -3.770   6.797 128.198  0.00  0.00    +0.043 C 
BRANCH  30  32
ATOM     32  O   LIG A   1      -2.004   5.242 127.711  0.00  0.00    -0.387 OA
ATOM     33  H   LIG A   1      -2.325   4.581 127.074  0.00  0.00    +0.210 HD
ENDBRANCH  30  32
ENDBRANCH  23  30
ENDBRANCH   1  26
BRANCH  11  34
ATOM     34  O   LIG A   1      -9.684  -0.873 122.735  0.00  0.00    -0.391 OA
ATOM     35  H   LIG A   1     -10.047  -0.352 123.470  0.00  0.00    +0.210 HD
ENDBRANCH  11  34
TORSDOF 4
ENDMDL
MODEL 3
REMARK VINA RESULT:      -9.0      1.588      2.252
REMARK  Name = NuBBE_1047
REMARK  12 active torsions:
REMARK  status: ('A' for Active; 'I' for Inactive)
REMARK    1  A    between atoms: C_1  and  C_2
REMARK    2  A    between atoms: C_2  and  O_3
REMARK    3  A    between atoms: C_2  and  C_4
REMARK    4  A    between atoms: C_2  and  C_39
REMARK    5  A    between atoms: C_8  and  C_9
REMARK    6  A    between atoms: C_8  and  C_37
REMARK    7  A    between atoms: C_13  and  C_36
REMARK    8  A    between atoms: C_14  and  C_35
REMARK    9  A    between atoms: C_18  and  C_19
REMARK   10  A    between atoms: C_18  and  C_33
REMARK   11  A    between atoms: C_20  and  O_32
REMARK   12  A    between atoms: C_24  and  C_31
REMARK                            x       y       z     vdW  Elec       q    Type
REMARK                         _______ _______ _______ _____ _____    ______ ____
ROOT
ATOM      1  C   LIG A   1      -6.792  -0.111 130.590  0.00  0.00    +0.024 C 
ATOM      2  C   LIG A   1      -5.431   0.554 130.275  0.00  0.00    +0.007 C 
ATOM      3  C   LIG A   1      -4.548  -0.537 129.675  0.00  0.00    +0.008 C 
ATOM      4  C   LIG A   1      -5.501  -1.609 129.082  0.00  0.00    -0.023 C 
ATOM      5  C   LIG A   1      -6.058  -1.292 127.561  0.00  0.00    -0.023 C 
ATOM      6  C   LIG A   1      -5.416  -2.276 126.546  0.00  0.00    +0.008 C 
ATOM      7  C   LIG A   1      -5.784  -2.019 125.099  0.00  0.00    +0.005 C 
ATOM      8  C   LIG A   1      -7.293  -1.957 124.773  0.00  0.00    +0.003 C 
ATOM      9  C   LIG A   1      -7.514  -1.260 123.340  0.00  0.00    -0.006 C 
ATOM     10  C   LIG A   1      -6.600  -0.027 123.087  0.00  0.00    +0.014 C 
ATOM     11  C   LIG A   1      -8.969  -0.764 123.129  0.00  0.00    +0.120 C 
ATOM     12  C   LIG A   1      -9.509   0.096 124.278  0.00  0.00    +0.032 C 
ATOM     13  C   LIG A   1      -8.775  -0.044 125.618  0.00  0.00    +0.010 C 
ATOM     14  C   LIG A   1      -8.249  -1.471 125.944  0.00  0.00    -0.025 C 
ATOM     15  C   LIG A   1      -7.618  -1.475 127.438  0.00  0.00    +0.002 C 
ATOM     16  C   LIG A   1      -8.024  -2.679 128.321  0.00  0.00    +0.005 C 
ATOM     17  C   LIG A   1      -7.866  -2.358 129.800  0.00  0.00    +0.005 C 
ATOM     18  C   LIG A   1      -6.600  -1.598 130.186  0.00  0.00    +0.001 C 
ATOM     19  C   LIG A   1      -9.525  -2.375 125.966  0.00  0.00    +0.012 C 
ATOM     20  C   LIG A   1      -7.147  -2.283 122.230  0.00  0.00    +0.014 C 
ATOM     21  C   LIG A   1      -5.708   0.153 127.120  0.00  0.00    +0.012 C 
ATOM     22  C   LIG A   1      -4.757  -2.972 129.185  0.00  0.00    +0.012 C 
ENDROOT
BRANCH   1  26
ATOM     23  C   LIG A   1      -8.188   2.347 131.963  0.00  0.00    +0.150 C 
ATOM     24  C   LIG A   1      -9.315   1.353 131.679  0.00  0.00    +0.037 C 
ATOM     25  C   LIG A   1      -8.792   0.067 132.273  0.00  0.00    +0.037 C 
ATOM     26  C   LIG A   1      -7.281   0.173 132.057  0.00  0.00    +0.070 C 
ATOM     27  C   LIG A   1      -6.558  -0.655 133.128  0.00  0.00    +0.042 C 
ATOM     28  O   LIG A   1      -7.022   1.573 132.336  0.00  0.00    -0.367 OA
BRANCH  23  30
ATOM     29  C   LIG A   1      -8.512   4.817 132.410  0.00  0.00    +0.043 C 
ATOM     30  C   LIG A   1      -8.520   3.417 133.036  0.00  0.00    +0.086 C 
ATOM     31  C   LIG A   1      -7.556   3.390 134.226  0.00  0.00    +0.043 C 
BRANCH  30  32
ATOM     32  O   LIG A   1      -9.844   3.165 133.532  0.00  0.00    -0.387 OA
ATOM     33  H   LIG A   1     -10.267   2.525 132.934  0.00  0.00    +0.210 HD
ENDBRANCH  30  32
ENDBRANCH  23  30
ENDBRANCH   1  26
BRANCH  11  34
ATOM     34  O   LIG A   1      -9.886  -1.819 122.838  0.00  0.00    -0.391 OA
ATOM     35  H   LIG A   1     -10.583  -1.834 123.514  0.00  0.00    +0.210 HD
ENDBRANCH  11  34
TORSDOF 4
ENDMDL
MODEL 4
REMARK VINA RESULT:      -8.9      2.269      8.137
REMARK  Name = NuBBE_1047
REMARK  12 active torsions:
REMARK  status: ('A' for Active; 'I' for Inactive)
REMARK    1  A    between atoms: C_1  and  C_2
REMARK    2  A    between atoms: C_2  and  O_3
REMARK    3  A    between atoms: C_2  and  C_4
REMARK    4  A    between atoms: C_2  and  C_39
REMARK    5  A    between atoms: C_8  and  C_9
REMARK    6  A    between atoms: C_8  and  C_37
REMARK    7  A    between atoms: C_13  and  C_36
REMARK    8  A    between atoms: C_14  and  C_35
REMARK    9  A    between atoms: C_18  and  C_19
REMARK   10  A    between atoms: C_18  and  C_33
REMARK   11  A    between atoms: C_20  and  O_32
REMARK   12  A    between atoms: C_24  and  C_31
REMARK                            x       y       z     vdW  Elec       q    Type
REMARK                         _______ _______ _______ _____ _____    ______ ____
ROOT
ATOM      1  C   LIG A   1      -6.956   1.787 125.991  0.00  0.00    +0.024 C 
ATOM      2  C   LIG A   1      -5.674   0.999 126.351  0.00  0.00    +0.007 C 
ATOM      3  C   LIG A   1      -4.697   2.015 126.940  0.00  0.00    +0.008 C 
ATOM      4  C   LIG A   1      -5.547   3.193 127.483  0.00  0.00    -0.023 C 
ATOM      5  C   LIG A   1      -6.161   2.978 129.001  0.00  0.00    -0.023 C 
ATOM      6  C   LIG A   1      -5.442   3.922 130.001  0.00  0.00    +0.008 C 
ATOM      7  C   LIG A   1      -5.859   3.746 131.447  0.00  0.00    +0.005 C 
ATOM      8  C   LIG A   1      -7.372   3.845 131.743  0.00  0.00    +0.003 C 
ATOM      9  C   LIG A   1      -7.688   3.215 133.190  0.00  0.00    -0.006 C 
ATOM     10  C   LIG A   1      -6.906   1.905 133.496  0.00  0.00    +0.014 C 
ATOM     11  C   LIG A   1      -9.189   2.874 133.384  0.00  0.00    +0.120 C 
ATOM     12  C   LIG A   1      -9.792   2.038 132.249  0.00  0.00    +0.032 C 
ATOM     13  C   LIG A   1      -9.023   2.065 130.921  0.00  0.00    +0.010 C 
ATOM     14  C   LIG A   1      -8.351   3.422 130.567  0.00  0.00    -0.025 C 
ATOM     15  C   LIG A   1      -7.697   3.319 129.086  0.00  0.00    +0.002 C 
ATOM     16  C   LIG A   1      -7.964   4.531 128.162  0.00  0.00    +0.005 C 
ATOM     17  C   LIG A   1      -7.813   4.153 126.696  0.00  0.00    +0.005 C 
ATOM     18  C   LIG A   1      -6.622   3.259 126.357  0.00  0.00    +0.001 C 
ATOM     19  C   LIG A   1      -9.530   4.448 130.493  0.00  0.00    +0.012 C 
ATOM     20  C   LIG A   1      -7.240   4.229 134.278  0.00  0.00    +0.014 C 
ATOM     21  C   LIG A   1      -5.966   1.519 129.488  0.00  0.00    +0.012 C 
ATOM     22  C   LIG A   1      -4.670   4.471 127.358  0.00  0.00    +0.012 C 
ENDROOT
BRANCH   1  26
ATOM     23  C   LIG A   1      -8.426  -0.630 124.624  0.00  0.00    +0.150 C 
ATOM     24  C   LIG A   1      -9.520   0.404 124.894  0.00  0.00    +0.037 C 
ATOM     25  C   LIG A   1      -8.949   1.667 124.296  0.00  0.00    +0.037 C 
ATOM     26  C   LIG A   1      -7.445   1.510 124.523  0.00  0.00    +0.070 C 
ATOM     27  C   LIG A   1      -6.687   2.306 123.451  0.00  0.00    +0.042 C 
ATOM     28  O   LIG A   1      -7.232   0.101 124.254  0.00  0.00    -0.367 OA
BRANCH  23  30
ATOM     29  C   LIG A   1      -9.175  -3.017 124.233  0.00  0.00    +0.043 C 
ATOM     30  C   LIG A   1      -8.788  -1.696 123.556  0.00  0.00    +0.086 C 
ATOM     31  C   LIG A   1      -7.654  -1.951 122.559  0.00  0.00    +0.043 C 
BRANCH  30  32
ATOM     32  O   LIG A   1      -9.930  -1.229 122.820  0.00  0.00    -0.387 OA
ATOM     33  H   LIG A   1     -10.602  -1.933 122.838  0.00  0.00    +0.210 HD
ENDBRANCH  30  32
ENDBRANCH  23  30
ENDBRANCH   1  26
BRANCH  11  34
ATOM     34  O   LIG A   1     -10.000   4.023 133.628  0.00  0.00    -0.391 OA
ATOM     35  H   LIG A   1      -9.427   4.795 133.768  0.00  0.00    +0.210 HD
ENDBRANCH  11  34
TORSDOF 4
ENDMDL
MODEL 5
REMARK VINA RESULT:      -8.5      5.888      9.016
REMARK  Name = NuBBE_1047
REMARK  12 active torsions:
REMARK  status: ('A' for Active; 'I' for Inactive)
REMARK    1  A    between atoms: C_1  and  C_2
REMARK    2  A    between atoms: C_2  and  O_3
REMARK    3  A    between atoms: C_2  and  C_4
REMARK    4  A    between atoms: C_2  and  C_39
REMARK    5  A    between atoms: C_8  and  C_9
REMARK    6  A    between atoms: C_8  and  C_37
REMARK    7  A    between atoms: C_13  and  C_36
REMARK    8  A    between atoms: C_14  and  C_35
REMARK    9  A    between atoms: C_18  and  C_19
REMARK   10  A    between atoms: C_18  and  C_33
REMARK   11  A    between atoms: C_20  and  O_32
REMARK   12  A    between atoms: C_24  and  C_31
REMARK                            x       y       z     vdW  Elec       q    Type
REMARK                         _______ _______ _______ _____ _____    ______ ____
ROOT
ATOM      1  C   LIG A   1      -2.254   7.002 132.924  0.00  0.00    +0.024 C 
ATOM      2  C   LIG A   1      -1.618   6.437 131.631  0.00  0.00    +0.007 C 
ATOM      3  C   LIG A   1      -1.787   4.921 131.696  0.00  0.00    +0.008 C 
ATOM      4  C   LIG A   1      -2.989   4.643 132.636  0.00  0.00    -0.023 C 
ATOM      5  C   LIG A   1      -4.476   4.728 131.922  0.00  0.00    -0.023 C 
ATOM      6  C   LIG A   1      -5.096   3.309 131.821  0.00  0.00    +0.008 C 
ATOM      7  C   LIG A   1      -6.425   3.252 131.096  0.00  0.00    +0.005 C 
ATOM      8  C   LIG A   1      -7.535   4.192 131.617  0.00  0.00    +0.003 C 
ATOM      9  C   LIG A   1      -8.693   4.336 130.510  0.00  0.00    -0.006 C 
ATOM     10  C   LIG A   1      -8.165   4.469 129.053  0.00  0.00    +0.014 C 
ATOM     11  C   LIG A   1      -9.605   5.568 130.749  0.00  0.00    +0.120 C 
ATOM     12  C   LIG A   1      -8.840   6.881 130.957  0.00  0.00    +0.032 C 
ATOM     13  C   LIG A   1      -7.369   6.737 131.368  0.00  0.00    +0.010 C 
ATOM     14  C   LIG A   1      -7.053   5.538 132.307  0.00  0.00    -0.025 C 
ATOM     15  C   LIG A   1      -5.493   5.605 132.746  0.00  0.00    +0.002 C 
ATOM     16  C   LIG A   1      -5.221   5.359 134.249  0.00  0.00    +0.005 C 
ATOM     17  C   LIG A   1      -3.886   5.953 134.674  0.00  0.00    +0.005 C 
ATOM     18  C   LIG A   1      -2.725   5.745 133.705  0.00  0.00    +0.001 C 
ATOM     19  C   LIG A   1      -7.916   5.790 133.587  0.00  0.00    +0.012 C 
ATOM     20  C   LIG A   1      -9.553   3.042 130.522  0.00  0.00    +0.014 C 
ATOM     21  C   LIG A   1      -4.383   5.318 130.491  0.00  0.00    +0.012 C 
ATOM     22  C   LIG A   1      -2.718   3.270 133.313  0.00  0.00    +0.012 C 
ENDROOT
BRANCH   1  26
ATOM     23  C   LIG A   1      -2.129  10.135 133.125  0.00  0.00    +0.150 C 
ATOM     24  C   LIG A   1      -2.826   9.679 134.406  0.00  0.00    +0.037 C 
ATOM     25  C   LIG A   1      -1.890   8.625 134.947  0.00  0.00    +0.037 C 
ATOM     26  C   LIG A   1      -1.303   7.999 133.681  0.00  0.00    +0.070 C 
ATOM     27  C   LIG A   1       0.083   7.421 133.999  0.00  0.00    +0.042 C 
ATOM     28  O   LIG A   1      -1.111   9.151 132.821  0.00  0.00    -0.367 OA
BRANCH  23  30
ATOM     29  C   LIG A   1      -0.005  11.497 133.335  0.00  0.00    +0.043 C 
ATOM     30  C   LIG A   1      -1.530  11.565 133.184  0.00  0.00    +0.086 C 
ATOM     31  C   LIG A   1      -2.115  12.411 134.320  0.00  0.00    +0.043 C 
BRANCH  30  32
ATOM     32  O   LIG A   1      -1.820  12.229 131.943  0.00  0.00    -0.387 OA
ATOM     33  H   LIG A   1      -1.764  11.566 131.233  0.00  0.00    +0.210 HD
ENDBRANCH  30  32
ENDBRANCH  23  30
ENDBRANCH   1  26
BRANCH  11  34
ATOM     34  O   LIG A   1     -10.542   5.377 131.809  0.00  0.00    -0.391 OA
ATOM     35  H   LIG A   1     -10.083   5.456 132.661  0.00  0.00    +0.210 HD
ENDBRANCH  11  34
TORSDOF 4
ENDMDL
MODEL 6
REMARK VINA RESULT:      -8.2      2.206      8.102
REMARK  Name = NuBBE_1047
REMARK  12 active torsions:
REMARK  status: ('A' for Active; 'I' for Inactive)
REMARK    1  A    between atoms: C_1  and  C_2
REMARK    2  A    between atoms: C_2  and  O_3
REMARK    3  A    between atoms: C_2  and  C_4
REMARK    4  A    between atoms: C_2  and  C_39
REMARK    5  A    between atoms: C_8  and  C_9
REMARK    6  A    between atoms: C_8  and  C_37
REMARK    7  A    between atoms: C_13  and  C_36
REMARK    8  A    between atoms: C_14  and  C_35
REMARK    9  A    between atoms: C_18  and  C_19
REMARK   10  A    between atoms: C_18  and  C_33
REMARK   11  A    between atoms: C_20  and  O_32
REMARK   12  A    between atoms: C_24  and  C_31
REMARK                            x       y       z     vdW  Elec       q    Type
REMARK                         _______ _______ _______ _____ _____    ______ ____
ROOT
ATOM      1  C   LIG A   1      -6.672   1.277 126.051  0.00  0.00    +0.024 C 
ATOM      2  C   LIG A   1      -5.241   0.690 126.093  0.00  0.00    +0.007 C 
ATOM      3  C   LIG A   1      -4.303   1.861 126.374  0.00  0.00    +0.008 C 
ATOM      4  C   LIG A   1      -5.149   2.954 127.080  0.00  0.00    -0.023 C 
ATOM      5  C   LIG A   1      -5.323   2.766 128.711  0.00  0.00    -0.023 C 
ATOM      6  C   LIG A   1      -4.518   3.862 129.459  0.00  0.00    +0.008 C 
ATOM      7  C   LIG A   1      -4.528   3.734 130.968  0.00  0.00    +0.005 C 
ATOM      8  C   LIG A   1      -5.916   3.655 131.643  0.00  0.00    +0.003 C 
ATOM      9  C   LIG A   1      -5.762   3.091 133.143  0.00  0.00    -0.006 C 
ATOM     10  C   LIG A   1      -4.750   1.918 133.279  0.00  0.00    +0.014 C 
ATOM     11  C   LIG A   1      -7.101   2.572 133.730  0.00  0.00    +0.120 C 
ATOM     12  C   LIG A   1      -7.844   1.588 132.819  0.00  0.00    +0.032 C 
ATOM     13  C   LIG A   1      -7.447   1.623 131.336  0.00  0.00    +0.010 C 
ATOM     14  C   LIG A   1      -7.088   3.028 130.775  0.00  0.00    -0.025 C 
ATOM     15  C   LIG A   1      -6.820   2.910 129.180  0.00  0.00    +0.002 C 
ATOM     16  C   LIG A   1      -7.482   4.010 128.317  0.00  0.00    +0.005 C 
ATOM     17  C   LIG A   1      -7.653   3.554 126.875  0.00  0.00    +0.005 C 
ATOM     18  C   LIG A   1      -6.471   2.802 126.270  0.00  0.00    +0.001 C 
ATOM     19  C   LIG A   1      -8.382   3.885 130.976  0.00  0.00    +0.012 C 
ATOM     20  C   LIG A   1      -5.205   4.227 134.043  0.00  0.00    +0.014 C 
ATOM     21  C   LIG A   1      -4.804   1.382 129.180  0.00  0.00    +0.012 C 
ATOM     22  C   LIG A   1      -4.524   4.323 126.689  0.00  0.00    +0.012 C 
ENDROOT
BRANCH   1  26
ATOM     23  C   LIG A   1      -8.095  -1.393 125.203  0.00  0.00    +0.150 C 
ATOM     24  C   LIG A   1      -9.216  -0.482 125.705  0.00  0.00    +0.037 C 
ATOM     25  C   LIG A   1      -8.990   0.795 124.932  0.00  0.00    +0.037 C 
ATOM     26  C   LIG A   1      -7.469   0.838 124.770  0.00  0.00    +0.070 C 
ATOM     27  C   LIG A   1      -7.118   1.641 123.510  0.00  0.00    +0.042 C 
ATOM     28  O   LIG A   1      -7.142  -0.550 124.510  0.00  0.00    -0.367 OA
BRANCH  23  30
ATOM     29  C   LIG A   1      -7.687  -3.803 124.545  0.00  0.00    +0.043 C 
ATOM     30  C   LIG A   1      -8.564  -2.568 124.305  0.00  0.00    +0.086 C 
ATOM     31  C   LIG A   1      -8.554  -2.221 122.813  0.00  0.00    +0.043 C 
BRANCH  30  32
ATOM     32  O   LIG A   1      -9.911  -2.908 124.673  0.00  0.00    -0.387 OA
ATOM     33  H   LIG A   1     -10.338  -3.308 123.895  0.00  0.00    +0.210 HD
ENDBRANCH  30  32
ENDBRANCH  23  30
ENDBRANCH   1  26
BRANCH  11  34
ATOM     34  O   LIG A   1      -7.981   3.620 134.137  0.00  0.00    -0.391 OA
ATOM     35  H   LIG A   1      -7.766   4.428 133.643  0.00  0.00    +0.210 HD
ENDBRANCH  11  34
TORSDOF 4
ENDMDL
MODEL 7
REMARK VINA RESULT:      -8.1      2.818      3.872
REMARK  Name = NuBBE_1047
REMARK  12 active torsions:
REMARK  status: ('A' for Active; 'I' for Inactive)
REMARK    1  A    between atoms: C_1  and  C_2
REMARK    2  A    between atoms: C_2  and  O_3
REMARK    3  A    between atoms: C_2  and  C_4
REMARK    4  A    between atoms: C_2  and  C_39
REMARK    5  A    between atoms: C_8  and  C_9
REMARK    6  A    between atoms: C_8  and  C_37
REMARK    7  A    between atoms: C_13  and  C_36
REMARK    8  A    between atoms: C_14  and  C_35
REMARK    9  A    between atoms: C_18  and  C_19
REMARK   10  A    between atoms: C_18  and  C_33
REMARK   11  A    between atoms: C_20  and  O_32
REMARK   12  A    between atoms: C_24  and  C_31
REMARK                            x       y       z     vdW  Elec       q    Type
REMARK                         _______ _______ _______ _____ _____    ______ ____
ROOT
ATOM      1  C   LIG A   1      -5.093   0.312 130.274  0.00  0.00    +0.024 C 
ATOM      2  C   LIG A   1      -4.206  -0.956 130.256  0.00  0.00    +0.007 C 
ATOM      3  C   LIG A   1      -5.148  -2.141 130.450  0.00  0.00    +0.008 C 
ATOM      4  C   LIG A   1      -6.553  -1.680 129.981  0.00  0.00    -0.023 C 
ATOM      5  C   LIG A   1      -6.826  -1.793 128.356  0.00  0.00    -0.023 C 
ATOM      6  C   LIG A   1      -7.845  -2.927 128.068  0.00  0.00    +0.008 C 
ATOM      7  C   LIG A   1      -8.104  -3.185 126.598  0.00  0.00    +0.005 C 
ATOM      8  C   LIG A   1      -8.533  -1.967 125.750  0.00  0.00    +0.003 C 
ATOM      9  C   LIG A   1      -8.342  -2.295 124.186  0.00  0.00    -0.006 C 
ATOM     10  C   LIG A   1      -7.030  -3.064 123.856  0.00  0.00    +0.014 C 
ATOM     11  C   LIG A   1      -8.325  -1.020 123.302  0.00  0.00    +0.120 C 
ATOM     12  C   LIG A   1      -7.355   0.064 123.786  0.00  0.00    +0.032 C 
ATOM     13  C   LIG A   1      -6.922  -0.037 125.255  0.00  0.00    +0.010 C 
ATOM     14  C   LIG A   1      -8.013  -0.549 126.238  0.00  0.00    -0.025 C 
ATOM     15  C   LIG A   1      -7.439  -0.473 127.753  0.00  0.00    +0.002 C 
ATOM     16  C   LIG A   1      -8.416   0.115 128.799  0.00  0.00    +0.005 C 
ATOM     17  C   LIG A   1      -7.671   0.648 130.014  0.00  0.00    +0.005 C 
ATOM     18  C   LIG A   1      -6.528  -0.222 130.530  0.00  0.00    +0.001 C 
ATOM     19  C   LIG A   1      -9.179   0.488 126.121  0.00  0.00    +0.012 C 
ATOM     20  C   LIG A   1      -9.496  -3.229 123.732  0.00  0.00    +0.014 C 
ATOM     21  C   LIG A   1      -5.519  -2.111 127.584  0.00  0.00    +0.012 C 
ATOM     22  C   LIG A   1      -7.588  -2.474 130.827  0.00  0.00    +0.012 C 
ENDROOT
BRANCH   1  26
ATOM     23  C   LIG A   1      -4.488   3.380 129.958  0.00  0.00    +0.150 C 
ATOM     24  C   LIG A   1      -5.857   3.308 130.636  0.00  0.00    +0.037 C 
ATOM     25  C   LIG A   1      -5.613   2.377 131.799  0.00  0.00    +0.037 C 
ATOM     26  C   LIG A   1      -4.555   1.414 131.257  0.00  0.00    +0.070 C 
ATOM     27  C   LIG A   1      -3.731   0.859 132.427  0.00  0.00    +0.042 C 
ATOM     28  O   LIG A   1      -3.692   2.294 130.492  0.00  0.00    -0.367 OA
BRANCH  23  30
ATOM     29  C   LIG A   1      -2.810   4.705 131.313  0.00  0.00    +0.043 C 
ATOM     30  C   LIG A   1      -3.758   4.740 130.108  0.00  0.00    +0.086 C 
ATOM     31  C   LIG A   1      -4.722   5.922 130.257  0.00  0.00    +0.043 C 
BRANCH  30  32
ATOM     32  O   LIG A   1      -2.964   4.960 128.931  0.00  0.00    -0.387 OA
ATOM     33  H   LIG A   1      -3.452   5.575 128.356  0.00  0.00    +0.210 HD
ENDBRANCH  30  32
ENDBRANCH  23  30
ENDBRANCH   1  26
BRANCH  11  34
ATOM     34  O   LIG A   1      -9.622  -0.460 123.099  0.00  0.00    -0.391 OA
ATOM     35  H   LIG A   1     -10.296  -1.119 123.334  0.00  0.00    +0.210 HD
ENDBRANCH  11  34
TORSDOF 4
ENDMDL
MODEL 8
REMARK VINA RESULT:      -8.1      2.745      4.091
REMARK  Name = NuBBE_1047
REMARK  12 active torsions:
REMARK  status: ('A' for Active; 'I' for Inactive)
REMARK    1  A    between atoms: C_1  and  C_2
REMARK    2  A    between atoms: C_2  and  O_3
REMARK    3  A    between atoms: C_2  and  C_4
REMARK    4  A    between atoms: C_2  and  C_39
REMARK    5  A    between atoms: C_8  and  C_9
REMARK    6  A    between atoms: C_8  and  C_37
REMARK    7  A    between atoms: C_13  and  C_36
REMARK    8  A    between atoms: C_14  and  C_35
REMARK    9  A    between atoms: C_18  and  C_19
REMARK   10  A    between atoms: C_18  and  C_33
REMARK   11  A    between atoms: C_20  and  O_32
REMARK   12  A    between atoms: C_24  and  C_31
REMARK                            x       y       z     vdW  Elec       q    Type
REMARK                         _______ _______ _______ _____ _____    ______ ____
ROOT
ATOM      1  C   LIG A   1      -7.455   4.296 130.545  0.00  0.00    +0.024 C 
ATOM      2  C   LIG A   1      -6.645   4.636 129.271  0.00  0.00    +0.007 C 
ATOM      3  C   LIG A   1      -5.186   4.322 129.593  0.00  0.00    +0.008 C 
ATOM      4  C   LIG A   1      -5.195   3.276 130.739  0.00  0.00    -0.023 C 
ATOM      5  C   LIG A   1      -5.376   1.707 130.260  0.00  0.00    -0.023 C 
ATOM      6  C   LIG A   1      -4.049   0.931 130.474  0.00  0.00    +0.008 C 
ATOM      7  C   LIG A   1      -4.068  -0.501 129.982  0.00  0.00    +0.005 C 
ATOM      8  C   LIG A   1      -5.205  -1.398 130.519  0.00  0.00    +0.003 C 
ATOM      9  C   LIG A   1      -5.349  -2.709 129.596  0.00  0.00    -0.006 C 
ATOM     10  C   LIG A   1      -5.218  -2.428 128.072  0.00  0.00    +0.014 C 
ATOM     11  C   LIG A   1      -6.710  -3.430 129.783  0.00  0.00    +0.120 C 
ATOM     12  C   LIG A   1      -7.929  -2.506 129.666  0.00  0.00    +0.032 C 
ATOM     13  C   LIG A   1      -7.651  -1.009 129.861  0.00  0.00    +0.010 C 
ATOM     14  C   LIG A   1      -6.558  -0.665 130.912  0.00  0.00    -0.025 C 
ATOM     15  C   LIG A   1      -6.479   0.945 131.088  0.00  0.00    +0.002 C 
ATOM     16  C   LIG A   1      -6.402   1.445 132.550  0.00  0.00    +0.005 C 
ATOM     17  C   LIG A   1      -6.870   2.888 132.667  0.00  0.00    +0.005 C 
ATOM     18  C   LIG A   1      -6.386   3.837 131.573  0.00  0.00    +0.001 C 
ATOM     19  C   LIG A   1      -7.088  -1.263 132.256  0.00  0.00    +0.012 C 
ATOM     20  C   LIG A   1      -4.192  -3.685 129.939  0.00  0.00    +0.014 C 
ATOM     21  C   LIG A   1      -5.753   1.614 128.759  0.00  0.00    +0.012 C 
ATOM     22  C   LIG A   1      -3.900   3.513 131.568  0.00  0.00    +0.012 C 
ENDROOT
BRANCH   1  26
ATOM     23  C   LIG A   1      -9.995   5.611 129.243  0.00  0.00    +0.150 C 
ATOM     24  C   LIG A   1     -10.539   4.643 130.295  0.00  0.00    +0.037 C 
ATOM     25  C   LIG A   1      -9.768   5.022 131.537  0.00  0.00    +0.037 C 
ATOM     26  C   LIG A   1      -8.413   5.463 130.984  0.00  0.00    +0.070 C 
ATOM     27  C   LIG A   1      -7.773   6.464 131.956  0.00  0.00    +0.042 C 
ATOM     28  O   LIG A   1      -8.784   6.192 129.786  0.00  0.00    -0.367 OA
BRANCH  23  30
ATOM     29  C   LIG A   1     -10.434   8.101 129.114  0.00  0.00    +0.043 C 
ATOM     30  C   LIG A   1     -10.994   6.710 128.792  0.00  0.00    +0.086 C 
ATOM     31  C   LIG A   1     -12.377   6.559 129.434  0.00  0.00    +0.043 C 
BRANCH  30  32
ATOM     32  O   LIG A   1     -11.153   6.619 127.368  0.00  0.00    -0.387 OA
ATOM     33  H   LIG A   1     -10.803   5.756 127.085  0.00  0.00    +0.210 HD
ENDBRANCH  30  32
ENDBRANCH  23  30
ENDBRANCH   1  26
BRANCH  11  34
ATOM     34  O   LIG A   1      -6.785  -4.185 130.992  0.00  0.00    -0.391 OA
ATOM     35  H   LIG A   1      -6.935  -5.121 130.776  0.00  0.00    +0.210 HD
ENDBRANCH  11  34
TORSDOF 4
ENDMDL
MODEL 9
REMARK VINA RESULT:      -8.1      1.512      7.899
REMARK  Name = NuBBE_1047
REMARK  12 active torsions:
REMARK  status: ('A' for Active; 'I' for Inactive)
REMARK    1  A    between atoms: C_1  and  C_2
REMARK    2  A    between atoms: C_2  and  O_3
REMARK    3  A    between atoms: C_2  and  C_4
REMARK    4  A    between atoms: C_2  and  C_39
REMARK    5  A    between atoms: C_8  and  C_9
REMARK    6  A    between atoms: C_8  and  C_37
REMARK    7  A    between atoms: C_13  and  C_36
REMARK    8  A    between atoms: C_14  and  C_35
REMARK    9  A    between atoms: C_18  and  C_19
REMARK   10  A    between atoms: C_18  and  C_33
REMARK   11  A    between atoms: C_20  and  O_32
REMARK   12  A    between atoms: C_24  and  C_31
REMARK                            x       y       z     vdW  Elec       q    Type
REMARK                         _______ _______ _______ _____ _____    ______ ____
ROOT
ATOM      1  C   LIG A   1      -6.644  -1.130 127.146  0.00  0.00    +0.024 C 
ATOM      2  C   LIG A   1      -7.167  -2.272 128.050  0.00  0.00    +0.007 C 
ATOM      3  C   LIG A   1      -6.291  -2.264 129.301  0.00  0.00    +0.008 C 
ATOM      4  C   LIG A   1      -5.706  -0.834 129.430  0.00  0.00    -0.023 C 
ATOM      5  C   LIG A   1      -6.689   0.265 130.173  0.00  0.00    -0.023 C 
ATOM      6  C   LIG A   1      -6.114   0.634 131.567  0.00  0.00    +0.008 C 
ATOM      7  C   LIG A   1      -6.984   1.569 132.381  0.00  0.00    +0.005 C 
ATOM      8  C   LIG A   1      -7.398   2.892 131.701  0.00  0.00    +0.003 C 
ATOM      9  C   LIG A   1      -8.639   3.547 132.489  0.00  0.00    -0.006 C 
ATOM     10  C   LIG A   1      -9.717   2.520 132.940  0.00  0.00    +0.014 C 
ATOM     11  C   LIG A   1      -9.389   4.615 131.650  0.00  0.00    +0.120 C 
ATOM     12  C   LIG A   1      -9.784   4.143 130.246  0.00  0.00    +0.032 C 
ATOM     13  C   LIG A   1      -9.007   2.934 129.706  0.00  0.00    +0.010 C 
ATOM     14  C   LIG A   1      -7.508   2.868 130.117  0.00  0.00    -0.025 C 
ATOM     15  C   LIG A   1      -6.807   1.613 129.365  0.00  0.00    +0.002 C 
ATOM     16  C   LIG A   1      -5.425   1.911 128.737  0.00  0.00    +0.005 C 
ATOM     17  C   LIG A   1      -5.094   0.917 127.632  0.00  0.00    +0.005 C 
ATOM     18  C   LIG A   1      -5.435  -0.542 127.924  0.00  0.00    +0.001 C 
ATOM     19  C   LIG A   1      -6.874   4.178 129.544  0.00  0.00    +0.012 C 
ATOM     20  C   LIG A   1      -8.108   4.193 133.798  0.00  0.00    +0.014 C 
ATOM     21  C   LIG A   1      -8.119  -0.300 130.374  0.00  0.00    +0.012 C 
ATOM     22  C   LIG A   1      -4.323  -0.980 130.127  0.00  0.00    +0.012 C 
ENDROOT
BRANCH   1  26
ATOM     23  C   LIG A   1      -8.471  -1.370 124.601  0.00  0.00    +0.150 C 
ATOM     24  C   LIG A   1      -7.704  -0.060 124.421  0.00  0.00    +0.037 C 
ATOM     25  C   LIG A   1      -6.268  -0.473 124.638  0.00  0.00    +0.037 C 
ATOM     26  C   LIG A   1      -6.382  -1.598 125.668  0.00  0.00    +0.070 C 
ATOM     27  C   LIG A   1      -5.184  -2.546 125.516  0.00  0.00    +0.042 C 
ATOM     28  O   LIG A   1      -7.564  -2.312 125.225  0.00  0.00    -0.367 OA
BRANCH  23  30
ATOM     29  C   LIG A   1      -9.692  -3.332 123.566  0.00  0.00    +0.043 C 
ATOM     30  C   LIG A   1      -9.078  -1.952 123.297  0.00  0.00    +0.086 C 
ATOM     31  C   LIG A   1      -8.057  -2.065 122.161  0.00  0.00    +0.043 C 
BRANCH  30  32
ATOM     32  O   LIG A   1     -10.133  -1.080 122.861  0.00  0.00    -0.387 OA
ATOM     33  H   LIG A   1     -10.894  -1.218 123.451  0.00  0.00    +0.210 HD
ENDBRANCH  30  32
ENDBRANCH  23  30
ENDBRANCH   1  26
BRANCH  11  34
ATOM     34  O   LIG A   1      -8.692   5.858 131.569  0.00  0.00    -0.391 OA
ATOM     35  H   LIG A   1      -8.282   6.052 132.428  0.00  0.00    +0.210 HD
ENDBRANCH  11  34
TORSDOF 4
ENDMDL
