MODEL 1
REMARK VINA RESULT:      -8.2      0.000      0.000
REMARK  Name = NuBBE_833
REMARK  10 active torsions:
REMARK  status: ('A' for Active; 'I' for Inactive)
REMARK    1  A    between atoms: C_3  and  C_4
REMARK    2  A    between atoms: C_3  and  O_5
REMARK    3  A    between atoms: C_6  and  O_8
REMARK    4  A    between atoms: C_12  and  C_13
REMARK    5  A    between atoms: C_16  and  C_17
REMARK    6  A    between atoms: C_17  and  C_18
REMARK    7  A    between atoms: C_20  and  C_21
REMARK    8  A    between atoms: C_20  and  O_22
REMARK    9  A    between atoms: C_23  and  O_25
REMARK   10  A    between atoms: C_31  and  C_32
REMARK                            x       y       z     vdW  Elec       q    Type
REMARK                         _______ _______ _______ _____ _____    ______ ____
ROOT
ATOM      1  C   LIG A   1      -6.113   7.232 130.994  0.00  0.00    +0.078 C 
ENDROOT
BRANCH   1  14
ATOM      2  O   LIG A   1      -8.769   7.123 130.249  0.00  0.00    -0.289 OA
ATOM      3  C   LIG A   1      -8.504   6.406 131.222  0.00  0.00    +0.194 C 
ATOM      4  C   LIG A   1      -9.627   5.659 131.950  0.00  0.00    +0.155 C 
ATOM      5  C   LIG A   1     -10.724   5.266 130.954  0.00  0.00    +0.053 C 
ATOM      6  C   LIG A   1      -9.056   4.422 132.650  0.00  0.00    +0.187 C 
ATOM      7  C   LIG A   1      -7.843   4.755 133.462  0.00  0.00    +0.026 C 
ATOM      8  C   LIG A   1      -7.585   4.147 134.633  0.00  0.00    +0.202 C 
ATOM      9  O   LIG A   1      -6.431   4.324 135.363  0.00  0.00    -0.468 OA
ATOM     10  C   LIG A   1      -5.428   5.122 134.824  0.00  0.00    +0.102 C 
ATOM     11  C   LIG A   1      -4.172   5.132 135.636  0.00  0.00    +0.086 C 
ATOM     12  C   LIG A   1      -5.586   5.798 133.666  0.00  0.00    +0.050 C 
ATOM     13  C   LIG A   1      -6.855   5.701 132.927  0.00  0.00    -0.006 C 
ATOM     14  C   LIG A   1      -7.103   6.390 131.784  0.00  0.00    +0.010 C 
BRANCH   4  15
ATOM     15  O   LIG A   1     -10.224   6.537 132.918  0.00  0.00    -0.378 OA
ATOM     16  H   LIG A   1     -10.225   7.431 132.525  0.00  0.00    +0.211 HD
ENDBRANCH   4  15
BRANCH   6  17
ATOM     17  O   LIG A   1      -8.664   3.414 131.712  0.00  0.00    -0.384 OA
ATOM     18  H   LIG A   1      -8.010   2.843 132.149  0.00  0.00    +0.210 HD
ENDBRANCH   6  17
ENDBRANCH   1  14
BRANCH   1  19
ATOM     19  C   LIG A   1      -4.816   6.518 130.609  0.00  0.00    +0.010 C 
ATOM     20  C   LIG A   1      -4.990   5.372 129.645  0.00  0.00    +0.194 C 
ATOM     21  C   LIG A   1      -3.837   4.383 129.434  0.00  0.00    +0.155 C 
ATOM     22  C   LIG A   1      -4.029   3.590 128.127  0.00  0.00    +0.053 C 
ATOM     23  C   LIG A   1      -2.514   5.164 129.393  0.00  0.00    +0.187 C 
ATOM     24  O   LIG A   1      -6.079   5.203 129.082  0.00  0.00    -0.289 OA
ATOM     25  C   LIG A   1      -3.565   6.822 131.042  0.00  0.00    -0.006 C 
ATOM     26  C   LIG A   1      -2.384   6.103 130.552  0.00  0.00    +0.026 C 
ATOM     27  C   LIG A   1      -1.203   6.338 131.155  0.00  0.00    +0.202 C 
ATOM     28  O   LIG A   1      -1.016   7.259 132.164  0.00  0.00    -0.468 OA
ATOM     29  C   LIG A   1      -2.080   8.092 132.493  0.00  0.00    +0.102 C 
ATOM     30  C   LIG A   1      -1.730   9.208 133.421  0.00  0.00    +0.086 C 
ATOM     31  C   LIG A   1      -3.312   7.917 131.978  0.00  0.00    +0.050 C 
BRANCH  21  32
ATOM     32  O   LIG A   1      -3.787   3.413 130.492  0.00  0.00    -0.378 OA
ATOM     33  H   LIG A   1      -2.916   3.511 130.922  0.00  0.00    +0.211 HD
ENDBRANCH  21  32
BRANCH  23  34
ATOM     34  O   LIG A   1      -2.398   5.953 128.202  0.00  0.00    -0.384 OA
ATOM     35  H   LIG A   1      -2.453   5.347 127.444  0.00  0.00    +0.210 HD
ENDBRANCH  23  34
ENDBRANCH   1  19
TORSDOF 6
ENDMDL
MODEL 2
REMARK VINA RESULT:      -8.1      6.967     10.214
REMARK  Name = NuBBE_833
REMARK  10 active torsions:
REMARK  status: ('A' for Active; 'I' for Inactive)
REMARK    1  A    between atoms: C_3  and  C_4
REMARK    2  A    between atoms: C_3  and  O_5
REMARK    3  A    between atoms: C_6  and  O_8
REMARK    4  A    between atoms: C_12  and  C_13
REMARK    5  A    between atoms: C_16  and  C_17
REMARK    6  A    between atoms: C_17  and  C_18
REMARK    7  A    between atoms: C_20  and  C_21
REMARK    8  A    between atoms: C_20  and  O_22
REMARK    9  A    between atoms: C_23  and  O_25
REMARK   10  A    between atoms: C_31  and  C_32
REMARK                            x       y       z     vdW  Elec       q    Type
REMARK                         _______ _______ _______ _____ _____    ______ ____
ROOT
ATOM      1  C   LIG A   1      -8.680  -2.085 126.713  0.00  0.00    +0.078 C 
ENDROOT
BRANCH   1  14
ATOM      2  O   LIG A   1      -8.236  -4.056 128.594  0.00  0.00    -0.289 OA
ATOM      3  C   LIG A   1      -7.488  -3.078 128.723  0.00  0.00    +0.194 C 
ATOM      4  C   LIG A   1      -6.524  -3.005 129.912  0.00  0.00    +0.155 C 
ATOM      5  C   LIG A   1      -6.055  -4.414 130.291  0.00  0.00    +0.053 C 
ATOM      6  C   LIG A   1      -5.333  -2.109 129.557  0.00  0.00    +0.187 C 
ATOM      7  C   LIG A   1      -5.776  -0.801 128.979  0.00  0.00    +0.026 C 
ATOM      8  C   LIG A   1      -5.119   0.344 129.231  0.00  0.00    +0.202 C 
ATOM      9  O   LIG A   1      -5.407   1.552 128.637  0.00  0.00    -0.468 OA
ATOM     10  C   LIG A   1      -6.389   1.583 127.652  0.00  0.00    +0.102 C 
ATOM     11  C   LIG A   1      -6.519   2.914 126.982  0.00  0.00    +0.086 C 
ATOM     12  C   LIG A   1      -7.126   0.499 127.333  0.00  0.00    +0.050 C 
ATOM     13  C   LIG A   1      -6.901  -0.775 128.035  0.00  0.00    -0.006 C 
ATOM     14  C   LIG A   1      -7.637  -1.891 127.802  0.00  0.00    +0.010 C 
BRANCH   4  15
ATOM     15  O   LIG A   1      -7.219  -2.467 131.049  0.00  0.00    -0.378 OA
ATOM     16  H   LIG A   1      -6.582  -1.903 131.528  0.00  0.00    +0.211 HD
ENDBRANCH   4  15
BRANCH   6  17
ATOM     17  O   LIG A   1      -4.477  -2.723 128.589  0.00  0.00    -0.384 OA
ATOM     18  H   LIG A   1      -3.935  -2.022 128.189  0.00  0.00    +0.210 HD
ENDBRANCH   6  17
ENDBRANCH   1  14
BRANCH   1  19
ATOM     19  C   LIG A   1      -8.348  -1.427 125.372  0.00  0.00    +0.010 C 
ATOM     20  C   LIG A   1      -9.248  -0.277 124.995  0.00  0.00    +0.194 C 
ATOM     21  C   LIG A   1      -9.232   0.252 123.555  0.00  0.00    +0.155 C 
ATOM     22  C   LIG A   1      -9.847   1.663 123.484  0.00  0.00    +0.053 C 
ATOM     23  C   LIG A   1      -7.781   0.278 123.051  0.00  0.00    +0.187 C 
ATOM     24  O   LIG A   1     -10.033   0.188 125.830  0.00  0.00    -0.289 OA
ATOM     25  C   LIG A   1      -7.345  -1.774 124.525  0.00  0.00    -0.006 C 
ATOM     26  C   LIG A   1      -7.084  -1.025 123.291  0.00  0.00    +0.026 C 
ATOM     27  C   LIG A   1      -6.192  -1.532 122.418  0.00  0.00    +0.202 C 
ATOM     28  O   LIG A   1      -5.458  -2.680 122.636  0.00  0.00    -0.468 OA
ATOM     29  C   LIG A   1      -5.544  -3.282 123.887  0.00  0.00    +0.102 C 
ATOM     30  C   LIG A   1      -4.550  -4.372 124.119  0.00  0.00    +0.086 C 
ATOM     31  C   LIG A   1      -6.431  -2.878 124.816  0.00  0.00    +0.050 C 
BRANCH  21  32
ATOM     32  O   LIG A   1     -10.025  -0.578 122.691  0.00  0.00    -0.378 OA
ATOM     33  H   LIG A   1     -10.200  -0.055 121.885  0.00  0.00    +0.211 HD
ENDBRANCH  21  32
BRANCH  23  34
ATOM     34  O   LIG A   1      -7.008   1.291 123.706  0.00  0.00    -0.384 OA
ATOM     35  H   LIG A   1      -7.026   2.083 123.142  0.00  0.00    +0.210 HD
ENDBRANCH  23  34
ENDBRANCH   1  19
TORSDOF 6
ENDMDL
MODEL 3
REMARK VINA RESULT:      -8.0      1.702      6.860
REMARK  Name = NuBBE_833
REMARK  10 active torsions:
REMARK  status: ('A' for Active; 'I' for Inactive)
REMARK    1  A    between atoms: C_3  and  C_4
REMARK    2  A    between atoms: C_3  and  O_5
REMARK    3  A    between atoms: C_6  and  O_8
REMARK    4  A    between atoms: C_12  and  C_13
REMARK    5  A    between atoms: C_16  and  C_17
REMARK    6  A    between atoms: C_17  and  C_18
REMARK    7  A    between atoms: C_20  and  C_21
REMARK    8  A    between atoms: C_20  and  O_22
REMARK    9  A    between atoms: C_23  and  O_25
REMARK   10  A    between atoms: C_31  and  C_32
REMARK                            x       y       z     vdW  Elec       q    Type
REMARK                         _______ _______ _______ _____ _____    ______ ____
ROOT
ATOM      1  C   LIG A   1      -6.098   7.318 130.764  0.00  0.00    +0.078 C 
ENDROOT
BRANCH   1  14
ATOM      2  O   LIG A   1      -3.491   8.022 131.339  0.00  0.00    -0.289 OA
ATOM      3  C   LIG A   1      -3.595   6.894 130.841  0.00  0.00    +0.194 C 
ATOM      4  C   LIG A   1      -2.335   6.090 130.502  0.00  0.00    +0.155 C 
ATOM      5  C   LIG A   1      -1.225   6.410 131.510  0.00  0.00    +0.053 C 
ATOM      6  C   LIG A   1      -2.662   4.593 130.507  0.00  0.00    +0.187 C 
ATOM      7  C   LIG A   1      -3.883   4.290 129.696  0.00  0.00    +0.026 C 
ATOM      8  C   LIG A   1      -3.991   3.163 128.971  0.00  0.00    +0.202 C 
ATOM      9  O   LIG A   1      -5.130   2.774 128.302  0.00  0.00    -0.468 OA
ATOM     10  C   LIG A   1      -6.273   3.554 128.444  0.00  0.00    +0.102 C 
ATOM     11  C   LIG A   1      -7.481   2.964 127.789  0.00  0.00    +0.086 C 
ATOM     12  C   LIG A   1      -6.275   4.716 129.129  0.00  0.00    +0.050 C 
ATOM     13  C   LIG A   1      -5.036   5.197 129.762  0.00  0.00    -0.006 C 
ATOM     14  C   LIG A   1      -4.951   6.379 130.424  0.00  0.00    +0.010 C 
BRANCH   4  15
ATOM     15  O   LIG A   1      -1.861   6.483 129.205  0.00  0.00    -0.378 OA
ATOM     16  H   LIG A   1      -1.118   7.100 129.352  0.00  0.00    +0.211 HD
ENDBRANCH   4  15
BRANCH   6  17
ATOM     17  O   LIG A   1      -2.911   4.107 131.830  0.00  0.00    -0.384 OA
ATOM     18  H   LIG A   1      -2.124   3.612 132.114  0.00  0.00    +0.210 HD
ENDBRANCH   6  17
ENDBRANCH   1  14
BRANCH   1  19
ATOM     19  C   LIG A   1      -7.319   6.648 131.397  0.00  0.00    +0.010 C 
ATOM     20  C   LIG A   1      -7.014   5.789 132.598  0.00  0.00    +0.194 C 
ATOM     21  C   LIG A   1      -8.081   4.818 133.120  0.00  0.00    +0.155 C 
ATOM     22  C   LIG A   1      -7.766   4.386 134.565  0.00  0.00    +0.053 C 
ATOM     23  C   LIG A   1      -9.453   5.507 133.058  0.00  0.00    +0.187 C 
ATOM     24  O   LIG A   1      -5.889   5.827 133.111  0.00  0.00    -0.289 OA
ATOM     25  C   LIG A   1      -8.609   6.763 130.988  0.00  0.00    -0.006 C 
ATOM     26  C   LIG A   1      -9.708   6.121 131.717  0.00  0.00    +0.026 C 
ATOM     27  C   LIG A   1     -10.932   6.130 131.154  0.00  0.00    +0.202 C 
ATOM     28  O   LIG A   1     -11.237   6.761 129.966  0.00  0.00    -0.468 OA
ATOM     29  C   LIG A   1     -10.253   7.546 129.374  0.00  0.00    +0.102 C 
ATOM     30  C   LIG A   1     -10.730   8.375 128.227  0.00  0.00    +0.086 C 
ATOM     31  C   LIG A   1      -8.987   7.575 129.833  0.00  0.00    +0.050 C 
BRANCH  21  32
ATOM     32  O   LIG A   1      -8.113   3.615 132.337  0.00  0.00    -0.378 OA
ATOM     33  H   LIG A   1      -7.230   3.206 132.415  0.00  0.00    +0.211 HD
ENDBRANCH  21  32
BRANCH  23  34
ATOM     34  O   LIG A   1      -9.564   6.558 134.026  0.00  0.00    -0.384 OA
ATOM     35  H   LIG A   1     -10.191   7.213 133.674  0.00  0.00    +0.210 HD
ENDBRANCH  23  34
ENDBRANCH   1  19
TORSDOF 6
ENDMDL
MODEL 4
REMARK VINA RESULT:      -7.9      5.994      8.734
REMARK  Name = NuBBE_833
REMARK  10 active torsions:
REMARK  status: ('A' for Active; 'I' for Inactive)
REMARK    1  A    between atoms: C_3  and  C_4
REMARK    2  A    between atoms: C_3  and  O_5
REMARK    3  A    between atoms: C_6  and  O_8
REMARK    4  A    between atoms: C_12  and  C_13
REMARK    5  A    between atoms: C_16  and  C_17
REMARK    6  A    between atoms: C_17  and  C_18
REMARK    7  A    between atoms: C_20  and  C_21
REMARK    8  A    between atoms: C_20  and  O_22
REMARK    9  A    between atoms: C_23  and  O_25
REMARK   10  A    between atoms: C_31  and  C_32
REMARK                            x       y       z     vdW  Elec       q    Type
REMARK                         _______ _______ _______ _____ _____    ______ ____
ROOT
ATOM      1  C   LIG A   1      -8.440   1.543 127.497  0.00  0.00    +0.078 C 
ENDROOT
BRANCH   1  14
ATOM      2  O   LIG A   1      -9.114   3.041 125.279  0.00  0.00    -0.289 OA
ATOM      3  C   LIG A   1      -9.024   1.830 125.042  0.00  0.00    +0.194 C 
ATOM      4  C   LIG A   1      -9.387   1.293 123.653  0.00  0.00    +0.155 C 
ATOM      5  C   LIG A   1      -9.039   2.336 122.584  0.00  0.00    +0.053 C 
ATOM      6  C   LIG A   1      -8.644  -0.021 123.397  0.00  0.00    +0.187 C 
ATOM      7  C   LIG A   1      -8.797  -0.976 124.540  0.00  0.00    +0.026 C 
ATOM      8  C   LIG A   1      -8.898  -2.303 124.346  0.00  0.00    +0.202 C 
ATOM      9  O   LIG A   1      -8.922  -3.236 125.358  0.00  0.00    -0.468 OA
ATOM     10  C   LIG A   1      -8.753  -2.793 126.665  0.00  0.00    +0.102 C 
ATOM     11  C   LIG A   1      -8.658  -3.903 127.663  0.00  0.00    +0.086 C 
ATOM     12  C   LIG A   1      -8.664  -1.483 126.978  0.00  0.00    +0.050 C 
ATOM     13  C   LIG A   1      -8.743  -0.468 125.917  0.00  0.00    -0.006 C 
ATOM     14  C   LIG A   1      -8.711   0.867 126.162  0.00  0.00    +0.010 C 
BRANCH   4  15
ATOM     15  O   LIG A   1     -10.805   1.075 123.589  0.00  0.00    -0.378 OA
ATOM     16  H   LIG A   1     -10.959   0.147 123.854  0.00  0.00    +0.211 HD
ENDBRANCH   4  15
BRANCH   6  17
ATOM     17  O   LIG A   1      -7.240   0.188 123.216  0.00  0.00    -0.384 OA
ATOM     18  H   LIG A   1      -6.776  -0.303 123.915  0.00  0.00    +0.210 HD
ENDBRANCH   6  17
ENDBRANCH   1  14
BRANCH   1  19
ATOM     19  C   LIG A   1      -6.986   1.488 127.969  0.00  0.00    +0.010 C 
ATOM     20  C   LIG A   1      -6.087   2.535 127.361  0.00  0.00    +0.194 C 
ATOM     21  C   LIG A   1      -4.566   2.392 127.496  0.00  0.00    +0.155 C 
ATOM     22  C   LIG A   1      -3.864   3.737 127.226  0.00  0.00    +0.053 C 
ATOM     23  C   LIG A   1      -4.236   1.894 128.911  0.00  0.00    +0.187 C 
ATOM     24  O   LIG A   1      -6.579   3.463 126.708  0.00  0.00    -0.289 OA
ATOM     25  C   LIG A   1      -6.456   0.612 128.861  0.00  0.00    -0.006 C 
ATOM     26  C   LIG A   1      -5.055   0.698 129.287  0.00  0.00    +0.026 C 
ATOM     27  C   LIG A   1      -4.556  -0.307 130.033  0.00  0.00    +0.202 C 
ATOM     28  O   LIG A   1      -5.294  -1.383 130.481  0.00  0.00    -0.468 OA
ATOM     29  C   LIG A   1      -6.667  -1.369 130.260  0.00  0.00    +0.102 C 
ATOM     30  C   LIG A   1      -7.420  -2.443 130.973  0.00  0.00    +0.086 C 
ATOM     31  C   LIG A   1      -7.260  -0.433 129.494  0.00  0.00    +0.050 C 
BRANCH  21  32
ATOM     32  O   LIG A   1      -4.046   1.464 126.529  0.00  0.00    -0.378 OA
ATOM     33  H   LIG A   1      -3.135   1.251 126.807  0.00  0.00    +0.211 HD
ENDBRANCH  21  32
BRANCH  23  34
ATOM     34  O   LIG A   1      -4.489   2.899 129.901  0.00  0.00    -0.384 OA
ATOM     35  H   LIG A   1      -5.378   2.739 130.259  0.00  0.00    +0.210 HD
ENDBRANCH  23  34
ENDBRANCH   1  19
TORSDOF 6
ENDMDL
MODEL 5
REMARK VINA RESULT:      -7.9      5.925      8.913
REMARK  Name = NuBBE_833
REMARK  10 active torsions:
REMARK  status: ('A' for Active; 'I' for Inactive)
REMARK    1  A    between atoms: C_3  and  C_4
REMARK    2  A    between atoms: C_3  and  O_5
REMARK    3  A    between atoms: C_6  and  O_8
REMARK    4  A    between atoms: C_12  and  C_13
REMARK    5  A    between atoms: C_16  and  C_17
REMARK    6  A    between atoms: C_17  and  C_18
REMARK    7  A    between atoms: C_20  and  C_21
REMARK    8  A    between atoms: C_20  and  O_22
REMARK    9  A    between atoms: C_23  and  O_25
REMARK   10  A    between atoms: C_31  and  C_32
REMARK                            x       y       z     vdW  Elec       q    Type
REMARK                         _______ _______ _______ _____ _____    ______ ____
ROOT
ATOM      1  C   LIG A   1      -5.822   0.237 126.903  0.00  0.00    +0.078 C 
ENDROOT
BRANCH   1  14
ATOM      2  O   LIG A   1      -4.971   2.455 125.498  0.00  0.00    -0.289 OA
ATOM      3  C   LIG A   1      -5.843   2.712 126.337  0.00  0.00    +0.194 C 
ATOM      4  C   LIG A   1      -6.260   4.166 126.585  0.00  0.00    +0.155 C 
ATOM      5  C   LIG A   1      -6.155   4.968 125.282  0.00  0.00    +0.053 C 
ATOM      6  C   LIG A   1      -7.688   4.207 127.138  0.00  0.00    +0.187 C 
ATOM      7  C   LIG A   1      -7.866   3.260 128.283  0.00  0.00    +0.026 C 
ATOM      8  C   LIG A   1      -8.655   3.554 129.331  0.00  0.00    +0.202 C 
ATOM      9  O   LIG A   1      -8.950   2.680 130.352  0.00  0.00    -0.468 OA
ATOM     10  C   LIG A   1      -8.467   1.379 130.263  0.00  0.00    +0.102 C 
ATOM     11  C   LIG A   1      -8.962   0.483 131.354  0.00  0.00    +0.086 C 
ATOM     12  C   LIG A   1      -7.648   0.978 129.268  0.00  0.00    +0.050 C 
ATOM     13  C   LIG A   1      -7.239   1.933 128.225  0.00  0.00    -0.006 C 
ATOM     14  C   LIG A   1      -6.380   1.615 127.224  0.00  0.00    +0.010 C 
BRANCH   4  15
ATOM     15  O   LIG A   1      -5.353   4.762 127.526  0.00  0.00    -0.378 OA
ATOM     16  H   LIG A   1      -5.156   4.080 128.197  0.00  0.00    +0.211 HD
ENDBRANCH   4  15
BRANCH   6  17
ATOM     17  O   LIG A   1      -8.653   3.844 126.145  0.00  0.00    -0.384 OA
ATOM     18  H   LIG A   1      -8.176   3.698 125.311  0.00  0.00    +0.210 HD
ENDBRANCH   6  17
ENDBRANCH   1  14
BRANCH   1  19
ATOM     19  C   LIG A   1      -6.856  -0.787 126.431  0.00  0.00    +0.010 C 
ATOM     20  C   LIG A   1      -7.299  -0.620 125.000  0.00  0.00    +0.194 C 
ATOM     21  C   LIG A   1      -8.548  -1.362 124.506  0.00  0.00    +0.155 C 
ATOM     22  C   LIG A   1      -8.572  -1.428 122.967  0.00  0.00    +0.053 C 
ATOM     23  C   LIG A   1      -8.551  -2.779 125.099  0.00  0.00    +0.187 C 
ATOM     24  O   LIG A   1      -6.693   0.160 124.255  0.00  0.00    -0.289 OA
ATOM     25  C   LIG A   1      -7.385  -1.802 127.163  0.00  0.00    -0.006 C 
ATOM     26  C   LIG A   1      -8.325  -2.765 126.579  0.00  0.00    +0.026 C 
ATOM     27  C   LIG A   1      -8.941  -3.631 127.407  0.00  0.00    +0.202 C 
ATOM     28  O   LIG A   1      -8.697  -3.717 128.762  0.00  0.00    -0.468 OA
ATOM     29  C   LIG A   1      -7.660  -2.955 129.288  0.00  0.00    +0.102 C 
ATOM     30  C   LIG A   1      -7.311  -3.278 130.704  0.00  0.00    +0.086 C 
ATOM     31  C   LIG A   1      -7.008  -2.031 128.557  0.00  0.00    +0.050 C 
BRANCH  21  32
ATOM     32  O   LIG A   1      -9.747  -0.675 124.900  0.00  0.00    -0.378 OA
ATOM     33  H   LIG A   1     -10.196  -1.247 125.551  0.00  0.00    +0.211 HD
ENDBRANCH  21  32
BRANCH  23  34
ATOM     34  O   LIG A   1      -7.523  -3.597 124.528  0.00  0.00    -0.384 OA
ATOM     35  H   LIG A   1      -6.739  -3.520 125.098  0.00  0.00    +0.210 HD
ENDBRANCH  23  34
ENDBRANCH   1  19
TORSDOF 6
ENDMDL
MODEL 6
REMARK VINA RESULT:      -7.7      5.889      8.609
REMARK  Name = NuBBE_833
REMARK  10 active torsions:
REMARK  status: ('A' for Active; 'I' for Inactive)
REMARK    1  A    between atoms: C_3  and  C_4
REMARK    2  A    between atoms: C_3  and  O_5
REMARK    3  A    between atoms: C_6  and  O_8
REMARK    4  A    between atoms: C_12  and  C_13
REMARK    5  A    between atoms: C_16  and  C_17
REMARK    6  A    between atoms: C_17  and  C_18
REMARK    7  A    between atoms: C_20  and  C_21
REMARK    8  A    between atoms: C_20  and  O_22
REMARK    9  A    between atoms: C_23  and  O_25
REMARK   10  A    between atoms: C_31  and  C_32
REMARK                            x       y       z     vdW  Elec       q    Type
REMARK                         _______ _______ _______ _____ _____    ______ ____
ROOT
ATOM      1  C   LIG A   1      -8.737   1.478 127.430  0.00  0.00    +0.078 C 
ENDROOT
BRANCH   1  14
ATOM      2  O   LIG A   1      -9.348   2.912 125.151  0.00  0.00    -0.289 OA
ATOM      3  C   LIG A   1      -9.168   1.706 124.938  0.00  0.00    +0.194 C 
ATOM      4  C   LIG A   1      -9.402   1.136 123.534  0.00  0.00    +0.155 C 
ATOM      5  C   LIG A   1      -9.045   2.188 122.477  0.00  0.00    +0.053 C 
ATOM      6  C   LIG A   1      -8.564  -0.133 123.347  0.00  0.00    +0.187 C 
ATOM      7  C   LIG A   1      -8.736  -1.085 124.489  0.00  0.00    +0.026 C 
ATOM      8  C   LIG A   1      -8.742  -2.417 124.307  0.00  0.00    +0.202 C 
ATOM      9  O   LIG A   1      -8.779  -3.341 125.326  0.00  0.00    -0.468 OA
ATOM     10  C   LIG A   1      -8.727  -2.876 126.636  0.00  0.00    +0.102 C 
ATOM     11  C   LIG A   1      -8.633  -3.969 127.653  0.00  0.00    +0.086 C 
ATOM     12  C   LIG A   1      -8.740  -1.561 126.937  0.00  0.00    +0.050 C 
ATOM     13  C   LIG A   1      -8.807  -0.562 125.859  0.00  0.00    -0.006 C 
ATOM     14  C   LIG A   1      -8.874   0.774 126.088  0.00  0.00    +0.010 C 
BRANCH   4  15
ATOM     15  O   LIG A   1     -10.796   0.829 123.377  0.00  0.00    -0.378 OA
ATOM     16  H   LIG A   1     -11.279   1.675 123.438  0.00  0.00    +0.211 HD
ENDBRANCH   4  15
BRANCH   6  17
ATOM     17  O   LIG A   1      -7.166   0.161 123.258  0.00  0.00    -0.384 OA
ATOM     18  H   LIG A   1      -6.682  -0.676 123.354  0.00  0.00    +0.210 HD
ENDBRANCH   6  17
ENDBRANCH   1  14
BRANCH   1  19
ATOM     19  C   LIG A   1      -7.321   1.503 128.008  0.00  0.00    +0.010 C 
ATOM     20  C   LIG A   1      -7.176   0.828 129.349  0.00  0.00    +0.194 C 
ATOM     21  C   LIG A   1      -5.906   1.061 130.176  0.00  0.00    +0.155 C 
ATOM     22  C   LIG A   1      -5.747  -0.030 131.253  0.00  0.00    +0.053 C 
ATOM     23  C   LIG A   1      -4.692   1.059 129.235  0.00  0.00    +0.187 C 
ATOM     24  O   LIG A   1      -8.106   0.146 129.797  0.00  0.00    -0.289 OA
ATOM     25  C   LIG A   1      -6.221   2.056 127.435  0.00  0.00    -0.006 C 
ATOM     26  C   LIG A   1      -4.897   1.962 128.058  0.00  0.00    +0.026 C 
ATOM     27  C   LIG A   1      -3.892   2.683 127.524  0.00  0.00    +0.202 C 
ATOM     28  O   LIG A   1      -4.009   3.457 126.388  0.00  0.00    -0.468 OA
ATOM     29  C   LIG A   1      -5.199   3.389 125.673  0.00  0.00    +0.102 C 
ATOM     30  C   LIG A   1      -5.162   4.067 124.343  0.00  0.00    +0.086 C 
ATOM     31  C   LIG A   1      -6.278   2.730 126.138  0.00  0.00    +0.050 C 
BRANCH  21  32
ATOM     32  O   LIG A   1      -5.967   2.314 130.876  0.00  0.00    -0.378 OA
ATOM     33  H   LIG A   1      -5.233   2.311 131.520  0.00  0.00    +0.211 HD
ENDBRANCH  21  32
BRANCH  23  34
ATOM     34  O   LIG A   1      -4.424  -0.250 128.714  0.00  0.00    -0.384 OA
ATOM     35  H   LIG A   1      -4.000  -0.138 127.847  0.00  0.00    +0.210 HD
ENDBRANCH  23  34
ENDBRANCH   1  19
TORSDOF 6
ENDMDL
MODEL 7
REMARK VINA RESULT:      -7.7      6.293      9.779
REMARK  Name = NuBBE_833
REMARK  10 active torsions:
REMARK  status: ('A' for Active; 'I' for Inactive)
REMARK    1  A    between atoms: C_3  and  C_4
REMARK    2  A    between atoms: C_3  and  O_5
REMARK    3  A    between atoms: C_6  and  O_8
REMARK    4  A    between atoms: C_12  and  C_13
REMARK    5  A    between atoms: C_16  and  C_17
REMARK    6  A    between atoms: C_17  and  C_18
REMARK    7  A    between atoms: C_20  and  C_21
REMARK    8  A    between atoms: C_20  and  O_22
REMARK    9  A    between atoms: C_23  and  O_25
REMARK   10  A    between atoms: C_31  and  C_32
REMARK                            x       y       z     vdW  Elec       q    Type
REMARK                         _______ _______ _______ _____ _____    ______ ____
ROOT
ATOM      1  C   LIG A   1      -5.598  -0.270 126.224  0.00  0.00    +0.078 C 
ENDROOT
BRANCH   1  14
ATOM      2  O   LIG A   1      -4.921   0.439 128.805  0.00  0.00    -0.289 OA
ATOM      3  C   LIG A   1      -5.566   1.312 128.210  0.00  0.00    +0.194 C 
ATOM      4  C   LIG A   1      -6.002   2.579 128.954  0.00  0.00    +0.155 C 
ATOM      5  C   LIG A   1      -4.955   2.951 130.011  0.00  0.00    +0.053 C 
ATOM      6  C   LIG A   1      -6.198   3.723 127.954  0.00  0.00    +0.187 C 
ATOM      7  C   LIG A   1      -7.049   3.306 126.795  0.00  0.00    +0.026 C 
ATOM      8  C   LIG A   1      -7.918   4.151 126.213  0.00  0.00    +0.202 C 
ATOM      9  O   LIG A   1      -8.638   3.864 125.076  0.00  0.00    -0.468 OA
ATOM     10  C   LIG A   1      -8.400   2.652 124.436  0.00  0.00    +0.102 C 
ATOM     11  C   LIG A   1      -9.134   2.508 123.140  0.00  0.00    +0.086 C 
ATOM     12  C   LIG A   1      -7.566   1.720 124.941  0.00  0.00    +0.050 C 
ATOM     13  C   LIG A   1      -6.868   1.970 126.212  0.00  0.00    -0.006 C 
ATOM     14  C   LIG A   1      -6.055   1.059 126.805  0.00  0.00    +0.010 C 
BRANCH   4  15
ATOM     15  O   LIG A   1      -7.233   2.318 129.647  0.00  0.00    -0.378 OA
ATOM     16  H   LIG A   1      -7.892   2.077 128.968  0.00  0.00    +0.211 HD
ENDBRANCH   4  15
BRANCH   6  17
ATOM     17  O   LIG A   1      -4.953   4.176 127.414  0.00  0.00    -0.384 OA
ATOM     18  H   LIG A   1      -5.143   4.924 126.823  0.00  0.00    +0.210 HD
ENDBRANCH   6  17
ENDBRANCH   1  14
BRANCH   1  19
ATOM     19  C   LIG A   1      -6.718  -1.271 125.936  0.00  0.00    +0.010 C 
ATOM     20  C   LIG A   1      -7.143  -1.342 124.490  0.00  0.00    +0.194 C 
ATOM     21  C   LIG A   1      -8.452  -2.052 124.124  0.00  0.00    +0.155 C 
ATOM     22  C   LIG A   1      -8.479  -2.408 122.625  0.00  0.00    +0.053 C 
ATOM     23  C   LIG A   1      -8.584  -3.324 124.975  0.00  0.00    +0.187 C 
ATOM     24  O   LIG A   1      -6.467  -0.775 123.623  0.00  0.00    -0.289 OA
ATOM     25  C   LIG A   1      -7.337  -2.077 126.837  0.00  0.00    -0.006 C 
ATOM     26  C   LIG A   1      -8.359  -3.047 126.429  0.00  0.00    +0.026 C 
ATOM     27  C   LIG A   1      -9.052  -3.682 127.395  0.00  0.00    +0.202 C 
ATOM     28  O   LIG A   1      -8.819  -3.529 128.746  0.00  0.00    -0.468 OA
ATOM     29  C   LIG A   1      -7.719  -2.774 129.137  0.00  0.00    +0.102 C 
ATOM     30  C   LIG A   1      -7.402  -2.850 130.595  0.00  0.00    +0.086 C 
ATOM     31  C   LIG A   1      -6.985  -2.067 128.256  0.00  0.00    +0.050 C 
BRANCH  21  32
ATOM     32  O   LIG A   1      -9.585  -1.200 124.357  0.00  0.00    -0.378 OA
ATOM     33  H   LIG A   1     -10.338  -1.786 124.566  0.00  0.00    +0.211 HD
ENDBRANCH  21  32
BRANCH  23  34
ATOM     34  O   LIG A   1      -7.631  -4.323 124.590  0.00  0.00    -0.384 OA
ATOM     35  H   LIG A   1      -7.771  -4.511 123.647  0.00  0.00    +0.210 HD
ENDBRANCH  23  34
ENDBRANCH   1  19
TORSDOF 6
ENDMDL
MODEL 8
REMARK VINA RESULT:      -7.7      0.534      5.902
REMARK  Name = NuBBE_833
REMARK  10 active torsions:
REMARK  status: ('A' for Active; 'I' for Inactive)
REMARK    1  A    between atoms: C_3  and  C_4
REMARK    2  A    between atoms: C_3  and  O_5
REMARK    3  A    between atoms: C_6  and  O_8
REMARK    4  A    between atoms: C_12  and  C_13
REMARK    5  A    between atoms: C_16  and  C_17
REMARK    6  A    between atoms: C_17  and  C_18
REMARK    7  A    between atoms: C_20  and  C_21
REMARK    8  A    between atoms: C_20  and  O_22
REMARK    9  A    between atoms: C_23  and  O_25
REMARK   10  A    between atoms: C_31  and  C_32
REMARK                            x       y       z     vdW  Elec       q    Type
REMARK                         _______ _______ _______ _____ _____    ______ ____
ROOT
ATOM      1  C   LIG A   1      -6.092   7.231 131.059  0.00  0.00    +0.078 C 
ENDROOT
BRANCH   1  14
ATOM      2  O   LIG A   1      -6.100   5.256 129.131  0.00  0.00    -0.289 OA
ATOM      3  C   LIG A   1      -4.964   5.553 129.523  0.00  0.00    +0.194 C 
ATOM      4  C   LIG A   1      -3.751   4.765 129.017  0.00  0.00    +0.155 C 
ATOM      5  C   LIG A   1      -3.994   4.299 127.577  0.00  0.00    +0.053 C 
ATOM      6  C   LIG A   1      -2.496   5.638 129.104  0.00  0.00    +0.187 C 
ATOM      7  C   LIG A   1      -2.358   6.279 130.450  0.00  0.00    +0.026 C 
ATOM      8  C   LIG A   1      -1.159   6.464 131.028  0.00  0.00    +0.202 C 
ATOM      9  O   LIG A   1      -0.961   7.151 132.205  0.00  0.00    -0.468 OA
ATOM     10  C   LIG A   1      -2.059   7.762 132.801  0.00  0.00    +0.102 C 
ATOM     11  C   LIG A   1      -1.703   8.592 133.995  0.00  0.00    +0.086 C 
ATOM     12  C   LIG A   1      -3.312   7.625 132.321  0.00  0.00    +0.050 C 
ATOM     13  C   LIG A   1      -3.553   6.807 131.122  0.00  0.00    -0.006 C 
ATOM     14  C   LIG A   1      -4.791   6.583 130.612  0.00  0.00    +0.010 C 
BRANCH   4  15
ATOM     15  O   LIG A   1      -3.586   3.588 129.824  0.00  0.00    -0.378 OA
ATOM     16  H   LIG A   1      -3.973   2.845 129.321  0.00  0.00    +0.211 HD
ENDBRANCH   4  15
BRANCH   6  17
ATOM     17  O   LIG A   1      -2.515   6.695 128.140  0.00  0.00    -0.384 OA
ATOM     18  H   LIG A   1      -2.351   7.528 128.614  0.00  0.00    +0.210 HD
ENDBRANCH   6  17
ENDBRANCH   1  14
BRANCH   1  19
ATOM     19  C   LIG A   1      -7.102   6.281 131.705  0.00  0.00    +0.010 C 
ATOM     20  C   LIG A   1      -8.510   6.407 131.180  0.00  0.00    +0.194 C 
ATOM     21  C   LIG A   1      -9.663   5.755 131.953  0.00  0.00    +0.155 C 
ATOM     22  C   LIG A   1     -10.907   5.604 131.056  0.00  0.00    +0.053 C 
ATOM     23  C   LIG A   1      -9.206   4.380 132.464  0.00  0.00    +0.187 C 
ATOM     24  O   LIG A   1      -8.730   7.084 130.169  0.00  0.00    -0.289 OA
ATOM     25  C   LIG A   1      -6.846   5.362 132.672  0.00  0.00    -0.006 C 
ATOM     26  C   LIG A   1      -7.888   4.458 133.171  0.00  0.00    +0.026 C 
ATOM     27  C   LIG A   1      -7.607   3.700 134.249  0.00  0.00    +0.202 C 
ATOM     28  O   LIG A   1      -6.380   3.669 134.878  0.00  0.00    -0.468 OA
ATOM     29  C   LIG A   1      -5.328   4.362 134.290  0.00  0.00    +0.102 C 
ATOM     30  C   LIG A   1      -3.991   4.089 134.896  0.00  0.00    +0.086 C 
ATOM     31  C   LIG A   1      -5.509   5.179 133.235  0.00  0.00    +0.050 C 
BRANCH  21  32
ATOM     32  O   LIG A   1     -10.065   6.570 133.066  0.00  0.00    -0.378 OA
ATOM     33  H   LIG A   1     -11.032   6.689 132.992  0.00  0.00    +0.211 HD
ENDBRANCH  21  32
BRANCH  23  34
ATOM     34  O   LIG A   1      -9.050   3.440 131.394  0.00  0.00    -0.384 OA
ATOM     35  H   LIG A   1      -8.109   3.430 131.149  0.00  0.00    +0.210 HD
ENDBRANCH  23  34
ENDBRANCH   1  19
TORSDOF 6
ENDMDL
MODEL 9
REMARK VINA RESULT:      -7.6      5.824      9.846
REMARK  Name = NuBBE_833
REMARK  10 active torsions:
REMARK  status: ('A' for Active; 'I' for Inactive)
REMARK    1  A    between atoms: C_3  and  C_4
REMARK    2  A    between atoms: C_3  and  O_5
REMARK    3  A    between atoms: C_6  and  O_8
REMARK    4  A    between atoms: C_12  and  C_13
REMARK    5  A    between atoms: C_16  and  C_17
REMARK    6  A    between atoms: C_17  and  C_18
REMARK    7  A    between atoms: C_20  and  C_21
REMARK    8  A    between atoms: C_20  and  O_22
REMARK    9  A    between atoms: C_23  and  O_25
REMARK   10  A    between atoms: C_31  and  C_32
REMARK                            x       y       z     vdW  Elec       q    Type
REMARK                         _______ _______ _______ _____ _____    ______ ____
ROOT
ATOM      1  C   LIG A   1      -8.170   1.450 127.386  0.00  0.00    +0.078 C 
ENDROOT
BRANCH   1  14
ATOM      2  O   LIG A   1      -6.450   2.373 129.339  0.00  0.00    -0.289 OA
ATOM      3  C   LIG A   1      -6.125   2.719 128.196  0.00  0.00    +0.194 C 
ATOM      4  C   LIG A   1      -4.938   3.668 127.994  0.00  0.00    +0.155 C 
ATOM      5  C   LIG A   1      -3.880   3.417 129.075  0.00  0.00    +0.053 C 
ATOM      6  C   LIG A   1      -4.348   3.464 126.595  0.00  0.00    +0.187 C 
ATOM      7  C   LIG A   1      -5.407   3.490 125.537  0.00  0.00    +0.026 C 
ATOM      8  C   LIG A   1      -5.185   4.026 124.324  0.00  0.00    +0.202 C 
ATOM      9  O   LIG A   1      -6.077   3.974 123.276  0.00  0.00    -0.468 OA
ATOM     10  C   LIG A   1      -7.254   3.254 123.451  0.00  0.00    +0.102 C 
ATOM     11  C   LIG A   1      -8.078   3.150 122.207  0.00  0.00    +0.086 C 
ATOM     12  C   LIG A   1      -7.590   2.693 124.631  0.00  0.00    +0.050 C 
ATOM     13  C   LIG A   1      -6.695   2.830 125.790  0.00  0.00    -0.006 C 
ATOM     14  C   LIG A   1      -6.991   2.337 127.020  0.00  0.00    +0.010 C 
BRANCH   4  15
ATOM     15  O   LIG A   1      -5.388   5.023 128.143  0.00  0.00    -0.378 OA
ATOM     16  H   LIG A   1      -4.592   5.571 128.279  0.00  0.00    +0.211 HD
ENDBRANCH   4  15
BRANCH   6  17
ATOM     17  O   LIG A   1      -3.675   2.206 126.479  0.00  0.00    -0.384 OA
ATOM     18  H   LIG A   1      -3.622   1.987 125.533  0.00  0.00    +0.210 HD
ENDBRANCH   6  17
ENDBRANCH   1  14
BRANCH   1  19
ATOM     19  C   LIG A   1      -8.002  -0.031 127.038  0.00  0.00    +0.010 C 
ATOM     20  C   LIG A   1      -7.319  -0.854 128.101  0.00  0.00    +0.194 C 
ATOM     21  C   LIG A   1      -6.803  -2.256 127.752  0.00  0.00    +0.155 C 
ATOM     22  C   LIG A   1      -6.563  -3.083 129.030  0.00  0.00    +0.053 C 
ATOM     23  C   LIG A   1      -7.834  -2.955 126.852  0.00  0.00    +0.187 C 
ATOM     24  O   LIG A   1      -7.124  -0.370 129.222  0.00  0.00    -0.289 OA
ATOM     25  C   LIG A   1      -8.406  -0.646 125.896  0.00  0.00    -0.006 C 
ATOM     26  C   LIG A   1      -8.247  -2.091 125.702  0.00  0.00    +0.026 C 
ATOM     27  C   LIG A   1      -8.507  -2.598 124.481  0.00  0.00    +0.202 C 
ATOM     28  O   LIG A   1      -8.976  -1.858 123.416  0.00  0.00    -0.468 OA
ATOM     29  C   LIG A   1      -9.328  -0.533 123.647  0.00  0.00    +0.102 C 
ATOM     30  C   LIG A   1     -10.042   0.125 122.512  0.00  0.00    +0.086 C 
ATOM     31  C   LIG A   1      -9.075   0.082 124.818  0.00  0.00    +0.050 C 
BRANCH  21  32
ATOM     32  O   LIG A   1      -5.540  -2.189 127.071  0.00  0.00    -0.378 OA
ATOM     33  H   LIG A   1      -5.191  -1.288 127.218  0.00  0.00    +0.211 HD
ENDBRANCH  21  32
BRANCH  23  34
ATOM     34  O   LIG A   1      -9.028  -3.290 127.571  0.00  0.00    -0.384 OA
ATOM     35  H   LIG A   1      -9.658  -2.561 127.447  0.00  0.00    +0.210 HD
ENDBRANCH  23  34
ENDBRANCH   1  19
TORSDOF 6
ENDMDL
