MODEL 1
REMARK VINA RESULT:      -8.0      0.000      0.000
REMARK  Name = NuBBE_1481
REMARK  5 active torsions:
REMARK  status: ('A' for Active; 'I' for Inactive)
REMARK    1  A    between atoms: C_1  and  C_2
REMARK    2  A    between atoms: C_2  and  C_3
REMARK    3  A    between atoms: C_7  and  O_21
REMARK    4  A    between atoms: N_10  and  C_20
REMARK    5  A    between atoms: O_21  and  C_22
REMARK                            x       y       z     vdW  Elec       q    Type
REMARK                         _______ _______ _______ _____ _____    ______ ____
ROOT
ATOM      1  C   LIG A   1      -7.223   1.288 128.973  0.00  0.00    +0.060 C 
ATOM      2  C   LIG A   1      -6.616   0.459 127.836  0.00  0.00    +0.123 C 
ATOM      3  C   LIG A   1      -6.177  -0.909 128.373  0.00  0.00    +0.060 C 
ATOM      4  O   LIG A   1      -7.666   0.186 126.886  0.00  0.00    -0.481 OA
ATOM      5  C   LIG A   1      -7.720   0.932 125.741  0.00  0.00    +0.134 A 
ATOM      6  C   LIG A   1      -8.875   0.773 124.982  0.00  0.00    +0.092 A 
ATOM      7  C   LIG A   1      -9.006   1.431 123.760  0.00  0.00    +0.136 A 
ATOM      8  C   LIG A   1      -8.007   2.312 123.315  0.00  0.00    +0.088 A 
ATOM      9  C   LIG A   1      -6.859   2.533 124.110  0.00  0.00    +0.067 A 
ATOM     10  N   LIG A   1      -5.868   3.486 123.695  0.00  0.00    -0.342 N 
ATOM     11  C   LIG A   1      -5.840   3.953 122.349  0.00  0.00    +0.053 A 
ATOM     12  C   LIG A   1      -4.717   4.630 121.846  0.00  0.00    +0.026 A 
ATOM     13  C   LIG A   1      -4.694   5.100 120.530  0.00  0.00    +0.002 A 
ATOM     14  C   LIG A   1      -5.790   4.897 119.696  0.00  0.00    +0.001 A 
ATOM     15  C   LIG A   1      -6.907   4.213 120.175  0.00  0.00    +0.014 A 
ATOM     16  C   LIG A   1      -6.923   3.735 121.492  0.00  0.00    +0.046 A 
ATOM     17  C   LIG A   1      -8.105   3.005 122.000  0.00  0.00    +0.201 A 
ATOM     18  O   LIG A   1      -9.113   2.964 121.303  0.00  0.00    -0.286 OA
ATOM     19  C   LIG A   1      -5.871   4.656 124.607  0.00  0.00    +0.149 C 
ATOM     20  C   LIG A   1      -6.692   1.777 125.304  0.00  0.00    +0.041 A 
ATOM     21  C   LIG A   1      -5.445   1.783 126.071  0.00  0.00    +0.013 C 
ATOM     22  C   LIG A   1      -5.419   1.174 127.260  0.00  0.00    +0.020 C 
ENDROOT
BRANCH   7  23
ATOM     23  O   LIG A   1     -10.178   1.230 123.080  0.00  0.00    -0.494 OA
ATOM     24  C   LIG A   1     -10.200  -0.073 122.495  0.00  0.00    +0.277 C 
ENDBRANCH   7  23
TORSDOF 1
ENDMDL
MODEL 2
REMARK VINA RESULT:      -7.6      2.542      4.182
REMARK  Name = NuBBE_1481
REMARK  5 active torsions:
REMARK  status: ('A' for Active; 'I' for Inactive)
REMARK    1  A    between atoms: C_1  and  C_2
REMARK    2  A    between atoms: C_2  and  C_3
REMARK    3  A    between atoms: C_7  and  O_21
REMARK    4  A    between atoms: N_10  and  C_20
REMARK    5  A    between atoms: O_21  and  C_22
REMARK                            x       y       z     vdW  Elec       q    Type
REMARK                         _______ _______ _______ _____ _____    ______ ____
ROOT
ATOM      1  C   LIG A   1      -7.506  -2.881 131.263  0.00  0.00    +0.060 C 
ATOM      2  C   LIG A   1      -6.579  -3.184 130.080  0.00  0.00    +0.123 C 
ATOM      3  C   LIG A   1      -5.725  -4.417 130.397  0.00  0.00    +0.060 C 
ATOM      4  O   LIG A   1      -7.407  -3.559 128.961  0.00  0.00    -0.481 OA
ATOM      5  C   LIG A   1      -7.647  -2.631 127.986  0.00  0.00    +0.134 A 
ATOM      6  C   LIG A   1      -8.626  -2.980 127.061  0.00  0.00    +0.092 A 
ATOM      7  C   LIG A   1      -8.902  -2.141 125.983  0.00  0.00    +0.136 A 
ATOM      8  C   LIG A   1      -8.247  -0.905 125.857  0.00  0.00    +0.088 A 
ATOM      9  C   LIG A   1      -7.298  -0.509 126.828  0.00  0.00    +0.067 A 
ATOM     10  N   LIG A   1      -6.678   0.783 126.744  0.00  0.00    -0.342 N 
ATOM     11  C   LIG A   1      -6.731   1.528 125.531  0.00  0.00    +0.053 A 
ATOM     12  C   LIG A   1      -5.886   2.630 125.325  0.00  0.00    +0.026 A 
ATOM     13  C   LIG A   1      -5.947   3.369 124.141  0.00  0.00    +0.002 A 
ATOM     14  C   LIG A   1      -6.850   3.015 123.142  0.00  0.00    +0.001 A 
ATOM     15  C   LIG A   1      -7.686   1.914 123.323  0.00  0.00    +0.014 A 
ATOM     16  C   LIG A   1      -7.616   1.170 124.508  0.00  0.00    +0.046 A 
ATOM     17  C   LIG A   1      -8.498  -0.001 124.699  0.00  0.00    +0.201 A 
ATOM     18  O   LIG A   1      -9.385  -0.209 123.877  0.00  0.00    -0.286 OA
ATOM     19  C   LIG A   1      -7.144   1.647 127.856  0.00  0.00    +0.149 C 
ATOM     20  C   LIG A   1      -6.953  -1.421 127.864  0.00  0.00    +0.041 A 
ATOM     21  C   LIG A   1      -5.836  -1.184 128.780  0.00  0.00    +0.013 C 
ATOM     22  C   LIG A   1      -5.673  -2.005 129.821  0.00  0.00    +0.020 C 
ENDROOT
BRANCH   7  23
ATOM     23  O   LIG A   1      -9.886  -2.552 125.124  0.00  0.00    -0.494 OA
ATOM     24  C   LIG A   1      -9.378  -3.523 124.207  0.00  0.00    +0.277 C 
ENDBRANCH   7  23
TORSDOF 1
ENDMDL
MODEL 3
REMARK VINA RESULT:      -7.5      2.893      6.309
REMARK  Name = NuBBE_1481
REMARK  5 active torsions:
REMARK  status: ('A' for Active; 'I' for Inactive)
REMARK    1  A    between atoms: C_1  and  C_2
REMARK    2  A    between atoms: C_2  and  C_3
REMARK    3  A    between atoms: C_7  and  O_21
REMARK    4  A    between atoms: N_10  and  C_20
REMARK    5  A    between atoms: O_21  and  C_22
REMARK                            x       y       z     vdW  Elec       q    Type
REMARK                         _______ _______ _______ _____ _____    ______ ____
ROOT
ATOM      1  C   LIG A   1      -2.322   3.315 126.646  0.00  0.00    +0.060 C 
ATOM      2  C   LIG A   1      -3.724   3.588 127.203  0.00  0.00    +0.123 C 
ATOM      3  C   LIG A   1      -3.806   5.034 127.708  0.00  0.00    +0.060 C 
ATOM      4  O   LIG A   1      -4.655   3.505 126.105  0.00  0.00    -0.481 OA
ATOM      5  C   LIG A   1      -5.397   2.366 125.963  0.00  0.00    +0.134 A 
ATOM      6  C   LIG A   1      -6.101   2.261 124.768  0.00  0.00    +0.092 A 
ATOM      7  C   LIG A   1      -6.946   1.174 124.546  0.00  0.00    +0.136 A 
ATOM      8  C   LIG A   1      -7.044   0.142 125.494  0.00  0.00    +0.088 A 
ATOM      9  C   LIG A   1      -6.280   0.206 126.683  0.00  0.00    +0.067 A 
ATOM     10  N   LIG A   1      -6.321  -0.880 127.623  0.00  0.00    -0.342 N 
ATOM     11  C   LIG A   1      -7.363  -1.848 127.558  0.00  0.00    +0.053 A 
ATOM     12  C   LIG A   1      -7.601  -2.723 128.630  0.00  0.00    +0.026 A 
ATOM     13  C   LIG A   1      -8.614  -3.682 128.562  0.00  0.00    +0.002 A 
ATOM     14  C   LIG A   1      -9.408  -3.780 127.422  0.00  0.00    +0.001 A 
ATOM     15  C   LIG A   1      -9.196  -2.909 126.354  0.00  0.00    +0.014 A 
ATOM     16  C   LIG A   1      -8.184  -1.942 126.430  0.00  0.00    +0.046 A 
ATOM     17  C   LIG A   1      -7.961  -1.015 125.300  0.00  0.00    +0.201 A 
ATOM     18  O   LIG A   1      -8.568  -1.210 124.252  0.00  0.00    -0.286 OA
ATOM     19  C   LIG A   1      -5.014  -1.583 127.647  0.00  0.00    +0.149 C 
ATOM     20  C   LIG A   1      -5.502   1.368 126.941  0.00  0.00    +0.041 A 
ATOM     21  C   LIG A   1      -4.856   1.613 128.231  0.00  0.00    +0.013 C 
ATOM     22  C   LIG A   1      -4.017   2.646 128.345  0.00  0.00    +0.020 C 
ENDROOT
BRANCH   7  23
ATOM     23  O   LIG A   1      -7.596   1.140 123.341  0.00  0.00    -0.494 OA
ATOM     24  C   LIG A   1      -8.530   2.216 123.244  0.00  0.00    +0.277 C 
ENDBRANCH   7  23
TORSDOF 1
ENDMDL
MODEL 4
REMARK VINA RESULT:      -7.4      4.086      5.834
REMARK  Name = NuBBE_1481
REMARK  5 active torsions:
REMARK  status: ('A' for Active; 'I' for Inactive)
REMARK    1  A    between atoms: C_1  and  C_2
REMARK    2  A    between atoms: C_2  and  C_3
REMARK    3  A    between atoms: C_7  and  O_21
REMARK    4  A    between atoms: N_10  and  C_20
REMARK    5  A    between atoms: O_21  and  C_22
REMARK                            x       y       z     vdW  Elec       q    Type
REMARK                         _______ _______ _______ _____ _____    ______ ____
ROOT
ATOM      1  C   LIG A   1      -5.315  -2.154 131.664  0.00  0.00    +0.060 C 
ATOM      2  C   LIG A   1      -6.812  -2.352 131.395  0.00  0.00    +0.123 C 
ATOM      3  C   LIG A   1      -7.493  -2.906 132.653  0.00  0.00    +0.060 C 
ATOM      4  O   LIG A   1      -7.392  -1.050 131.178  0.00  0.00    -0.481 OA
ATOM      5  C   LIG A   1      -7.648  -0.655 129.894  0.00  0.00    +0.134 A 
ATOM      6  C   LIG A   1      -7.993   0.684 129.742  0.00  0.00    +0.092 A 
ATOM      7  C   LIG A   1      -8.344   1.178 128.487  0.00  0.00    +0.136 A 
ATOM      8  C   LIG A   1      -8.286   0.351 127.354  0.00  0.00    +0.088 A 
ATOM      9  C   LIG A   1      -7.872  -0.995 127.486  0.00  0.00    +0.067 A 
ATOM     10  N   LIG A   1      -7.742  -1.827 126.322  0.00  0.00    -0.342 N 
ATOM     11  C   LIG A   1      -8.347  -1.440 125.092  0.00  0.00    +0.053 A 
ATOM     12  C   LIG A   1      -8.500  -2.362 124.044  0.00  0.00    +0.026 A 
ATOM     13  C   LIG A   1      -9.082  -1.980 122.833  0.00  0.00    +0.002 A 
ATOM     14  C   LIG A   1      -9.524  -0.672 122.651  0.00  0.00    +0.001 A 
ATOM     15  C   LIG A   1      -9.394   0.252 123.687  0.00  0.00    +0.014 A 
ATOM     16  C   LIG A   1      -8.818  -0.137 124.904  0.00  0.00    +0.046 A 
ATOM     17  C   LIG A   1      -8.685   0.841 126.005  0.00  0.00    +0.201 A 
ATOM     18  O   LIG A   1      -8.943   2.019 125.778  0.00  0.00    -0.286 OA
ATOM     19  C   LIG A   1      -6.313  -2.140 126.075  0.00  0.00    +0.149 C 
ATOM     20  C   LIG A   1      -7.617  -1.512 128.787  0.00  0.00    +0.041 A 
ATOM     21  C   LIG A   1      -7.393  -2.937 129.037  0.00  0.00    +0.013 C 
ATOM     22  C   LIG A   1      -7.006  -3.323 130.257  0.00  0.00    +0.020 C 
ENDROOT
BRANCH   7  23
ATOM     23  O   LIG A   1      -8.660   2.509 128.420  0.00  0.00    -0.494 OA
ATOM     24  C   LIG A   1      -9.095   2.986 129.695  0.00  0.00    +0.277 C 
ENDBRANCH   7  23
TORSDOF 1
ENDMDL
MODEL 5
REMARK VINA RESULT:      -7.4      4.737      7.835
REMARK  Name = NuBBE_1481
REMARK  5 active torsions:
REMARK  status: ('A' for Active; 'I' for Inactive)
REMARK    1  A    between atoms: C_1  and  C_2
REMARK    2  A    between atoms: C_2  and  C_3
REMARK    3  A    between atoms: C_7  and  O_21
REMARK    4  A    between atoms: N_10  and  C_20
REMARK    5  A    between atoms: O_21  and  C_22
REMARK                            x       y       z     vdW  Elec       q    Type
REMARK                         _______ _______ _______ _____ _____    ______ ____
ROOT
ATOM      1  C   LIG A   1      -4.256   4.821 127.707  0.00  0.00    +0.060 C 
ATOM      2  C   LIG A   1      -3.569   3.486 127.400  0.00  0.00    +0.123 C 
ATOM      3  C   LIG A   1      -2.121   3.739 126.963  0.00  0.00    +0.060 C 
ATOM      4  O   LIG A   1      -3.480   2.747 128.635  0.00  0.00    -0.481 OA
ATOM      5  C   LIG A   1      -4.381   1.743 128.862  0.00  0.00    +0.134 A 
ATOM      6  C   LIG A   1      -4.383   1.227 130.154  0.00  0.00    +0.092 A 
ATOM      7  C   LIG A   1      -5.211   0.154 130.478  0.00  0.00    +0.136 A 
ATOM      8  C   LIG A   1      -6.101  -0.372 129.527  0.00  0.00    +0.088 A 
ATOM      9  C   LIG A   1      -6.156   0.189 128.230  0.00  0.00    +0.067 A 
ATOM     10  N   LIG A   1      -7.113  -0.296 127.275  0.00  0.00    -0.342 N 
ATOM     11  C   LIG A   1      -7.763  -1.546 127.482  0.00  0.00    +0.053 A 
ATOM     12  C   LIG A   1      -8.454  -2.180 126.437  0.00  0.00    +0.026 A 
ATOM     13  C   LIG A   1      -9.102  -3.401 126.642  0.00  0.00    +0.002 A 
ATOM     14  C   LIG A   1      -9.068  -4.009 127.894  0.00  0.00    +0.001 A 
ATOM     15  C   LIG A   1      -8.374  -3.401 128.940  0.00  0.00    +0.014 A 
ATOM     16  C   LIG A   1      -7.716  -2.181 128.728  0.00  0.00    +0.046 A 
ATOM     17  C   LIG A   1      -6.975  -1.538 129.834  0.00  0.00    +0.201 A 
ATOM     18  O   LIG A   1      -7.078  -2.010 130.962  0.00  0.00    -0.286 OA
ATOM     19  C   LIG A   1      -8.142   0.740 127.012  0.00  0.00    +0.149 C 
ATOM     20  C   LIG A   1      -5.233   1.215 127.884  0.00  0.00    +0.041 A 
ATOM     21  C   LIG A   1      -5.075   1.701 126.512  0.00  0.00    +0.013 C 
ATOM     22  C   LIG A   1      -4.304   2.770 126.294  0.00  0.00    +0.020 C 
ENDROOT
BRANCH   7  23
ATOM     23  O   LIG A   1      -5.161  -0.289 131.773  0.00  0.00    -0.494 OA
ATOM     24  C   LIG A   1      -3.886  -0.871 132.054  0.00  0.00    +0.277 C 
ENDBRANCH   7  23
TORSDOF 1
ENDMDL
MODEL 6
REMARK VINA RESULT:      -7.3      2.984      5.023
REMARK  Name = NuBBE_1481
REMARK  5 active torsions:
REMARK  status: ('A' for Active; 'I' for Inactive)
REMARK    1  A    between atoms: C_1  and  C_2
REMARK    2  A    between atoms: C_2  and  C_3
REMARK    3  A    between atoms: C_7  and  O_21
REMARK    4  A    between atoms: N_10  and  C_20
REMARK    5  A    between atoms: O_21  and  C_22
REMARK                            x       y       z     vdW  Elec       q    Type
REMARK                         _______ _______ _______ _____ _____    ______ ____
ROOT
ATOM      1  C   LIG A   1      -8.194  -2.613 125.503  0.00  0.00    +0.060 C 
ATOM      2  C   LIG A   1      -6.804  -2.243 124.973  0.00  0.00    +0.123 C 
ATOM      3  C   LIG A   1      -6.278  -3.368 124.074  0.00  0.00    +0.060 C 
ATOM      4  O   LIG A   1      -6.955  -1.095 124.114  0.00  0.00    -0.481 OA
ATOM      5  C   LIG A   1      -6.627   0.138 124.607  0.00  0.00    +0.134 A 
ATOM      6  C   LIG A   1      -7.006   1.215 123.812  0.00  0.00    +0.092 A 
ATOM      7  C   LIG A   1      -6.661   2.514 124.183  0.00  0.00    +0.136 A 
ATOM      8  C   LIG A   1      -5.989   2.755 125.392  0.00  0.00    +0.088 A 
ATOM      9  C   LIG A   1      -5.658   1.672 126.240  0.00  0.00    +0.067 A 
ATOM     10  N   LIG A   1      -5.035   1.918 127.511  0.00  0.00    -0.342 N 
ATOM     11  C   LIG A   1      -4.433   3.179 127.784  0.00  0.00    +0.053 A 
ATOM     12  C   LIG A   1      -3.562   3.340 128.874  0.00  0.00    +0.026 A 
ATOM     13  C   LIG A   1      -2.981   4.580 129.150  0.00  0.00    +0.002 A 
ATOM     14  C   LIG A   1      -3.257   5.678 128.339  0.00  0.00    +0.001 A 
ATOM     15  C   LIG A   1      -4.107   5.532 127.243  0.00  0.00    +0.014 A 
ATOM     16  C   LIG A   1      -4.681   4.285 126.964  0.00  0.00    +0.046 A 
ATOM     17  C   LIG A   1      -5.579   4.128 125.799  0.00  0.00    +0.201 A 
ATOM     18  O   LIG A   1      -5.926   5.132 125.186  0.00  0.00    -0.286 OA
ATOM     19  C   LIG A   1      -5.974   1.588 128.612  0.00  0.00    +0.149 C 
ATOM     20  C   LIG A   1      -5.926   0.346 125.801  0.00  0.00    +0.041 A 
ATOM     21  C   LIG A   1      -5.428  -0.833 126.510  0.00  0.00    +0.013 C 
ATOM     22  C   LIG A   1      -5.851  -2.041 126.126  0.00  0.00    +0.020 C 
ENDROOT
BRANCH   7  23
ATOM     23  O   LIG A   1      -7.080   3.519 123.352  0.00  0.00    -0.494 OA
ATOM     24  C   LIG A   1      -6.424   3.429 122.086  0.00  0.00    +0.277 C 
ENDBRANCH   7  23
TORSDOF 1
ENDMDL
MODEL 7
REMARK VINA RESULT:      -7.3      2.836      5.489
REMARK  Name = NuBBE_1481
REMARK  5 active torsions:
REMARK  status: ('A' for Active; 'I' for Inactive)
REMARK    1  A    between atoms: C_1  and  C_2
REMARK    2  A    between atoms: C_2  and  C_3
REMARK    3  A    between atoms: C_7  and  O_21
REMARK    4  A    between atoms: N_10  and  C_20
REMARK    5  A    between atoms: O_21  and  C_22
REMARK                            x       y       z     vdW  Elec       q    Type
REMARK                         _______ _______ _______ _____ _____    ______ ____
ROOT
ATOM      1  C   LIG A   1      -6.680   4.381 130.069  0.00  0.00    +0.060 C 
ATOM      2  C   LIG A   1      -8.007   4.317 129.305  0.00  0.00    +0.123 C 
ATOM      3  C   LIG A   1      -8.936   5.436 129.791  0.00  0.00    +0.060 C 
ATOM      4  O   LIG A   1      -7.730   4.615 127.921  0.00  0.00    -0.481 OA
ATOM      5  C   LIG A   1      -7.658   3.578 127.032  0.00  0.00    +0.134 A 
ATOM      6  C   LIG A   1      -7.170   3.909 125.772  0.00  0.00    +0.092 A 
ATOM      7  C   LIG A   1      -7.120   2.946 124.766  0.00  0.00    +0.136 A 
ATOM      8  C   LIG A   1      -7.496   1.619 125.030  0.00  0.00    +0.088 A 
ATOM      9  C   LIG A   1      -7.931   1.256 126.326  0.00  0.00    +0.067 A 
ATOM     10  N   LIG A   1      -8.249  -0.113 126.622  0.00  0.00    -0.342 N 
ATOM     11  C   LIG A   1      -8.471  -1.043 125.567  0.00  0.00    +0.053 A 
ATOM     12  C   LIG A   1      -9.077  -2.285 125.817  0.00  0.00    +0.026 A 
ATOM     13  C   LIG A   1      -9.283  -3.203 124.785  0.00  0.00    +0.002 A 
ATOM     14  C   LIG A   1      -8.890  -2.894 123.485  0.00  0.00    +0.001 A 
ATOM     15  C   LIG A   1      -8.301  -1.659 123.216  0.00  0.00    +0.014 A 
ATOM     16  C   LIG A   1      -8.104  -0.736 124.252  0.00  0.00    +0.046 A 
ATOM     17  C   LIG A   1      -7.484   0.575 123.967  0.00  0.00    +0.201 A 
ATOM     18  O   LIG A   1      -7.012   0.772 122.852  0.00  0.00    -0.286 OA
ATOM     19  C   LIG A   1      -7.246  -0.679 127.557  0.00  0.00    +0.149 C 
ATOM     20  C   LIG A   1      -8.074   2.270 127.313  0.00  0.00    +0.041 A 
ATOM     21  C   LIG A   1      -8.716   2.025 128.606  0.00  0.00    +0.013 C 
ATOM     22  C   LIG A   1      -8.672   2.983 129.537  0.00  0.00    +0.020 C 
ENDROOT
BRANCH   7  23
ATOM     23  O   LIG A   1      -6.616   3.349 123.557  0.00  0.00    -0.494 OA
ATOM     24  C   LIG A   1      -5.507   4.230 123.745  0.00  0.00    +0.277 C 
ENDBRANCH   7  23
TORSDOF 1
ENDMDL
MODEL 8
REMARK VINA RESULT:      -7.3      2.618      5.184
REMARK  Name = NuBBE_1481
REMARK  5 active torsions:
REMARK  status: ('A' for Active; 'I' for Inactive)
REMARK    1  A    between atoms: C_1  and  C_2
REMARK    2  A    between atoms: C_2  and  C_3
REMARK    3  A    between atoms: C_7  and  O_21
REMARK    4  A    between atoms: N_10  and  C_20
REMARK    5  A    between atoms: O_21  and  C_22
REMARK                            x       y       z     vdW  Elec       q    Type
REMARK                         _______ _______ _______ _____ _____    ______ ____
ROOT
ATOM      1  C   LIG A   1      -3.081   3.767 126.547  0.00  0.00    +0.060 C 
ATOM      2  C   LIG A   1      -4.406   3.501 127.270  0.00  0.00    +0.123 C 
ATOM      3  C   LIG A   1      -4.512   4.406 128.503  0.00  0.00    +0.060 C 
ATOM      4  O   LIG A   1      -5.474   3.911 126.392  0.00  0.00    -0.481 OA
ATOM      5  C   LIG A   1      -6.152   2.949 125.695  0.00  0.00    +0.134 A 
ATOM      6  C   LIG A   1      -7.008   3.424 124.706  0.00  0.00    +0.092 A 
ATOM      7  C   LIG A   1      -7.801   2.536 123.982  0.00  0.00    +0.136 A 
ATOM      8  C   LIG A   1      -7.696   1.152 124.192  0.00  0.00    +0.088 A 
ATOM      9  C   LIG A   1      -6.780   0.654 125.148  0.00  0.00    +0.067 A 
ATOM     10  N   LIG A   1      -6.617  -0.763 125.318  0.00  0.00    -0.342 N 
ATOM     11  C   LIG A   1      -7.591  -1.666 124.803  0.00  0.00    +0.053 A 
ATOM     12  C   LIG A   1      -7.618  -3.008 125.216  0.00  0.00    +0.026 A 
ATOM     13  C   LIG A   1      -8.566  -3.897 124.702  0.00  0.00    +0.002 A 
ATOM     14  C   LIG A   1      -9.503  -3.458 123.771  0.00  0.00    +0.001 A 
ATOM     15  C   LIG A   1      -9.500  -2.125 123.361  0.00  0.00    +0.014 A 
ATOM     16  C   LIG A   1      -8.555  -1.234 123.886  0.00  0.00    +0.046 A 
ATOM     17  C   LIG A   1      -8.554   0.181 123.456  0.00  0.00    +0.201 A 
ATOM     18  O   LIG A   1      -9.287   0.514 122.531  0.00  0.00    -0.286 OA
ATOM     19  C   LIG A   1      -5.276  -1.183 124.840  0.00  0.00    +0.149 C 
ATOM     20  C   LIG A   1      -6.053   1.576 125.950  0.00  0.00    +0.041 A 
ATOM     21  C   LIG A   1      -5.250   1.155 127.100  0.00  0.00    +0.013 C 
ATOM     22  C   LIG A   1      -4.474   2.058 127.707  0.00  0.00    +0.020 C 
ENDROOT
BRANCH   7  23
ATOM     23  O   LIG A   1      -8.609   3.083 123.020  0.00  0.00    -0.494 OA
ATOM     24  C   LIG A   1      -7.841   3.462 121.876  0.00  0.00    +0.277 C 
ENDBRANCH   7  23
TORSDOF 1
ENDMDL
MODEL 9
REMARK VINA RESULT:      -7.3      3.918      6.206
REMARK  Name = NuBBE_1481
REMARK  5 active torsions:
REMARK  status: ('A' for Active; 'I' for Inactive)
REMARK    1  A    between atoms: C_1  and  C_2
REMARK    2  A    between atoms: C_2  and  C_3
REMARK    3  A    between atoms: C_7  and  O_21
REMARK    4  A    between atoms: N_10  and  C_20
REMARK    5  A    between atoms: O_21  and  C_22
REMARK                            x       y       z     vdW  Elec       q    Type
REMARK                         _______ _______ _______ _____ _____    ______ ____
ROOT
ATOM      1  C   LIG A   1      -4.883   4.422 128.301  0.00  0.00    +0.060 C 
ATOM      2  C   LIG A   1      -4.114   3.307 127.583  0.00  0.00    +0.123 C 
ATOM      3  C   LIG A   1      -2.618   3.640 127.567  0.00  0.00    +0.060 C 
ATOM      4  O   LIG A   1      -4.239   2.110 128.377  0.00  0.00    -0.481 OA
ATOM      5  C   LIG A   1      -5.140   1.158 127.985  0.00  0.00    +0.134 A 
ATOM      6  C   LIG A   1      -5.370   0.142 128.908  0.00  0.00    +0.092 A 
ATOM      7  C   LIG A   1      -6.216  -0.918 128.586  0.00  0.00    +0.136 A 
ATOM      8  C   LIG A   1      -6.896  -0.939 127.358  0.00  0.00    +0.088 A 
ATOM      9  C   LIG A   1      -6.721   0.123 126.439  0.00  0.00    +0.067 A 
ATOM     10  N   LIG A   1      -7.469   0.143 125.212  0.00  0.00    -0.342 N 
ATOM     11  C   LIG A   1      -8.112  -1.038 124.743  0.00  0.00    +0.053 A 
ATOM     12  C   LIG A   1      -8.576  -1.127 123.421  0.00  0.00    +0.026 A 
ATOM     13  C   LIG A   1      -9.219  -2.280 122.963  0.00  0.00    +0.002 A 
ATOM     14  C   LIG A   1      -9.404  -3.363 123.819  0.00  0.00    +0.001 A 
ATOM     15  C   LIG A   1      -8.935  -3.298 125.130  0.00  0.00    +0.014 A 
ATOM     16  C   LIG A   1      -8.283  -2.143 125.583  0.00  0.00    +0.046 A 
ATOM     17  C   LIG A   1      -7.781  -2.073 126.972  0.00  0.00    +0.201 A 
ATOM     18  O   LIG A   1      -8.081  -2.973 127.750  0.00  0.00    -0.286 OA
ATOM     19  C   LIG A   1      -8.457   1.250 125.235  0.00  0.00    +0.149 C 
ATOM     20  C   LIG A   1      -5.778   1.144 126.738  0.00  0.00    +0.041 A 
ATOM     21  C   LIG A   1      -5.378   2.157 125.760  0.00  0.00    +0.013 C 
ATOM     22  C   LIG A   1      -4.609   3.172 126.164  0.00  0.00    +0.020 C 
ENDROOT
BRANCH   7  23
ATOM     23  O   LIG A   1      -6.397  -1.871 129.552  0.00  0.00    -0.494 OA
ATOM     24  C   LIG A   1      -5.187  -2.598 129.773  0.00  0.00    +0.277 C 
ENDBRANCH   7  23
TORSDOF 1
ENDMDL
