MODEL 1
REMARK VINA RESULT:      -6.7      0.000      0.000
REMARK  Name = NuBBE_1009
REMARK  4 active torsions:
REMARK  status: ('A' for Active; 'I' for Inactive)
REMARK    1  A    between atoms: C_4  and  O_5
REMARK    2  A    between atoms: C_6  and  O_7
REMARK    3  A    between atoms: C_8  and  O_9
REMARK    4  A    between atoms: C_13  and  C_14
REMARK                            x       y       z     vdW  Elec       q    Type
REMARK                         _______ _______ _______ _____ _____    ______ ____
ROOT
ATOM      1  O   LIG A   1     -10.228   7.301 127.075  0.00  0.00    -0.244 OA
ATOM      2  C   LIG A   1     -10.943   7.630 128.018  0.00  0.00    +0.348 A 
ATOM      3  C   LIG A   1     -10.792   6.957 129.325  0.00  0.00    +0.112 A 
ATOM      4  C   LIG A   1      -9.838   5.944 129.496  0.00  0.00    +0.177 A 
ATOM      5  C   LIG A   1      -9.712   5.325 130.735  0.00  0.00    +0.201 A 
ATOM      6  C   LIG A   1     -10.522   5.701 131.797  0.00  0.00    +0.163 A 
ATOM      7  C   LIG A   1     -11.472   6.702 131.641  0.00  0.00    +0.058 A 
ATOM      8  C   LIG A   1     -11.609   7.336 130.399  0.00  0.00    -0.001 A 
ATOM      9  C   LIG A   1     -12.598   8.389 130.213  0.00  0.00    +0.050 A 
ATOM     10  C   LIG A   1     -12.704   8.975 129.015  0.00  0.00    +0.107 A 
ATOM     11  C   LIG A   1     -13.681  10.065 128.711  0.00  0.00    +0.086 C 
ATOM     12  O   LIG A   1     -11.889   8.608 127.919  0.00  0.00    -0.427 OA
ENDROOT
BRANCH   4  13
ATOM     13  O   LIG A   1      -8.993   5.505 128.507  0.00  0.00    -0.503 OA
ATOM     14  H   LIG A   1      -8.842   4.540 128.638  0.00  0.00    +0.292 HD
ENDBRANCH   4  13
BRANCH   5  15
ATOM     15  O   LIG A   1      -8.788   4.333 130.926  0.00  0.00    -0.501 OA
ATOM     16  H   LIG A   1      -8.588   4.008 130.023  0.00  0.00    +0.292 HD
ENDBRANCH   5  15
BRANCH   6  17
ATOM     17  O   LIG A   1     -10.392   5.089 133.009  0.00  0.00    -0.503 OA
ATOM     18  H   LIG A   1     -11.218   4.575 133.120  0.00  0.00    +0.292 HD
ENDBRANCH   6  17
TORSDOF 3
ENDMDL
MODEL 2
REMARK VINA RESULT:      -6.0      1.512      3.060
REMARK  Name = NuBBE_1009
REMARK  4 active torsions:
REMARK  status: ('A' for Active; 'I' for Inactive)
REMARK    1  A    between atoms: C_4  and  O_5
REMARK    2  A    between atoms: C_6  and  O_7
REMARK    3  A    between atoms: C_8  and  O_9
REMARK    4  A    between atoms: C_13  and  C_14
REMARK                            x       y       z     vdW  Elec       q    Type
REMARK                         _______ _______ _______ _____ _____    ______ ____
ROOT
ATOM      1  O   LIG A   1     -13.103   7.629 132.225  0.00  0.00    -0.244 OA
ATOM      2  C   LIG A   1     -12.823   8.058 131.108  0.00  0.00    +0.348 A 
ATOM      3  C   LIG A   1     -11.798   7.374 130.293  0.00  0.00    +0.112 A 
ATOM      4  C   LIG A   1     -11.141   6.238 130.785  0.00  0.00    +0.177 A 
ATOM      5  C   LIG A   1     -10.181   5.609 130.001  0.00  0.00    +0.201 A 
ATOM      6  C   LIG A   1      -9.870   6.098 128.739  0.00  0.00    +0.163 A 
ATOM      7  C   LIG A   1     -10.512   7.224 128.239  0.00  0.00    +0.058 A 
ATOM      8  C   LIG A   1     -11.484   7.867 129.019  0.00  0.00    -0.001 A 
ATOM      9  C   LIG A   1     -12.170   9.047 128.515  0.00  0.00    +0.050 A 
ATOM     10  C   LIG A   1     -13.093   9.639 129.282  0.00  0.00    +0.107 A 
ATOM     11  C   LIG A   1     -13.860  10.853 128.867  0.00  0.00    +0.086 C 
ATOM     12  O   LIG A   1     -13.425   9.158 130.570  0.00  0.00    -0.427 OA
ENDROOT
BRANCH   4  13
ATOM     13  O   LIG A   1     -11.381   5.682 132.017  0.00  0.00    -0.503 OA
ATOM     14  H   LIG A   1     -10.796   4.895 132.119  0.00  0.00    +0.292 HD
ENDBRANCH   4  13
BRANCH   5  15
ATOM     15  O   LIG A   1      -9.526   4.498 130.459  0.00  0.00    -0.501 OA
ATOM     16  H   LIG A   1     -10.004   3.747 130.049  0.00  0.00    +0.292 HD
ENDBRANCH   5  15
BRANCH   6  17
ATOM     17  O   LIG A   1      -8.927   5.475 127.976  0.00  0.00    -0.503 OA
ATOM     18  H   LIG A   1      -9.088   4.518 128.110  0.00  0.00    +0.292 HD
ENDBRANCH   6  17
TORSDOF 3
ENDMDL
MODEL 3
REMARK VINA RESULT:      -5.9     10.541     11.453
REMARK  Name = NuBBE_1009
REMARK  4 active torsions:
REMARK  status: ('A' for Active; 'I' for Inactive)
REMARK    1  A    between atoms: C_4  and  O_5
REMARK    2  A    between atoms: C_6  and  O_7
REMARK    3  A    between atoms: C_8  and  O_9
REMARK    4  A    between atoms: C_13  and  C_14
REMARK                            x       y       z     vdW  Elec       q    Type
REMARK                         _______ _______ _______ _____ _____    ______ ____
ROOT
ATOM      1  O   LIG A   1      -5.236  -1.231 126.690  0.00  0.00    -0.244 OA
ATOM      2  C   LIG A   1      -6.226  -1.852 127.069  0.00  0.00    +0.348 A 
ATOM      3  C   LIG A   1      -7.255  -2.263 126.091  0.00  0.00    +0.112 A 
ATOM      4  C   LIG A   1      -7.110  -1.948 124.733  0.00  0.00    +0.177 A 
ATOM      5  C   LIG A   1      -8.089  -2.345 123.829  0.00  0.00    +0.201 A 
ATOM      6  C   LIG A   1      -9.205  -3.048 124.263  0.00  0.00    +0.163 A 
ATOM      7  C   LIG A   1      -9.363  -3.365 125.605  0.00  0.00    +0.058 A 
ATOM      8  C   LIG A   1      -8.382  -2.972 126.527  0.00  0.00    -0.001 A 
ATOM      9  C   LIG A   1      -8.526  -3.295 127.939  0.00  0.00    +0.050 A 
ATOM     10  C   LIG A   1      -7.573  -2.908 128.794  0.00  0.00    +0.107 A 
ATOM     11  C   LIG A   1      -7.616  -3.185 130.263  0.00  0.00    +0.086 C 
ATOM     12  O   LIG A   1      -6.428  -2.191 128.375  0.00  0.00    -0.427 OA
ENDROOT
BRANCH   4  13
ATOM     13  O   LIG A   1      -6.043  -1.259 124.210  0.00  0.00    -0.503 OA
ATOM     14  H   LIG A   1      -5.782  -1.692 123.364  0.00  0.00    +0.292 HD
ENDBRANCH   4  13
BRANCH   5  15
ATOM     15  O   LIG A   1      -7.970  -2.049 122.498  0.00  0.00    -0.501 OA
ATOM     16  H   LIG A   1      -8.600  -2.656 122.056  0.00  0.00    +0.292 HD
ENDBRANCH   5  15
BRANCH   6  17
ATOM     17  O   LIG A   1     -10.161  -3.434 123.370  0.00  0.00    -0.503 OA
ATOM     18  H   LIG A   1     -11.011  -3.202 123.797  0.00  0.00    +0.292 HD
ENDBRANCH   6  17
TORSDOF 3
ENDMDL
MODEL 4
REMARK VINA RESULT:      -5.9      1.300      4.462
REMARK  Name = NuBBE_1009
REMARK  4 active torsions:
REMARK  status: ('A' for Active; 'I' for Inactive)
REMARK    1  A    between atoms: C_4  and  O_5
REMARK    2  A    between atoms: C_6  and  O_7
REMARK    3  A    between atoms: C_8  and  O_9
REMARK    4  A    between atoms: C_13  and  C_14
REMARK                            x       y       z     vdW  Elec       q    Type
REMARK                         _______ _______ _______ _____ _____    ______ ____
ROOT
ATOM      1  O   LIG A   1      -8.434   4.701 128.487  0.00  0.00    -0.244 OA
ATOM      2  C   LIG A   1      -9.057   5.209 129.416  0.00  0.00    +0.348 A 
ATOM      3  C   LIG A   1      -9.993   6.321 129.153  0.00  0.00    +0.112 A 
ATOM      4  C   LIG A   1     -10.177   6.802 127.849  0.00  0.00    +0.177 A 
ATOM      5  C   LIG A   1     -11.064   7.849 127.624  0.00  0.00    +0.201 A 
ATOM      6  C   LIG A   1     -11.765   8.417 128.678  0.00  0.00    +0.163 A 
ATOM      7  C   LIG A   1     -11.593   7.952 129.975  0.00  0.00    +0.058 A 
ATOM      8  C   LIG A   1     -10.703   6.897 130.216  0.00  0.00    -0.001 A 
ATOM      9  C   LIG A   1     -10.507   6.392 131.567  0.00  0.00    +0.050 A 
ATOM     10  C   LIG A   1      -9.651   5.383 131.766  0.00  0.00    +0.107 A 
ATOM     11  C   LIG A   1      -9.372   4.786 133.108  0.00  0.00    +0.086 C 
ATOM     12  O   LIG A   1      -8.926   4.789 130.707  0.00  0.00    -0.427 OA
ENDROOT
BRANCH   4  13
ATOM     13  O   LIG A   1      -9.530   6.303 126.745  0.00  0.00    -0.503 OA
ATOM     14  H   LIG A   1      -9.243   7.064 126.187  0.00  0.00    +0.292 HD
ENDBRANCH   4  13
BRANCH   5  15
ATOM     15  O   LIG A   1     -11.260   8.335 126.359  0.00  0.00    -0.501 OA
ATOM     16  H   LIG A   1     -10.374   8.648 126.078  0.00  0.00    +0.292 HD
ENDBRANCH   5  15
BRANCH   6  17
ATOM     17  O   LIG A   1     -12.635   9.443 128.448  0.00  0.00    -0.503 OA
ATOM     18  H   LIG A   1     -13.489   9.135 128.814  0.00  0.00    +0.292 HD
ENDBRANCH   6  17
TORSDOF 3
ENDMDL
MODEL 5
REMARK VINA RESULT:      -5.8      8.682     10.975
REMARK  Name = NuBBE_1009
REMARK  4 active torsions:
REMARK  status: ('A' for Active; 'I' for Inactive)
REMARK    1  A    between atoms: C_4  and  O_5
REMARK    2  A    between atoms: C_6  and  O_7
REMARK    3  A    between atoms: C_8  and  O_9
REMARK    4  A    between atoms: C_13  and  C_14
REMARK                            x       y       z     vdW  Elec       q    Type
REMARK                         _______ _______ _______ _____ _____    ______ ____
ROOT
ATOM      1  O   LIG A   1      -5.563   0.381 126.010  0.00  0.00    -0.244 OA
ATOM      2  C   LIG A   1      -5.941  -0.417 125.155  0.00  0.00    +0.348 A 
ATOM      3  C   LIG A   1      -7.234  -0.204 124.472  0.00  0.00    +0.112 A 
ATOM      4  C   LIG A   1      -8.033   0.902 124.792  0.00  0.00    +0.177 A 
ATOM      5  C   LIG A   1      -9.245   1.084 124.136  0.00  0.00    +0.201 A 
ATOM      6  C   LIG A   1      -9.667   0.180 123.170  0.00  0.00    +0.163 A 
ATOM      7  C   LIG A   1      -8.886  -0.920 122.844  0.00  0.00    +0.058 A 
ATOM      8  C   LIG A   1      -7.661  -1.115 123.496  0.00  0.00    -0.001 A 
ATOM      9  C   LIG A   1      -6.825  -2.262 123.169  0.00  0.00    +0.050 A 
ATOM     10  C   LIG A   1      -5.661  -2.420 123.809  0.00  0.00    +0.107 A 
ATOM     11  C   LIG A   1      -4.724  -3.557 123.554  0.00  0.00    +0.086 C 
ATOM     12  O   LIG A   1      -5.212  -1.512 124.796  0.00  0.00    -0.427 OA
ENDROOT
BRANCH   4  13
ATOM     13  O   LIG A   1      -7.701   1.848 125.730  0.00  0.00    -0.503 OA
ATOM     14  H   LIG A   1      -6.815   2.213 125.499  0.00  0.00    +0.292 HD
ENDBRANCH   4  13
BRANCH   5  15
ATOM     15  O   LIG A   1     -10.043   2.157 124.432  0.00  0.00    -0.501 OA
ATOM     16  H   LIG A   1      -9.469   2.937 124.278  0.00  0.00    +0.292 HD
ENDBRANCH   5  15
BRANCH   6  17
ATOM     17  O   LIG A   1     -10.857   0.367 122.531  0.00  0.00    -0.503 OA
ATOM     18  H   LIG A   1     -10.699   1.115 121.920  0.00  0.00    +0.292 HD
ENDBRANCH   6  17
TORSDOF 3
ENDMDL
MODEL 6
REMARK VINA RESULT:      -5.8      7.418      8.871
REMARK  Name = NuBBE_1009
REMARK  4 active torsions:
REMARK  status: ('A' for Active; 'I' for Inactive)
REMARK    1  A    between atoms: C_4  and  O_5
REMARK    2  A    between atoms: C_6  and  O_7
REMARK    3  A    between atoms: C_8  and  O_9
REMARK    4  A    between atoms: C_13  and  C_14
REMARK                            x       y       z     vdW  Elec       q    Type
REMARK                         _______ _______ _______ _____ _____    ______ ____
ROOT
ATOM      1  O   LIG A   1      -5.209   4.216 124.762  0.00  0.00    -0.244 OA
ATOM      2  C   LIG A   1      -5.825   4.015 123.718  0.00  0.00    +0.348 A 
ATOM      3  C   LIG A   1      -7.099   3.267 123.749  0.00  0.00    +0.112 A 
ATOM      4  C   LIG A   1      -7.611   2.785 124.962  0.00  0.00    +0.177 A 
ATOM      5  C   LIG A   1      -8.812   2.085 124.968  0.00  0.00    +0.201 A 
ATOM      6  C   LIG A   1      -9.504   1.862 123.786  0.00  0.00    +0.163 A 
ATOM      7  C   LIG A   1      -9.009   2.332 122.577  0.00  0.00    +0.058 A 
ATOM      8  C   LIG A   1      -7.799   3.040 122.556  0.00  0.00    -0.001 A 
ATOM      9  C   LIG A   1      -7.262   3.544 121.301  0.00  0.00    +0.050 A 
ATOM     10  C   LIG A   1      -6.106   4.217 121.313  0.00  0.00    +0.107 A 
ATOM     11  C   LIG A   1      -5.462   4.779 120.086  0.00  0.00    +0.086 C 
ATOM     12  O   LIG A   1      -5.384   4.457 122.505  0.00  0.00    -0.427 OA
ENDROOT
BRANCH   4  13
ATOM     13  O   LIG A   1      -7.000   2.957 126.179  0.00  0.00    -0.503 OA
ATOM     14  H   LIG A   1      -6.726   2.072 126.514  0.00  0.00    +0.292 HD
ENDBRANCH   4  13
BRANCH   5  15
ATOM     15  O   LIG A   1      -9.332   1.605 126.140  0.00  0.00    -0.501 OA
ATOM     16  H   LIG A   1      -8.905   0.730 126.256  0.00  0.00    +0.292 HD
ENDBRANCH   5  15
BRANCH   6  17
ATOM     17  O   LIG A   1     -10.683   1.175 123.801  0.00  0.00    -0.503 OA
ATOM     18  H   LIG A   1     -11.147   1.456 122.986  0.00  0.00    +0.292 HD
ENDBRANCH   6  17
TORSDOF 3
ENDMDL
MODEL 7
REMARK VINA RESULT:      -5.7      2.255      4.748
REMARK  Name = NuBBE_1009
REMARK  4 active torsions:
REMARK  status: ('A' for Active; 'I' for Inactive)
REMARK    1  A    between atoms: C_4  and  O_5
REMARK    2  A    between atoms: C_6  and  O_7
REMARK    3  A    between atoms: C_8  and  O_9
REMARK    4  A    between atoms: C_13  and  C_14
REMARK                            x       y       z     vdW  Elec       q    Type
REMARK                         _______ _______ _______ _____ _____    ______ ____
ROOT
ATOM      1  O   LIG A   1      -7.088   5.314 129.502  0.00  0.00    -0.244 OA
ATOM      2  C   LIG A   1      -7.568   5.491 130.620  0.00  0.00    +0.348 A 
ATOM      3  C   LIG A   1      -9.000   5.827 130.760  0.00  0.00    +0.112 A 
ATOM      4  C   LIG A   1      -9.817   5.946 129.627  0.00  0.00    +0.177 A 
ATOM      5  C   LIG A   1     -11.162   6.262 129.783  0.00  0.00    +0.201 A 
ATOM      6  C   LIG A   1     -11.698   6.460 131.048  0.00  0.00    +0.163 A 
ATOM      7  C   LIG A   1     -10.900   6.347 132.179  0.00  0.00    +0.058 A 
ATOM      8  C   LIG A   1      -9.543   6.028 132.037  0.00  0.00    -0.001 A 
ATOM      9  C   LIG A   1      -8.689   5.903 133.209  0.00  0.00    +0.050 A 
ATOM     10  C   LIG A   1      -7.397   5.596 133.041  0.00  0.00    +0.107 A 
ATOM     11  C   LIG A   1      -6.430   5.442 134.171  0.00  0.00    +0.086 C 
ATOM     12  O   LIG A   1      -6.830   5.390 131.763  0.00  0.00    -0.427 OA
ENDROOT
BRANCH   4  13
ATOM     13  O   LIG A   1      -9.378   5.768 128.339  0.00  0.00    -0.503 OA
ATOM     14  H   LIG A   1     -10.089   6.072 127.727  0.00  0.00    +0.292 HD
ENDBRANCH   4  13
BRANCH   5  15
ATOM     15  O   LIG A   1     -11.979   6.383 128.691  0.00  0.00    -0.501 OA
ATOM     16  H   LIG A   1     -12.713   5.757 128.865  0.00  0.00    +0.292 HD
ENDBRANCH   5  15
BRANCH   6  17
ATOM     17  O   LIG A   1     -13.019   6.769 131.191  0.00  0.00    -0.503 OA
ATOM     18  H   LIG A   1     -13.492   5.928 131.026  0.00  0.00    +0.292 HD
ENDBRANCH   6  17
TORSDOF 3
ENDMDL
MODEL 8
REMARK VINA RESULT:      -5.6      8.132     10.340
REMARK  Name = NuBBE_1009
REMARK  4 active torsions:
REMARK  status: ('A' for Active; 'I' for Inactive)
REMARK    1  A    between atoms: C_4  and  O_5
REMARK    2  A    between atoms: C_6  and  O_7
REMARK    3  A    between atoms: C_8  and  O_9
REMARK    4  A    between atoms: C_13  and  C_14
REMARK                            x       y       z     vdW  Elec       q    Type
REMARK                         _______ _______ _______ _____ _____    ______ ____
ROOT
ATOM      1  O   LIG A   1      -4.921   3.976 124.142  0.00  0.00    -0.244 OA
ATOM      2  C   LIG A   1      -6.023   3.609 123.742  0.00  0.00    +0.348 A 
ATOM      3  C   LIG A   1      -6.408   3.838 122.334  0.00  0.00    +0.112 A 
ATOM      4  C   LIG A   1      -5.524   4.472 121.450  0.00  0.00    +0.177 A 
ATOM      5  C   LIG A   1      -5.906   4.678 120.129  0.00  0.00    +0.201 A 
ATOM      6  C   LIG A   1      -7.153   4.260 119.683  0.00  0.00    +0.163 A 
ATOM      7  C   LIG A   1      -8.039   3.631 120.547  0.00  0.00    +0.058 A 
ATOM      8  C   LIG A   1      -7.666   3.417 121.882  0.00  0.00    -0.001 A 
ATOM      9  C   LIG A   1      -8.578   2.759 122.805  0.00  0.00    +0.050 A 
ATOM     10  C   LIG A   1      -8.194   2.568 124.072  0.00  0.00    +0.107 A 
ATOM     11  C   LIG A   1      -9.047   1.904 125.105  0.00  0.00    +0.086 C 
ATOM     12  O   LIG A   1      -6.929   2.985 124.549  0.00  0.00    -0.427 OA
ENDROOT
BRANCH   4  13
ATOM     13  O   LIG A   1      -4.273   4.919 121.798  0.00  0.00    -0.503 OA
ATOM     14  H   LIG A   1      -3.671   4.140 121.846  0.00  0.00    +0.292 HD
ENDBRANCH   4  13
BRANCH   5  15
ATOM     15  O   LIG A   1      -5.060   5.295 119.247  0.00  0.00    -0.501 OA
ATOM     16  H   LIG A   1      -4.463   4.580 118.941  0.00  0.00    +0.292 HD
ENDBRANCH   5  15
BRANCH   6  17
ATOM     17  O   LIG A   1      -7.519   4.464 118.385  0.00  0.00    -0.503 OA
ATOM     18  H   LIG A   1      -6.737   4.877 117.965  0.00  0.00    +0.292 HD
ENDBRANCH   6  17
TORSDOF 3
ENDMDL
MODEL 9
REMARK VINA RESULT:      -5.5      8.270      9.906
REMARK  Name = NuBBE_1009
REMARK  4 active torsions:
REMARK  status: ('A' for Active; 'I' for Inactive)
REMARK    1  A    between atoms: C_4  and  O_5
REMARK    2  A    between atoms: C_6  and  O_7
REMARK    3  A    between atoms: C_8  and  O_9
REMARK    4  A    between atoms: C_13  and  C_14
REMARK                            x       y       z     vdW  Elec       q    Type
REMARK                         _______ _______ _______ _____ _____    ______ ____
ROOT
ATOM      1  O   LIG A   1     -10.386   0.769 122.100  0.00  0.00    -0.244 OA
ATOM      2  C   LIG A   1      -9.623   0.132 122.823  0.00  0.00    +0.348 A 
ATOM      3  C   LIG A   1      -8.505   0.820 123.501  0.00  0.00    +0.112 A 
ATOM      4  C   LIG A   1      -8.307   2.197 123.325  0.00  0.00    +0.177 A 
ATOM      5  C   LIG A   1      -7.249   2.825 123.973  0.00  0.00    +0.201 A 
ATOM      6  C   LIG A   1      -6.392   2.099 124.789  0.00  0.00    +0.163 A 
ATOM      7  C   LIG A   1      -6.576   0.735 124.972  0.00  0.00    +0.058 A 
ATOM      8  C   LIG A   1      -7.639   0.089 124.326  0.00  0.00    -0.001 A 
ATOM      9  C   LIG A   1      -7.851  -1.340 124.503  0.00  0.00    +0.050 A 
ATOM     10  C   LIG A   1      -8.875  -1.927 123.874  0.00  0.00    +0.107 A 
ATOM     11  C   LIG A   1      -9.188  -3.385 123.985  0.00  0.00    +0.086 C 
ATOM     12  O   LIG A   1      -9.761  -1.208 123.038  0.00  0.00    -0.427 OA
ENDROOT
BRANCH   4  13
ATOM     13  O   LIG A   1      -9.101   2.996 122.540  0.00  0.00    -0.503 OA
ATOM     14  H   LIG A   1     -10.039   2.729 122.679  0.00  0.00    +0.292 HD
ENDBRANCH   4  13
BRANCH   5  15
ATOM     15  O   LIG A   1      -7.035   4.168 123.816  0.00  0.00    -0.501 OA
ATOM     16  H   LIG A   1      -6.110   4.303 124.110  0.00  0.00    +0.292 HD
ENDBRANCH   5  15
BRANCH   6  17
ATOM     17  O   LIG A   1      -5.357   2.723 125.422  0.00  0.00    -0.503 OA
ATOM     18  H   LIG A   1      -5.240   2.228 126.259  0.00  0.00    +0.292 HD
ENDBRANCH   6  17
TORSDOF 3
ENDMDL
