MODEL 1
REMARK VINA RESULT:      -6.4      0.000      0.000
REMARK  Name = NuBBE_1685
REMARK  15 active torsions:
REMARK  status: ('A' for Active; 'I' for Inactive)
REMARK    1  A    between atoms: C_2  and  C_3
REMARK    2  A    between atoms: C_3  and  C_4
REMARK    3  A    between atoms: C_5  and  C_6
REMARK    4  A    between atoms: C_6  and  C_7
REMARK    5  A    between atoms: C_8  and  C_9
REMARK    6  A    between atoms: C_9  and  C_10
REMARK    7  A    between atoms: C_10  and  C_11
REMARK    8  A    between atoms: C_11  and  C_12
REMARK    9  A    between atoms: C_12  and  C_13
REMARK   10  A    between atoms: C_13  and  C_14
REMARK   11  A    between atoms: C_14  and  C_15
REMARK   12  A    between atoms: C_15  and  C_16
REMARK   13  A    between atoms: C_18  and  O_19
REMARK   14  A    between atoms: C_20  and  C_21
REMARK   15  A    between atoms: C_22  and  O_23
REMARK                            x       y       z     vdW  Elec       q    Type
REMARK                         _______ _______ _______ _____ _____    ______ ____
ROOT
ATOM      1  C   LIG A   1      -7.182  -1.290 128.995  0.00  0.00    +0.000 C 
ENDROOT
BRANCH   1   2
ATOM      2  C   LIG A   1      -7.116  -2.839 128.943  0.00  0.00    +0.000 C 
BRANCH   2   3
ATOM      3  C   LIG A   1      -8.483  -3.539 129.015  0.00  0.00    +0.000 C 
BRANCH   3   4
ATOM      4  C   LIG A   1      -9.135  -3.925 127.650  0.00  0.00    +0.004 C 
BRANCH   4   5
ATOM      5  C   LIG A   1      -8.939  -3.083 126.330  0.00  0.00    +0.027 C 
BRANCH   5   7
ATOM      6  C   LIG A   1      -9.105  -3.214 123.689  0.00  0.00    -0.027 C 
ATOM      7  C   LIG A   1      -9.095  -3.724 124.956  0.00  0.00    -0.031 C 
BRANCH   6   8
ATOM      8  C   LIG A   1      -8.857  -1.828 123.065  0.00  0.00    +0.054 C 
BRANCH   8  10
ATOM      9  C   LIG A   1      -6.265  -1.860 122.747  0.00  0.00    -0.027 C 
ATOM     10  C   LIG A   1      -7.533  -1.595 122.325  0.00  0.00    -0.027 C 
BRANCH   9  11
ATOM     11  C   LIG A   1      -5.756  -2.177 124.153  0.00  0.00    +0.053 C 
BRANCH  11  13
ATOM     12  C   LIG A   1      -4.382  -4.250 123.595  0.00  0.00    +0.004 C 
ATOM     13  C   LIG A   1      -5.156  -3.544 124.451  0.00  0.00    -0.031 C 
ENDBRANCH  11  13
ENDBRANCH   9  11
ENDBRANCH   8  10
ENDBRANCH   6   8
ENDBRANCH   5   7
ENDBRANCH   4   5
ENDBRANCH   3   4
ENDBRANCH   2   3
ENDBRANCH   1   2
BRANCH   1  14
ATOM     14  C   LIG A   1      -6.681  -0.620 127.700  0.00  0.00    +0.005 C 
BRANCH  14  15
ATOM     15  C   LIG A   1      -7.366   0.702 127.342  0.00  0.00    +0.035 C 
BRANCH  15  16
ATOM     16  C   LIG A   1      -7.908   0.899 125.943  0.00  0.00    -0.041 A 
ATOM     17  C   LIG A   1      -9.278   0.997 125.659  0.00  0.00    +0.049 A 
ATOM     18  C   LIG A   1      -9.705   1.420 124.382  0.00  0.00    +0.123 A 
ATOM     19  C   LIG A   1      -8.804   1.909 123.424  0.00  0.00    +0.032 A 
ATOM     20  C   LIG A   1      -9.232   2.388 122.064  0.00  0.00    +0.051 C 
ATOM     21  C   LIG A   1      -7.455   1.873 123.780  0.00  0.00    +0.123 A 
ATOM     22  C   LIG A   1      -7.015   1.230 124.930  0.00  0.00    +0.049 A 
BRANCH  18  23
ATOM     23  O   LIG A   1     -11.047   1.413 124.102  0.00  0.00    -0.506 OA
ATOM     24  H   LIG A   1     -11.425   2.242 124.439  0.00  0.00    +0.292 HD
ENDBRANCH  18  23
BRANCH  21  25
ATOM     25  O   LIG A   1      -6.482   2.636 123.180  0.00  0.00    -0.506 OA
ATOM     26  H   LIG A   1      -6.313   3.438 123.703  0.00  0.00    +0.292 HD
ENDBRANCH  21  25
ENDBRANCH  15  16
ENDBRANCH  14  15
ENDBRANCH   1  14
TORSDOF 14
ENDMDL
MODEL 2
REMARK VINA RESULT:      -6.1      2.636      4.601
REMARK  Name = NuBBE_1685
REMARK  15 active torsions:
REMARK  status: ('A' for Active; 'I' for Inactive)
REMARK    1  A    between atoms: C_2  and  C_3
REMARK    2  A    between atoms: C_3  and  C_4
REMARK    3  A    between atoms: C_5  and  C_6
REMARK    4  A    between atoms: C_6  and  C_7
REMARK    5  A    between atoms: C_8  and  C_9
REMARK    6  A    between atoms: C_9  and  C_10
REMARK    7  A    between atoms: C_10  and  C_11
REMARK    8  A    between atoms: C_11  and  C_12
REMARK    9  A    between atoms: C_12  and  C_13
REMARK   10  A    between atoms: C_13  and  C_14
REMARK   11  A    between atoms: C_14  and  C_15
REMARK   12  A    between atoms: C_15  and  C_16
REMARK   13  A    between atoms: C_18  and  O_19
REMARK   14  A    between atoms: C_20  and  C_21
REMARK   15  A    between atoms: C_22  and  O_23
REMARK                            x       y       z     vdW  Elec       q    Type
REMARK                         _______ _______ _______ _____ _____    ______ ____
ROOT
ATOM      1  C   LIG A   1      -9.494   1.562 124.757  0.00  0.00    +0.000 C 
ENDROOT
BRANCH   1   2
ATOM      2  C   LIG A   1      -8.454   1.876 125.864  0.00  0.00    +0.000 C 
BRANCH   2   3
ATOM      3  C   LIG A   1      -7.691   0.648 126.389  0.00  0.00    +0.000 C 
BRANCH   3   4
ATOM      4  C   LIG A   1      -8.551  -0.612 126.718  0.00  0.00    +0.004 C 
BRANCH   4   5
ATOM      5  C   LIG A   1      -7.940  -1.950 127.290  0.00  0.00    +0.027 C 
BRANCH   5   7
ATOM      6  C   LIG A   1      -5.585  -2.503 126.207  0.00  0.00    -0.027 C 
ATOM      7  C   LIG A   1      -6.440  -2.219 127.234  0.00  0.00    -0.031 C 
BRANCH   6   8
ATOM      8  C   LIG A   1      -5.700  -2.567 124.673  0.00  0.00    +0.054 C 
BRANCH   8  10
ATOM      9  C   LIG A   1      -7.094  -0.986 123.129  0.00  0.00    -0.027 C 
ATOM     10  C   LIG A   1      -6.019  -1.270 123.917  0.00  0.00    -0.027 C 
BRANCH   9  11
ATOM     11  C   LIG A   1      -8.131  -1.933 122.524  0.00  0.00    +0.053 C 
BRANCH  11  13
ATOM     12  C   LIG A   1      -9.158  -3.573 124.182  0.00  0.00    +0.004 C 
ATOM     13  C   LIG A   1      -9.256  -2.479 123.393  0.00  0.00    -0.031 C 
ENDBRANCH  11  13
ENDBRANCH   9  11
ENDBRANCH   8  10
ENDBRANCH   6   8
ENDBRANCH   5   7
ENDBRANCH   4   5
ENDBRANCH   3   4
ENDBRANCH   2   3
ENDBRANCH   1   2
BRANCH   1  14
ATOM     14  C   LIG A   1      -9.084   2.104 123.373  0.00  0.00    +0.005 C 
BRANCH  14  15
ATOM     15  C   LIG A   1      -7.664   2.671 123.288  0.00  0.00    +0.035 C 
BRANCH  15  16
ATOM     16  C   LIG A   1      -7.165   3.223 121.971  0.00  0.00    -0.041 A 
ATOM     17  C   LIG A   1      -8.012   3.512 120.892  0.00  0.00    +0.049 A 
ATOM     18  C   LIG A   1      -7.525   4.245 119.789  0.00  0.00    +0.123 A 
ATOM     19  C   LIG A   1      -6.255   4.845 119.800  0.00  0.00    +0.032 A 
ATOM     20  C   LIG A   1      -5.717   5.651 118.650  0.00  0.00    +0.051 C 
ATOM     21  C   LIG A   1      -5.476   4.602 120.933  0.00  0.00    +0.123 A 
ATOM     22  C   LIG A   1      -5.854   3.682 121.902  0.00  0.00    +0.049 A 
BRANCH  18  23
ATOM     23  O   LIG A   1      -8.345   4.428 118.706  0.00  0.00    -0.506 OA
ATOM     24  H   LIG A   1      -7.799   4.761 117.973  0.00  0.00    +0.292 HD
ENDBRANCH  18  23
BRANCH  21  25
ATOM     25  O   LIG A   1      -4.410   5.381 121.312  0.00  0.00    -0.506 OA
ATOM     26  H   LIG A   1      -4.067   5.086 122.173  0.00  0.00    +0.292 HD
ENDBRANCH  21  25
ENDBRANCH  15  16
ENDBRANCH  14  15
ENDBRANCH   1  14
TORSDOF 14
ENDMDL
MODEL 3
REMARK VINA RESULT:      -6.1      2.533      5.475
REMARK  Name = NuBBE_1685
REMARK  15 active torsions:
REMARK  status: ('A' for Active; 'I' for Inactive)
REMARK    1  A    between atoms: C_2  and  C_3
REMARK    2  A    between atoms: C_3  and  C_4
REMARK    3  A    between atoms: C_5  and  C_6
REMARK    4  A    between atoms: C_6  and  C_7
REMARK    5  A    between atoms: C_8  and  C_9
REMARK    6  A    between atoms: C_9  and  C_10
REMARK    7  A    between atoms: C_10  and  C_11
REMARK    8  A    between atoms: C_11  and  C_12
REMARK    9  A    between atoms: C_12  and  C_13
REMARK   10  A    between atoms: C_13  and  C_14
REMARK   11  A    between atoms: C_14  and  C_15
REMARK   12  A    between atoms: C_15  and  C_16
REMARK   13  A    between atoms: C_18  and  O_19
REMARK   14  A    between atoms: C_20  and  C_21
REMARK   15  A    between atoms: C_22  and  O_23
REMARK                            x       y       z     vdW  Elec       q    Type
REMARK                         _______ _______ _______ _____ _____    ______ ____
ROOT
ATOM      1  C   LIG A   1      -8.409  -3.723 126.526  0.00  0.00    +0.000 C 
ENDROOT
BRANCH   1   2
ATOM      2  C   LIG A   1      -9.380  -2.996 125.559  0.00  0.00    +0.000 C 
BRANCH   2   3
ATOM      3  C   LIG A   1      -9.068  -3.201 124.068  0.00  0.00    +0.000 C 
BRANCH   3   4
ATOM      4  C   LIG A   1      -8.660  -1.926 123.265  0.00  0.00    +0.004 C 
BRANCH   4   5
ATOM      5  C   LIG A   1      -7.290  -1.793 122.493  0.00  0.00    +0.027 C 
BRANCH   5   7
ATOM      6  C   LIG A   1      -5.360  -2.410 124.200  0.00  0.00    -0.027 C 
ATOM      7  C   LIG A   1      -6.025  -2.469 123.009  0.00  0.00    -0.031 C 
BRANCH   6   8
ATOM      8  C   LIG A   1      -5.622  -1.755 125.569  0.00  0.00    +0.054 C 
BRANCH   8  10
ATOM      9  C   LIG A   1      -5.948   0.831 125.734  0.00  0.00    -0.027 C 
ATOM     10  C   LIG A   1      -5.185  -0.297 125.768  0.00  0.00    -0.027 C 
BRANCH   9  11
ATOM     11  C   LIG A   1      -7.369   1.027 125.206  0.00  0.00    +0.053 C 
BRANCH  11  13
ATOM     12  C   LIG A   1      -9.850   0.660 125.660  0.00  0.00    +0.004 C 
ATOM     13  C   LIG A   1      -8.558   0.598 126.056  0.00  0.00    -0.031 C 
ENDBRANCH  11  13
ENDBRANCH   9  11
ENDBRANCH   8  10
ENDBRANCH   6   8
ENDBRANCH   5   7
ENDBRANCH   4   5
ENDBRANCH   3   4
ENDBRANCH   2   3
ENDBRANCH   1   2
BRANCH   1  14
ATOM     14  C   LIG A   1      -8.947  -3.813 127.968  0.00  0.00    +0.005 C 
BRANCH  14  15
ATOM     15  C   LIG A   1      -7.921  -3.518 129.066  0.00  0.00    +0.035 C 
BRANCH  15  16
ATOM     16  C   LIG A   1      -7.077  -2.266 128.973  0.00  0.00    -0.041 A 
ATOM     17  C   LIG A   1      -7.591  -0.978 129.181  0.00  0.00    +0.049 A 
ATOM     18  C   LIG A   1      -6.713   0.118 129.320  0.00  0.00    +0.123 A 
ATOM     19  C   LIG A   1      -5.323  -0.054 129.421  0.00  0.00    +0.032 A 
ATOM     20  C   LIG A   1      -4.365   1.093 129.591  0.00  0.00    +0.051 C 
ATOM     21  C   LIG A   1      -4.859  -1.364 129.293  0.00  0.00    +0.123 A 
ATOM     22  C   LIG A   1      -5.695  -2.405 128.910  0.00  0.00    +0.049 A 
BRANCH  18  23
ATOM     23  O   LIG A   1      -7.244   1.377 129.424  0.00  0.00    -0.506 OA
ATOM     24  H   LIG A   1      -7.409   1.705 128.524  0.00  0.00    +0.292 HD
ENDBRANCH  18  23
BRANCH  21  25
ATOM     25  O   LIG A   1      -3.632  -1.790 129.738  0.00  0.00    -0.506 OA
ATOM     26  H   LIG A   1      -3.129  -1.044 130.107  0.00  0.00    +0.292 HD
ENDBRANCH  21  25
ENDBRANCH  15  16
ENDBRANCH  14  15
ENDBRANCH   1  14
TORSDOF 14
ENDMDL
MODEL 4
REMARK VINA RESULT:      -6.1      2.445      4.996
REMARK  Name = NuBBE_1685
REMARK  15 active torsions:
REMARK  status: ('A' for Active; 'I' for Inactive)
REMARK    1  A    between atoms: C_2  and  C_3
REMARK    2  A    between atoms: C_3  and  C_4
REMARK    3  A    between atoms: C_5  and  C_6
REMARK    4  A    between atoms: C_6  and  C_7
REMARK    5  A    between atoms: C_8  and  C_9
REMARK    6  A    between atoms: C_9  and  C_10
REMARK    7  A    between atoms: C_10  and  C_11
REMARK    8  A    between atoms: C_11  and  C_12
REMARK    9  A    between atoms: C_12  and  C_13
REMARK   10  A    between atoms: C_13  and  C_14
REMARK   11  A    between atoms: C_14  and  C_15
REMARK   12  A    between atoms: C_15  and  C_16
REMARK   13  A    between atoms: C_18  and  O_19
REMARK   14  A    between atoms: C_20  and  C_21
REMARK   15  A    between atoms: C_22  and  O_23
REMARK                            x       y       z     vdW  Elec       q    Type
REMARK                         _______ _______ _______ _____ _____    ______ ____
ROOT
ATOM      1  C   LIG A   1      -7.639   0.130 123.666  0.00  0.00    +0.000 C 
ENDROOT
BRANCH   1   2
ATOM      2  C   LIG A   1      -9.053  -0.492 123.524  0.00  0.00    +0.000 C 
BRANCH   2   3
ATOM      3  C   LIG A   1      -9.079  -1.866 122.834  0.00  0.00    +0.000 C 
BRANCH   3   4
ATOM      4  C   LIG A   1      -9.257  -3.105 123.765  0.00  0.00    +0.004 C 
BRANCH   4   5
ATOM      5  C   LIG A   1      -8.072  -3.748 124.585  0.00  0.00    +0.027 C 
BRANCH   5   7
ATOM      6  C   LIG A   1      -5.594  -2.809 124.533  0.00  0.00    -0.027 C 
ATOM      7  C   LIG A   1      -6.625  -3.605 124.123  0.00  0.00    -0.031 C 
BRANCH   6   8
ATOM      8  C   LIG A   1      -5.374  -1.807 125.681  0.00  0.00    +0.054 C 
BRANCH   8  10
ATOM      9  C   LIG A   1      -7.024  -1.784 127.706  0.00  0.00    -0.027 C 
ATOM     10  C   LIG A   1      -5.883  -2.185 127.079  0.00  0.00    -0.027 C 
BRANCH   9  11
ATOM     11  C   LIG A   1      -7.973  -0.638 127.356  0.00  0.00    +0.053 C 
BRANCH  11  13
ATOM     12  C   LIG A   1      -8.606   1.717 128.095  0.00  0.00    +0.004 C 
ATOM     13  C   LIG A   1      -7.672   0.771 127.848  0.00  0.00    -0.031 C 
ENDBRANCH  11  13
ENDBRANCH   9  11
ENDBRANCH   8  10
ENDBRANCH   6   8
ENDBRANCH   5   7
ENDBRANCH   4   5
ENDBRANCH   3   4
ENDBRANCH   2   3
ENDBRANCH   1   2
BRANCH   1  14
ATOM     14  C   LIG A   1      -7.658   1.532 124.307  0.00  0.00    +0.005 C 
BRANCH  14  15
ATOM     15  C   LIG A   1      -8.328   2.625 123.468  0.00  0.00    +0.035 C 
BRANCH  15  16
ATOM     16  C   LIG A   1      -7.652   3.102 122.201  0.00  0.00    -0.041 A 
ATOM     17  C   LIG A   1      -8.360   3.477 121.050  0.00  0.00    +0.049 A 
ATOM     18  C   LIG A   1      -7.694   4.139 119.996  0.00  0.00    +0.123 A 
ATOM     19  C   LIG A   1      -6.370   4.588 120.123  0.00  0.00    +0.032 A 
ATOM     20  C   LIG A   1      -5.641   5.315 119.026  0.00  0.00    +0.051 C 
ATOM     21  C   LIG A   1      -5.728   4.268 121.321  0.00  0.00    +0.123 A 
ATOM     22  C   LIG A   1      -6.296   3.407 122.251  0.00  0.00    +0.049 A 
BRANCH  18  23
ATOM     23  O   LIG A   1      -8.387   4.405 118.844  0.00  0.00    -0.506 OA
ATOM     24  H   LIG A   1      -8.388   5.368 118.714  0.00  0.00    +0.292 HD
ENDBRANCH  18  23
BRANCH  21  25
ATOM     25  O   LIG A   1      -4.618   4.923 121.795  0.00  0.00    -0.506 OA
ATOM     26  H   LIG A   1      -4.882   5.715 122.294  0.00  0.00    +0.292 HD
ENDBRANCH  21  25
ENDBRANCH  15  16
ENDBRANCH  14  15
ENDBRANCH   1  14
TORSDOF 14
ENDMDL
MODEL 5
REMARK VINA RESULT:      -5.9      2.086      4.211
REMARK  Name = NuBBE_1685
REMARK  15 active torsions:
REMARK  status: ('A' for Active; 'I' for Inactive)
REMARK    1  A    between atoms: C_2  and  C_3
REMARK    2  A    between atoms: C_3  and  C_4
REMARK    3  A    between atoms: C_5  and  C_6
REMARK    4  A    between atoms: C_6  and  C_7
REMARK    5  A    between atoms: C_8  and  C_9
REMARK    6  A    between atoms: C_9  and  C_10
REMARK    7  A    between atoms: C_10  and  C_11
REMARK    8  A    between atoms: C_11  and  C_12
REMARK    9  A    between atoms: C_12  and  C_13
REMARK   10  A    between atoms: C_13  and  C_14
REMARK   11  A    between atoms: C_14  and  C_15
REMARK   12  A    between atoms: C_15  and  C_16
REMARK   13  A    between atoms: C_18  and  O_19
REMARK   14  A    between atoms: C_20  and  C_21
REMARK   15  A    between atoms: C_22  and  O_23
REMARK                            x       y       z     vdW  Elec       q    Type
REMARK                         _______ _______ _______ _____ _____    ______ ____
ROOT
ATOM      1  C   LIG A   1      -9.050  -0.359 123.785  0.00  0.00    +0.000 C 
ENDROOT
BRANCH   1   2
ATOM      2  C   LIG A   1      -9.106  -1.621 122.886  0.00  0.00    +0.000 C 
BRANCH   2   3
ATOM      3  C   LIG A   1      -9.209  -2.949 123.654  0.00  0.00    +0.000 C 
BRANCH   3   4
ATOM      4  C   LIG A   1      -9.513  -2.842 125.181  0.00  0.00    +0.004 C 
BRANCH   4   5
ATOM      5  C   LIG A   1      -8.638  -3.550 126.288  0.00  0.00    +0.027 C 
BRANCH   5   7
ATOM      6  C   LIG A   1      -6.867  -2.281 127.795  0.00  0.00    -0.027 C 
ATOM      7  C   LIG A   1      -8.102  -2.773 127.485  0.00  0.00    -0.031 C 
BRANCH   6   8
ATOM      8  C   LIG A   1      -5.515  -2.175 127.064  0.00  0.00    +0.054 C 
BRANCH   8  10
ATOM      9  C   LIG A   1      -5.638  -1.754 124.489  0.00  0.00    -0.027 C 
ATOM     10  C   LIG A   1      -5.454  -1.344 125.776  0.00  0.00    -0.027 C 
BRANCH   9  11
ATOM     11  C   LIG A   1      -5.661  -3.171 123.916  0.00  0.00    +0.053 C 
BRANCH  11  13
ATOM     12  C   LIG A   1      -4.211  -5.169 123.286  0.00  0.00    +0.004 C 
ATOM     13  C   LIG A   1      -4.421  -4.048 124.013  0.00  0.00    -0.031 C 
ENDBRANCH  11  13
ENDBRANCH   9  11
ENDBRANCH   8  10
ENDBRANCH   6   8
ENDBRANCH   5   7
ENDBRANCH   4   5
ENDBRANCH   3   4
ENDBRANCH   2   3
ENDBRANCH   1   2
BRANCH   1  14
ATOM     14  C   LIG A   1      -7.834   0.541 123.489  0.00  0.00    +0.005 C 
BRANCH  14  15
ATOM     15  C   LIG A   1      -7.821   1.883 124.226  0.00  0.00    +0.035 C 
BRANCH  15  16
ATOM     16  C   LIG A   1      -7.157   1.975 125.582  0.00  0.00    -0.041 A 
ATOM     17  C   LIG A   1      -7.738   1.471 126.755  0.00  0.00    +0.049 A 
ATOM     18  C   LIG A   1      -6.971   1.370 127.935  0.00  0.00    +0.123 A 
ATOM     19  C   LIG A   1      -5.587   1.604 127.942  0.00  0.00    +0.032 A 
ATOM     20  C   LIG A   1      -4.739   1.483 129.178  0.00  0.00    +0.051 C 
ATOM     21  C   LIG A   1      -5.033   2.023 126.731  0.00  0.00    +0.123 A 
ATOM     22  C   LIG A   1      -5.822   2.361 125.639  0.00  0.00    +0.049 A 
BRANCH  18  23
ATOM     23  O   LIG A   1      -7.590   0.966 129.090  0.00  0.00    -0.506 OA
ATOM     24  H   LIG A   1      -7.821   1.763 129.597  0.00  0.00    +0.292 HD
ENDBRANCH  18  23
BRANCH  21  25
ATOM     25  O   LIG A   1      -3.697   1.928 126.424  0.00  0.00    -0.506 OA
ATOM     26  H   LIG A   1      -3.367   2.779 126.088  0.00  0.00    +0.292 HD
ENDBRANCH  21  25
ENDBRANCH  15  16
ENDBRANCH  14  15
ENDBRANCH   1  14
TORSDOF 14
ENDMDL
MODEL 6
REMARK VINA RESULT:      -5.9      2.591      5.913
REMARK  Name = NuBBE_1685
REMARK  15 active torsions:
REMARK  status: ('A' for Active; 'I' for Inactive)
REMARK    1  A    between atoms: C_2  and  C_3
REMARK    2  A    between atoms: C_3  and  C_4
REMARK    3  A    between atoms: C_5  and  C_6
REMARK    4  A    between atoms: C_6  and  C_7
REMARK    5  A    between atoms: C_8  and  C_9
REMARK    6  A    between atoms: C_9  and  C_10
REMARK    7  A    between atoms: C_10  and  C_11
REMARK    8  A    between atoms: C_11  and  C_12
REMARK    9  A    between atoms: C_12  and  C_13
REMARK   10  A    between atoms: C_13  and  C_14
REMARK   11  A    between atoms: C_14  and  C_15
REMARK   12  A    between atoms: C_15  and  C_16
REMARK   13  A    between atoms: C_18  and  O_19
REMARK   14  A    between atoms: C_20  and  C_21
REMARK   15  A    between atoms: C_22  and  O_23
REMARK                            x       y       z     vdW  Elec       q    Type
REMARK                         _______ _______ _______ _____ _____    ______ ____
ROOT
ATOM      1  C   LIG A   1      -9.604  -3.367 126.201  0.00  0.00    +0.000 C 
ENDROOT
BRANCH   1   2
ATOM      2  C   LIG A   1      -9.505  -2.959 124.708  0.00  0.00    +0.000 C 
BRANCH   2   3
ATOM      3  C   LIG A   1      -8.195  -3.376 124.019  0.00  0.00    +0.000 C 
BRANCH   3   4
ATOM      4  C   LIG A   1      -7.497  -2.288 123.144  0.00  0.00    +0.004 C 
BRANCH   4   5
ATOM      5  C   LIG A   1      -6.091  -1.665 123.499  0.00  0.00    +0.027 C 
BRANCH   5   7
ATOM      6  C   LIG A   1      -5.984  -0.570 125.910  0.00  0.00    -0.027 C 
ATOM      7  C   LIG A   1      -5.653  -1.481 124.948  0.00  0.00    -0.031 C 
BRANCH   6   8
ATOM      8  C   LIG A   1      -6.999   0.583 126.023  0.00  0.00    +0.054 C 
BRANCH   8  10
ATOM      9  C   LIG A   1      -9.592   0.520 125.722  0.00  0.00    -0.027 C 
ATOM     10  C   LIG A   1      -8.445   0.238 126.401  0.00  0.00    -0.027 C 
BRANCH   9  11
ATOM     11  C   LIG A   1      -9.823   1.495 124.567  0.00  0.00    +0.053 C 
BRANCH  11  13
ATOM     12  C   LIG A   1     -10.147   0.158 122.422  0.00  0.00    +0.004 C 
ATOM     13  C   LIG A   1      -9.472   1.080 123.145  0.00  0.00    -0.031 C 
ENDBRANCH  11  13
ENDBRANCH   9  11
ENDBRANCH   8  10
ENDBRANCH   6   8
ENDBRANCH   5   7
ENDBRANCH   4   5
ENDBRANCH   3   4
ENDBRANCH   2   3
ENDBRANCH   1   2
BRANCH   1  14
ATOM     14  C   LIG A   1      -8.232  -3.439 126.900  0.00  0.00    +0.005 C 
BRANCH  14  15
ATOM     15  C   LIG A   1      -8.257  -3.199 128.413  0.00  0.00    +0.035 C 
BRANCH  15  16
ATOM     16  C   LIG A   1      -7.176  -2.349 129.044  0.00  0.00    -0.041 A 
ATOM     17  C   LIG A   1      -5.809  -2.636 128.926  0.00  0.00    +0.049 A 
ATOM     18  C   LIG A   1      -4.850  -1.680 129.327  0.00  0.00    +0.123 A 
ATOM     19  C   LIG A   1      -5.213  -0.375 129.693  0.00  0.00    +0.032 A 
ATOM     20  C   LIG A   1      -4.213   0.671 130.103  0.00  0.00    +0.051 C 
ATOM     21  C   LIG A   1      -6.583  -0.105 129.715  0.00  0.00    +0.123 A 
ATOM     22  C   LIG A   1      -7.532  -1.109 129.564  0.00  0.00    +0.049 A 
BRANCH  18  23
ATOM     23  O   LIG A   1      -3.524  -2.025 129.292  0.00  0.00    -0.506 OA
ATOM     24  H   LIG A   1      -3.407  -2.688 128.590  0.00  0.00    +0.292 HD
ENDBRANCH  18  23
BRANCH  21  25
ATOM     25  O   LIG A   1      -7.118   1.158 129.659  0.00  0.00    -0.506 OA
ATOM     26  H   LIG A   1      -6.754   1.710 130.373  0.00  0.00    +0.292 HD
ENDBRANCH  21  25
ENDBRANCH  15  16
ENDBRANCH  14  15
ENDBRANCH   1  14
TORSDOF 14
ENDMDL
MODEL 7
REMARK VINA RESULT:      -5.9      2.367      5.592
REMARK  Name = NuBBE_1685
REMARK  15 active torsions:
REMARK  status: ('A' for Active; 'I' for Inactive)
REMARK    1  A    between atoms: C_2  and  C_3
REMARK    2  A    between atoms: C_3  and  C_4
REMARK    3  A    between atoms: C_5  and  C_6
REMARK    4  A    between atoms: C_6  and  C_7
REMARK    5  A    between atoms: C_8  and  C_9
REMARK    6  A    between atoms: C_9  and  C_10
REMARK    7  A    between atoms: C_10  and  C_11
REMARK    8  A    between atoms: C_11  and  C_12
REMARK    9  A    between atoms: C_12  and  C_13
REMARK   10  A    between atoms: C_13  and  C_14
REMARK   11  A    between atoms: C_14  and  C_15
REMARK   12  A    between atoms: C_15  and  C_16
REMARK   13  A    between atoms: C_18  and  O_19
REMARK   14  A    between atoms: C_20  and  C_21
REMARK   15  A    between atoms: C_22  and  O_23
REMARK                            x       y       z     vdW  Elec       q    Type
REMARK                         _______ _______ _______ _____ _____    ______ ____
ROOT
ATOM      1  C   LIG A   1      -7.494  -2.985 130.440  0.00  0.00    +0.000 C 
ENDROOT
BRANCH   1   2
ATOM      2  C   LIG A   1      -6.476  -3.533 131.473  0.00  0.00    +0.000 C 
BRANCH   2   3
ATOM      3  C   LIG A   1      -5.396  -4.453 130.879  0.00  0.00    +0.000 C 
BRANCH   3   4
ATOM      4  C   LIG A   1      -3.948  -3.875 130.825  0.00  0.00    +0.004 C 
BRANCH   4   5
ATOM      5  C   LIG A   1      -3.532  -2.671 129.894  0.00  0.00    +0.027 C 
BRANCH   5   7
ATOM      6  C   LIG A   1      -4.631  -0.262 129.800  0.00  0.00    -0.027 C 
ATOM      7  C   LIG A   1      -3.806  -1.227 130.301  0.00  0.00    -0.031 C 
BRANCH   6   8
ATOM      8  C   LIG A   1      -5.717  -0.208 128.709  0.00  0.00    +0.054 C 
BRANCH   8  10
ATOM      9  C   LIG A   1      -8.074   0.799 128.208  0.00  0.00    -0.027 C 
ATOM     10  C   LIG A   1      -7.042   0.489 129.042  0.00  0.00    -0.027 C 
BRANCH   9  11
ATOM     11  C   LIG A   1      -8.112   0.826 126.679  0.00  0.00    +0.053 C 
BRANCH  11  13
ATOM     12  C   LIG A   1      -9.600   0.892 124.612  0.00  0.00    +0.004 C 
ATOM     13  C   LIG A   1      -9.451   0.857 125.955  0.00  0.00    -0.031 C 
ENDBRANCH  11  13
ENDBRANCH   9  11
ENDBRANCH   8  10
ENDBRANCH   6   8
ENDBRANCH   5   7
ENDBRANCH   4   5
ENDBRANCH   3   4
ENDBRANCH   2   3
ENDBRANCH   1   2
BRANCH   1  14
ATOM     14  C   LIG A   1      -7.398  -3.683 129.068  0.00  0.00    +0.005 C 
BRANCH  14  15
ATOM     15  C   LIG A   1      -8.581  -3.437 128.127  0.00  0.00    +0.035 C 
BRANCH  15  16
ATOM     16  C   LIG A   1      -8.324  -2.860 126.752  0.00  0.00    -0.041 A 
ATOM     17  C   LIG A   1      -7.043  -2.532 126.286  0.00  0.00    +0.049 A 
ATOM     18  C   LIG A   1      -6.845  -2.230 124.921  0.00  0.00    +0.123 A 
ATOM     19  C   LIG A   1      -7.861  -2.404 123.968  0.00  0.00    +0.032 A 
ATOM     20  C   LIG A   1      -7.673  -2.112 122.505  0.00  0.00    +0.051 C 
ATOM     21  C   LIG A   1      -9.100  -2.814 124.465  0.00  0.00    +0.123 A 
ATOM     22  C   LIG A   1      -9.363  -2.871 125.827  0.00  0.00    +0.049 A 
BRANCH  18  23
ATOM     23  O   LIG A   1      -5.603  -1.818 124.512  0.00  0.00    -0.506 OA
ATOM     24  H   LIG A   1      -5.590  -1.834 123.540  0.00  0.00    +0.292 HD
ENDBRANCH  18  23
BRANCH  21  25
ATOM     25  O   LIG A   1     -10.076  -3.403 123.699  0.00  0.00    -0.506 OA
ATOM     26  H   LIG A   1     -10.684  -3.912 124.262  0.00  0.00    +0.292 HD
ENDBRANCH  21  25
ENDBRANCH  15  16
ENDBRANCH  14  15
ENDBRANCH   1  14
TORSDOF 14
ENDMDL
MODEL 8
REMARK VINA RESULT:      -5.9      1.678      4.103
REMARK  Name = NuBBE_1685
REMARK  15 active torsions:
REMARK  status: ('A' for Active; 'I' for Inactive)
REMARK    1  A    between atoms: C_2  and  C_3
REMARK    2  A    between atoms: C_3  and  C_4
REMARK    3  A    between atoms: C_5  and  C_6
REMARK    4  A    between atoms: C_6  and  C_7
REMARK    5  A    between atoms: C_8  and  C_9
REMARK    6  A    between atoms: C_9  and  C_10
REMARK    7  A    between atoms: C_10  and  C_11
REMARK    8  A    between atoms: C_11  and  C_12
REMARK    9  A    between atoms: C_12  and  C_13
REMARK   10  A    between atoms: C_13  and  C_14
REMARK   11  A    between atoms: C_14  and  C_15
REMARK   12  A    between atoms: C_15  and  C_16
REMARK   13  A    between atoms: C_18  and  O_19
REMARK   14  A    between atoms: C_20  and  C_21
REMARK   15  A    between atoms: C_22  and  O_23
REMARK                            x       y       z     vdW  Elec       q    Type
REMARK                         _______ _______ _______ _____ _____    ______ ____
ROOT
ATOM      1  C   LIG A   1      -8.975  -3.225 123.562  0.00  0.00    +0.000 C 
ENDROOT
BRANCH   1   2
ATOM      2  C   LIG A   1      -8.403  -3.535 124.970  0.00  0.00    +0.000 C 
BRANCH   2   3
ATOM      3  C   LIG A   1      -9.233  -2.971 126.135  0.00  0.00    +0.000 C 
BRANCH   3   4
ATOM      4  C   LIG A   1      -9.269  -3.829 127.437  0.00  0.00    +0.004 C 
BRANCH   4   5
ATOM      5  C   LIG A   1      -8.250  -3.639 128.626  0.00  0.00    +0.027 C 
BRANCH   5   7
ATOM      6  C   LIG A   1      -6.855  -1.500 129.333  0.00  0.00    -0.027 C 
ATOM      7  C   LIG A   1      -7.982  -2.262 129.224  0.00  0.00    -0.031 C 
BRANCH   6   8
ATOM      8  C   LIG A   1      -5.405  -1.610 128.823  0.00  0.00    +0.054 C 
BRANCH   8  10
ATOM      9  C   LIG A   1      -5.374  -1.851 126.223  0.00  0.00    -0.027 C 
ATOM     10  C   LIG A   1      -5.162  -2.319 127.485  0.00  0.00    -0.027 C 
BRANCH   9  11
ATOM     11  C   LIG A   1      -6.176  -0.634 125.761  0.00  0.00    +0.053 C 
BRANCH  11  13
ATOM     12  C   LIG A   1      -5.449   1.580 126.792  0.00  0.00    +0.004 C 
ATOM     13  C   LIG A   1      -5.520   0.740 125.735  0.00  0.00    -0.031 C 
ENDBRANCH  11  13
ENDBRANCH   9  11
ENDBRANCH   8  10
ENDBRANCH   6   8
ENDBRANCH   5   7
ENDBRANCH   4   5
ENDBRANCH   3   4
ENDBRANCH   2   3
ENDBRANCH   1   2
BRANCH   1  14
ATOM     14  C   LIG A   1      -8.466  -1.889 122.984  0.00  0.00    +0.005 C 
BRANCH  14  15
ATOM     15  C   LIG A   1      -9.538  -0.814 122.784  0.00  0.00    +0.035 C 
BRANCH  15  16
ATOM     16  C   LIG A   1      -9.420   0.496 123.532  0.00  0.00    -0.041 A 
ATOM     17  C   LIG A   1      -9.336   0.575 124.930  0.00  0.00    +0.049 A 
ATOM     18  C   LIG A   1      -8.985   1.794 125.548  0.00  0.00    +0.123 A 
ATOM     19  C   LIG A   1      -8.553   2.904 124.805  0.00  0.00    +0.032 A 
ATOM     20  C   LIG A   1      -8.152   4.209 125.436  0.00  0.00    +0.051 C 
ATOM     21  C   LIG A   1      -8.572   2.755 123.417  0.00  0.00    +0.123 A 
ATOM     22  C   LIG A   1      -9.149   1.650 122.805  0.00  0.00    +0.049 A 
BRANCH  18  23
ATOM     23  O   LIG A   1      -9.006   1.868 126.916  0.00  0.00    -0.506 OA
ATOM     24  H   LIG A   1      -8.875   0.969 127.264  0.00  0.00    +0.292 HD
ENDBRANCH  18  23
BRANCH  21  25
ATOM     25  O   LIG A   1      -7.847   3.536 122.551  0.00  0.00    -0.506 OA
ATOM     26  H   LIG A   1      -7.021   3.829 122.973  0.00  0.00    +0.292 HD
ENDBRANCH  21  25
ENDBRANCH  15  16
ENDBRANCH  14  15
ENDBRANCH   1  14
TORSDOF 14
ENDMDL
MODEL 9
REMARK VINA RESULT:      -5.9      3.087      4.850
REMARK  Name = NuBBE_1685
REMARK  15 active torsions:
REMARK  status: ('A' for Active; 'I' for Inactive)
REMARK    1  A    between atoms: C_2  and  C_3
REMARK    2  A    between atoms: C_3  and  C_4
REMARK    3  A    between atoms: C_5  and  C_6
REMARK    4  A    between atoms: C_6  and  C_7
REMARK    5  A    between atoms: C_8  and  C_9
REMARK    6  A    between atoms: C_9  and  C_10
REMARK    7  A    between atoms: C_10  and  C_11
REMARK    8  A    between atoms: C_11  and  C_12
REMARK    9  A    between atoms: C_12  and  C_13
REMARK   10  A    between atoms: C_13  and  C_14
REMARK   11  A    between atoms: C_14  and  C_15
REMARK   12  A    between atoms: C_15  and  C_16
REMARK   13  A    between atoms: C_18  and  O_19
REMARK   14  A    between atoms: C_20  and  C_21
REMARK   15  A    between atoms: C_22  and  O_23
REMARK                            x       y       z     vdW  Elec       q    Type
REMARK                         _______ _______ _______ _____ _____    ______ ____
ROOT
ATOM      1  C   LIG A   1      -8.223  -2.919 129.449  0.00  0.00    +0.000 C 
ENDROOT
BRANCH   1   2
ATOM      2  C   LIG A   1      -7.951  -2.826 127.925  0.00  0.00    +0.000 C 
BRANCH   2   3
ATOM      3  C   LIG A   1      -8.898  -3.670 127.056  0.00  0.00    +0.000 C 
BRANCH   3   4
ATOM      4  C   LIG A   1      -9.400  -3.008 125.735  0.00  0.00    +0.004 C 
BRANCH   4   5
ATOM      5  C   LIG A   1      -9.046  -3.562 124.301  0.00  0.00    +0.027 C 
BRANCH   5   7
ATOM      6  C   LIG A   1      -7.930  -1.935 122.533  0.00  0.00    -0.027 C 
ATOM      7  C   LIG A   1      -8.960  -2.633 123.095  0.00  0.00    -0.031 C 
BRANCH   6   8
ATOM      8  C   LIG A   1      -6.409  -1.850 122.764  0.00  0.00    +0.054 C 
BRANCH   8  10
ATOM      9  C   LIG A   1      -6.014  -1.309 125.289  0.00  0.00    -0.027 C 
ATOM     10  C   LIG A   1      -5.880  -2.094 124.184  0.00  0.00    -0.027 C 
BRANCH   9  11
ATOM     11  C   LIG A   1      -6.454   0.151 125.394  0.00  0.00    +0.053 C 
BRANCH  11  13
ATOM     12  C   LIG A   1      -8.936   0.418 125.909  0.00  0.00    +0.004 C 
ATOM     13  C   LIG A   1      -7.889   0.536 125.061  0.00  0.00    -0.031 C 
ENDBRANCH  11  13
ENDBRANCH   9  11
ENDBRANCH   8  10
ENDBRANCH   6   8
ENDBRANCH   5   7
ENDBRANCH   4   5
ENDBRANCH   3   4
ENDBRANCH   2   3
ENDBRANCH   1   2
BRANCH   1  14
ATOM     14  C   LIG A   1      -7.942  -1.598 130.194  0.00  0.00    +0.005 C 
BRANCH  14  15
ATOM     15  C   LIG A   1      -7.629  -0.397 129.297  0.00  0.00    +0.035 C 
BRANCH  15  16
ATOM     16  C   LIG A   1      -8.048   0.987 129.742  0.00  0.00    -0.041 A 
ATOM     17  C   LIG A   1      -8.091   2.090 128.877  0.00  0.00    +0.049 A 
ATOM     18  C   LIG A   1      -8.717   3.286 129.288  0.00  0.00    +0.123 A 
ATOM     19  C   LIG A   1      -9.451   3.365 130.483  0.00  0.00    +0.032 A 
ATOM     20  C   LIG A   1     -10.147   4.619 130.936  0.00  0.00    +0.051 C 
ATOM     21  C   LIG A   1      -9.453   2.216 131.275  0.00  0.00    +0.123 A 
ATOM     22  C   LIG A   1      -8.637   1.128 130.994  0.00  0.00    +0.049 A 
BRANCH  18  23
ATOM     23  O   LIG A   1      -8.659   4.377 128.461  0.00  0.00    -0.506 OA
ATOM     24  H   LIG A   1      -7.753   4.437 128.112  0.00  0.00    +0.292 HD
ENDBRANCH  18  23
BRANCH  21  25
ATOM     25  O   LIG A   1     -10.390   1.954 132.244  0.00  0.00    -0.506 OA
ATOM     26  H   LIG A   1     -11.269   2.250 131.952  0.00  0.00    +0.292 HD
ENDBRANCH  21  25
ENDBRANCH  15  16
ENDBRANCH  14  15
ENDBRANCH   1  14
TORSDOF 14
ENDMDL
