MODEL 1
REMARK VINA RESULT:      -6.4      0.000      0.000
REMARK  Name = NuBBE_632
REMARK  17 active torsions:
REMARK  status: ('A' for Active; 'I' for Inactive)
REMARK    1  A    between atoms: C_2  and  O_3
REMARK    2  A    between atoms: C_2  and  C_16
REMARK    3  A    between atoms: O_3  and  C_4
REMARK    4  A    between atoms: C_4  and  C_5
REMARK    5  A    between atoms: C_5  and  C_6
REMARK    6  A    between atoms: C_6  and  C_7
REMARK    7  A    between atoms: C_7  and  C_8
REMARK    8  A    between atoms: C_8  and  C_9
REMARK    9  A    between atoms: C_9  and  C_10
REMARK   10  A    between atoms: C_10  and  C_11
REMARK   11  A    between atoms: C_11  and  C_12
REMARK   12  A    between atoms: C_12  and  C_13
REMARK   13  A    between atoms: C_13  and  C_14
REMARK   14  A    between atoms: C_14  and  C_15
REMARK   15  A    between atoms: C_18  and  O_19
REMARK   16  A    between atoms: C_20  and  O_21
REMARK   17  A    between atoms: C_22  and  O_23
REMARK                            x       y       z     vdW  Elec       q    Type
REMARK                         _______ _______ _______ _____ _____    ______ ____
ROOT
ATOM      1  O   LIG A   1      -7.761   3.316 125.114  0.00  0.00    -0.245 OA
ATOM      2  C   LIG A   1      -7.879   2.655 124.164  0.00  0.00    +0.339 C 
ENDROOT
BRANCH   2   3
ATOM      3  C   LIG A   1      -7.634   3.126 122.758  0.00  0.00    +0.066 A 
ATOM      4  C   LIG A   1      -8.742   3.249 121.913  0.00  0.00    +0.064 A 
ATOM      5  C   LIG A   1      -8.539   3.702 120.614  0.00  0.00    +0.163 A 
ATOM      6  C   LIG A   1      -7.261   4.050 120.179  0.00  0.00    +0.201 A 
ATOM      7  C   LIG A   1      -6.178   3.969 121.040  0.00  0.00    +0.163 A 
ATOM      8  C   LIG A   1      -6.354   3.520 122.334  0.00  0.00    +0.064 A 
BRANCH   7   9
ATOM      9  O   LIG A   1      -4.928   4.320 120.624  0.00  0.00    -0.503 OA
ATOM     10  H   LIG A   1      -4.328   3.708 121.096  0.00  0.00    +0.292 HD
ENDBRANCH   7   9
BRANCH   6  11
ATOM     11  O   LIG A   1      -7.054   4.474 118.895  0.00  0.00    -0.501 OA
ATOM     12  H   LIG A   1      -6.591   5.330 118.997  0.00  0.00    +0.292 HD
ENDBRANCH   6  11
BRANCH   5  13
ATOM     13  O   LIG A   1      -9.568   3.823 119.723  0.00  0.00    -0.503 OA
ATOM     14  H   LIG A   1      -9.336   3.328 118.918  0.00  0.00    +0.292 HD
ENDBRANCH   5  13
ENDBRANCH   2   3
BRANCH   2  15
ATOM     15  O   LIG A   1      -8.098   1.293 124.082  0.00  0.00    -0.461 OA
BRANCH  15  16
ATOM     16  C   LIG A   1      -9.324   0.837 124.665  0.00  0.00    +0.232 C 
BRANCH  16  17
ATOM     17  C   LIG A   1      -9.057   0.360 126.085  0.00  0.00    +0.041 C 
BRANCH  17  18
ATOM     18  C   LIG A   1      -8.104  -0.809 126.064  0.00  0.00    +0.003 C 
BRANCH  18  19
ATOM     19  C   LIG A   1      -8.565  -1.913 126.934  0.00  0.00    +0.000 C 
BRANCH  19  20
ATOM     20  C   LIG A   1      -8.354  -3.186 126.126  0.00  0.00    -0.000 C 
BRANCH  20  21
ATOM     21  C   LIG A   1      -9.006  -2.940 124.808  0.00  0.00    -0.000 C 
BRANCH  21  22
ATOM     22  C   LIG A   1      -8.720  -3.153 123.348  0.00  0.00    -0.000 C 
BRANCH  22  23
ATOM     23  C   LIG A   1      -7.839  -2.023 122.641  0.00  0.00    -0.000 C 
BRANCH  23  24
ATOM     24  C   LIG A   1      -6.395  -1.598 123.172  0.00  0.00    -0.000 C 
BRANCH  24  25
ATOM     25  C   LIG A   1      -5.450  -2.546 124.030  0.00  0.00    -0.000 C 
BRANCH  25  26
ATOM     26  C   LIG A   1      -4.384  -3.383 123.295  0.00  0.00    -0.003 C 
ATOM     27  C   LIG A   1      -4.660  -4.769 123.699  0.00  0.00    +0.004 C 
ENDBRANCH  25  26
ENDBRANCH  24  25
ENDBRANCH  23  24
ENDBRANCH  22  23
ENDBRANCH  21  22
ENDBRANCH  20  21
ENDBRANCH  19  20
ENDBRANCH  18  19
ENDBRANCH  17  18
ENDBRANCH  16  17
ENDBRANCH  15  16
ENDBRANCH   2  15
TORSDOF 16
ENDMDL
MODEL 2
REMARK VINA RESULT:      -6.3      1.467      2.655
REMARK  Name = NuBBE_632
REMARK  17 active torsions:
REMARK  status: ('A' for Active; 'I' for Inactive)
REMARK    1  A    between atoms: C_2  and  O_3
REMARK    2  A    between atoms: C_2  and  C_16
REMARK    3  A    between atoms: O_3  and  C_4
REMARK    4  A    between atoms: C_4  and  C_5
REMARK    5  A    between atoms: C_5  and  C_6
REMARK    6  A    between atoms: C_6  and  C_7
REMARK    7  A    between atoms: C_7  and  C_8
REMARK    8  A    between atoms: C_8  and  C_9
REMARK    9  A    between atoms: C_9  and  C_10
REMARK   10  A    between atoms: C_10  and  C_11
REMARK   11  A    between atoms: C_11  and  C_12
REMARK   12  A    between atoms: C_12  and  C_13
REMARK   13  A    between atoms: C_13  and  C_14
REMARK   14  A    between atoms: C_14  and  C_15
REMARK   15  A    between atoms: C_18  and  O_19
REMARK   16  A    between atoms: C_20  and  O_21
REMARK   17  A    between atoms: C_22  and  O_23
REMARK                            x       y       z     vdW  Elec       q    Type
REMARK                         _______ _______ _______ _____ _____    ______ ____
ROOT
ATOM      1  O   LIG A   1      -6.019   2.844 124.367  0.00  0.00    -0.245 OA
ATOM      2  C   LIG A   1      -6.603   2.847 123.361  0.00  0.00    +0.339 C 
ENDROOT
BRANCH   2   3
ATOM      3  C   LIG A   1      -6.215   3.644 122.148  0.00  0.00    +0.066 A 
ATOM      4  C   LIG A   1      -7.019   3.524 121.009  0.00  0.00    +0.064 A 
ATOM      5  C   LIG A   1      -6.689   4.269 119.882  0.00  0.00    +0.163 A 
ATOM      6  C   LIG A   1      -5.595   5.134 119.903  0.00  0.00    +0.201 A 
ATOM      7  C   LIG A   1      -4.834   5.280 121.052  0.00  0.00    +0.163 A 
ATOM      8  C   LIG A   1      -5.142   4.550 122.184  0.00  0.00    +0.064 A 
BRANCH   7   9
ATOM      9  O   LIG A   1      -3.773   6.134 121.083  0.00  0.00    -0.503 OA
ATOM     10  H   LIG A   1      -3.869   6.622 121.926  0.00  0.00    +0.292 HD
ENDBRANCH   7   9
BRANCH   6  11
ATOM     11  O   LIG A   1      -5.253   5.851 118.790  0.00  0.00    -0.501 OA
ATOM     12  H   LIG A   1      -4.655   6.548 119.128  0.00  0.00    +0.292 HD
ENDBRANCH   6  11
BRANCH   5  13
ATOM     13  O   LIG A   1      -7.410   4.185 118.725  0.00  0.00    -0.503 OA
ATOM     14  H   LIG A   1      -7.231   4.982 118.194  0.00  0.00    +0.292 HD
ENDBRANCH   5  13
ENDBRANCH   2   3
BRANCH   2  15
ATOM     15  O   LIG A   1      -7.653   2.038 122.972  0.00  0.00    -0.461 OA
BRANCH  15  16
ATOM     16  C   LIG A   1      -8.720   1.925 123.921  0.00  0.00    +0.232 C 
BRANCH  16  17
ATOM     17  C   LIG A   1      -9.938   1.321 123.237  0.00  0.00    +0.041 C 
BRANCH  17  18
ATOM     18  C   LIG A   1      -9.643  -0.098 122.822  0.00  0.00    +0.003 C 
BRANCH  18  19
ATOM     19  C   LIG A   1      -9.191  -0.925 123.962  0.00  0.00    +0.000 C 
BRANCH  19  20
ATOM     20  C   LIG A   1      -8.899  -2.300 123.380  0.00  0.00    -0.000 C 
BRANCH  20  21
ATOM     21  C   LIG A   1      -7.762  -2.105 122.435  0.00  0.00    -0.000 C 
BRANCH  21  22
ATOM     22  C   LIG A   1      -6.277  -1.877 122.485  0.00  0.00    -0.000 C 
BRANCH  22  23
ATOM     23  C   LIG A   1      -5.458  -2.838 123.462  0.00  0.00    -0.000 C 
BRANCH  23  24
ATOM     24  C   LIG A   1      -5.485  -2.680 125.050  0.00  0.00    -0.000 C 
BRANCH  24  25
ATOM     25  C   LIG A   1      -5.609  -1.283 125.800  0.00  0.00    -0.000 C 
BRANCH  25  26
ATOM     26  C   LIG A   1      -6.830  -1.042 126.711  0.00  0.00    -0.003 C 
ATOM     27  C   LIG A   1      -7.392  -2.382 126.935  0.00  0.00    +0.004 C 
ENDBRANCH  25  26
ENDBRANCH  24  25
ENDBRANCH  23  24
ENDBRANCH  22  23
ENDBRANCH  21  22
ENDBRANCH  20  21
ENDBRANCH  19  20
ENDBRANCH  18  19
ENDBRANCH  17  18
ENDBRANCH  16  17
ENDBRANCH  15  16
ENDBRANCH   2  15
TORSDOF 16
ENDMDL
MODEL 3
REMARK VINA RESULT:      -6.1      2.038      3.379
REMARK  Name = NuBBE_632
REMARK  17 active torsions:
REMARK  status: ('A' for Active; 'I' for Inactive)
REMARK    1  A    between atoms: C_2  and  O_3
REMARK    2  A    between atoms: C_2  and  C_16
REMARK    3  A    between atoms: O_3  and  C_4
REMARK    4  A    between atoms: C_4  and  C_5
REMARK    5  A    between atoms: C_5  and  C_6
REMARK    6  A    between atoms: C_6  and  C_7
REMARK    7  A    between atoms: C_7  and  C_8
REMARK    8  A    between atoms: C_8  and  C_9
REMARK    9  A    between atoms: C_9  and  C_10
REMARK   10  A    between atoms: C_10  and  C_11
REMARK   11  A    between atoms: C_11  and  C_12
REMARK   12  A    between atoms: C_12  and  C_13
REMARK   13  A    between atoms: C_13  and  C_14
REMARK   14  A    between atoms: C_14  and  C_15
REMARK   15  A    between atoms: C_18  and  O_19
REMARK   16  A    between atoms: C_20  and  O_21
REMARK   17  A    between atoms: C_22  and  O_23
REMARK                            x       y       z     vdW  Elec       q    Type
REMARK                         _______ _______ _______ _____ _____    ______ ____
ROOT
ATOM      1  O   LIG A   1      -6.297   2.998 124.482  0.00  0.00    -0.245 OA
ATOM      2  C   LIG A   1      -6.647   2.787 123.393  0.00  0.00    +0.339 C 
ENDROOT
BRANCH   2   3
ATOM      3  C   LIG A   1      -6.234   3.588 122.191  0.00  0.00    +0.066 A 
ATOM      4  C   LIG A   1      -7.015   3.472 121.036  0.00  0.00    +0.064 A 
ATOM      5  C   LIG A   1      -6.662   4.222 119.918  0.00  0.00    +0.163 A 
ATOM      6  C   LIG A   1      -5.569   5.086 119.964  0.00  0.00    +0.201 A 
ATOM      7  C   LIG A   1      -4.832   5.228 121.129  0.00  0.00    +0.163 A 
ATOM      8  C   LIG A   1      -5.162   4.494 122.252  0.00  0.00    +0.064 A 
BRANCH   7   9
ATOM      9  O   LIG A   1      -3.770   6.082 121.184  0.00  0.00    -0.503 OA
ATOM     10  H   LIG A   1      -3.950   6.653 121.958  0.00  0.00    +0.292 HD
ENDBRANCH   7   9
BRANCH   6  11
ATOM     11  O   LIG A   1      -5.204   5.807 118.860  0.00  0.00    -0.501 OA
ATOM     12  H   LIG A   1      -4.325   5.450 118.621  0.00  0.00    +0.292 HD
ENDBRANCH   6  11
BRANCH   5  13
ATOM     13  O   LIG A   1      -7.360   4.142 118.746  0.00  0.00    -0.503 OA
ATOM     14  H   LIG A   1      -7.739   3.248 118.676  0.00  0.00    +0.292 HD
ENDBRANCH   5  13
ENDBRANCH   2   3
BRANCH   2  15
ATOM     15  O   LIG A   1      -7.359   1.706 122.910  0.00  0.00    -0.461 OA
BRANCH  15  16
ATOM     16  C   LIG A   1      -8.568   1.407 123.618  0.00  0.00    +0.232 C 
BRANCH  16  17
ATOM     17  C   LIG A   1      -9.014  -0.006 123.274  0.00  0.00    +0.041 C 
BRANCH  17  18
ATOM     18  C   LIG A   1      -7.879  -0.974 123.504  0.00  0.00    +0.003 C 
BRANCH  18  19
ATOM     19  C   LIG A   1      -8.237  -2.350 123.098  0.00  0.00    +0.000 C 
BRANCH  19  20
ATOM     20  C   LIG A   1      -7.562  -3.264 124.110  0.00  0.00    -0.000 C 
BRANCH  20  21
ATOM     21  C   LIG A   1      -7.958  -2.744 125.450  0.00  0.00    -0.000 C 
BRANCH  21  22
ATOM     22  C   LIG A   1      -9.090  -2.888 126.430  0.00  0.00    -0.000 C 
BRANCH  22  23
ATOM     23  C   LIG A   1      -8.838  -3.903 127.637  0.00  0.00    -0.000 C 
BRANCH  23  24
ATOM     24  C   LIG A   1      -8.001  -3.508 128.936  0.00  0.00    -0.000 C 
BRANCH  24  25
ATOM     25  C   LIG A   1      -6.618  -2.722 128.895  0.00  0.00    -0.000 C 
BRANCH  25  26
ATOM     26  C   LIG A   1      -5.440  -3.264 129.729  0.00  0.00    -0.003 C 
ATOM     27  C   LIG A   1      -5.981  -4.453 130.404  0.00  0.00    +0.004 C 
ENDBRANCH  25  26
ENDBRANCH  24  25
ENDBRANCH  23  24
ENDBRANCH  22  23
ENDBRANCH  21  22
ENDBRANCH  20  21
ENDBRANCH  19  20
ENDBRANCH  18  19
ENDBRANCH  17  18
ENDBRANCH  16  17
ENDBRANCH  15  16
ENDBRANCH   2  15
TORSDOF 16
ENDMDL
MODEL 4
REMARK VINA RESULT:      -6.0      1.731      4.100
REMARK  Name = NuBBE_632
REMARK  17 active torsions:
REMARK  status: ('A' for Active; 'I' for Inactive)
REMARK    1  A    between atoms: C_2  and  O_3
REMARK    2  A    between atoms: C_2  and  C_16
REMARK    3  A    between atoms: O_3  and  C_4
REMARK    4  A    between atoms: C_4  and  C_5
REMARK    5  A    between atoms: C_5  and  C_6
REMARK    6  A    between atoms: C_6  and  C_7
REMARK    7  A    between atoms: C_7  and  C_8
REMARK    8  A    between atoms: C_8  and  C_9
REMARK    9  A    between atoms: C_9  and  C_10
REMARK   10  A    between atoms: C_10  and  C_11
REMARK   11  A    between atoms: C_11  and  C_12
REMARK   12  A    between atoms: C_12  and  C_13
REMARK   13  A    between atoms: C_13  and  C_14
REMARK   14  A    between atoms: C_14  and  C_15
REMARK   15  A    between atoms: C_18  and  O_19
REMARK   16  A    between atoms: C_20  and  O_21
REMARK   17  A    between atoms: C_22  and  O_23
REMARK                            x       y       z     vdW  Elec       q    Type
REMARK                         _______ _______ _______ _____ _____    ______ ____
ROOT
ATOM      1  O   LIG A   1     -11.155   0.887 123.278  0.00  0.00    -0.245 OA
ATOM      2  C   LIG A   1     -10.019   0.679 123.419  0.00  0.00    +0.339 C 
ENDROOT
BRANCH   2   3
ATOM      3  C   LIG A   1      -8.931   1.695 123.220  0.00  0.00    +0.066 A 
ATOM      4  C   LIG A   1      -7.929   1.772 124.194  0.00  0.00    +0.064 A 
ATOM      5  C   LIG A   1      -6.902   2.692 124.018  0.00  0.00    +0.163 A 
ATOM      6  C   LIG A   1      -6.863   3.499 122.882  0.00  0.00    +0.201 A 
ATOM      7  C   LIG A   1      -7.835   3.381 121.901  0.00  0.00    +0.163 A 
ATOM      8  C   LIG A   1      -8.867   2.475 122.053  0.00  0.00    +0.064 A 
BRANCH   7   9
ATOM      9  O   LIG A   1      -7.795   4.158 120.781  0.00  0.00    -0.503 OA
ATOM     10  H   LIG A   1      -7.290   3.630 120.130  0.00  0.00    +0.292 HD
ENDBRANCH   7   9
BRANCH   6  11
ATOM     11  O   LIG A   1      -5.867   4.422 122.717  0.00  0.00    -0.501 OA
ATOM     12  H   LIG A   1      -5.257   4.004 122.075  0.00  0.00    +0.292 HD
ENDBRANCH   6  11
BRANCH   5  13
ATOM     13  O   LIG A   1      -5.903   2.844 124.939  0.00  0.00    -0.503 OA
ATOM     14  H   LIG A   1      -6.221   3.438 125.641  0.00  0.00    +0.292 HD
ENDBRANCH   5  13
ENDBRANCH   2   3
BRANCH   2  15
ATOM     15  O   LIG A   1      -9.407  -0.445 123.940  0.00  0.00    -0.461 OA
BRANCH  15  16
ATOM     16  C   LIG A   1      -9.128  -1.483 122.992  0.00  0.00    +0.232 C 
BRANCH  16  17
ATOM     17  C   LIG A   1      -9.073  -2.820 123.715  0.00  0.00    +0.041 C 
BRANCH  17  18
ATOM     18  C   LIG A   1      -7.637  -3.236 123.919  0.00  0.00    +0.003 C 
BRANCH  18  19
ATOM     19  C   LIG A   1      -6.703  -2.395 123.139  0.00  0.00    +0.000 C 
BRANCH  19  20
ATOM     20  C   LIG A   1      -5.334  -2.617 123.765  0.00  0.00    -0.000 C 
BRANCH  20  21
ATOM     21  C   LIG A   1      -5.404  -1.998 125.119  0.00  0.00    -0.000 C 
BRANCH  21  22
ATOM     22  C   LIG A   1      -5.646  -0.647 125.734  0.00  0.00    -0.000 C 
BRANCH  22  23
ATOM     23  C   LIG A   1      -6.550  -0.636 127.050  0.00  0.00    -0.000 C 
BRANCH  23  24
ATOM     24  C   LIG A   1      -7.954  -1.388 127.140  0.00  0.00    -0.000 C 
BRANCH  24  25
ATOM     25  C   LIG A   1      -8.112  -2.938 127.458  0.00  0.00    -0.000 C 
BRANCH  25  26
ATOM     26  C   LIG A   1      -8.570  -3.357 128.870  0.00  0.00    -0.003 C 
ATOM     27  C   LIG A   1      -7.333  -3.395 129.663  0.00  0.00    +0.004 C 
ENDBRANCH  25  26
ENDBRANCH  24  25
ENDBRANCH  23  24
ENDBRANCH  22  23
ENDBRANCH  21  22
ENDBRANCH  20  21
ENDBRANCH  19  20
ENDBRANCH  18  19
ENDBRANCH  17  18
ENDBRANCH  16  17
ENDBRANCH  15  16
ENDBRANCH   2  15
TORSDOF 16
ENDMDL
MODEL 5
REMARK VINA RESULT:      -6.0      1.830      2.663
REMARK  Name = NuBBE_632
REMARK  17 active torsions:
REMARK  status: ('A' for Active; 'I' for Inactive)
REMARK    1  A    between atoms: C_2  and  O_3
REMARK    2  A    between atoms: C_2  and  C_16
REMARK    3  A    between atoms: O_3  and  C_4
REMARK    4  A    between atoms: C_4  and  C_5
REMARK    5  A    between atoms: C_5  and  C_6
REMARK    6  A    between atoms: C_6  and  C_7
REMARK    7  A    between atoms: C_7  and  C_8
REMARK    8  A    between atoms: C_8  and  C_9
REMARK    9  A    between atoms: C_9  and  C_10
REMARK   10  A    between atoms: C_10  and  C_11
REMARK   11  A    between atoms: C_11  and  C_12
REMARK   12  A    between atoms: C_12  and  C_13
REMARK   13  A    between atoms: C_13  and  C_14
REMARK   14  A    between atoms: C_14  and  C_15
REMARK   15  A    between atoms: C_18  and  O_19
REMARK   16  A    between atoms: C_20  and  O_21
REMARK   17  A    between atoms: C_22  and  O_23
REMARK                            x       y       z     vdW  Elec       q    Type
REMARK                         _______ _______ _______ _____ _____    ______ ____
ROOT
ATOM      1  O   LIG A   1      -4.742   1.185 126.283  0.00  0.00    -0.245 OA
ATOM      2  C   LIG A   1      -5.896   1.319 126.223  0.00  0.00    +0.339 C 
ENDROOT
BRANCH   2   3
ATOM      3  C   LIG A   1      -6.627   1.953 125.073  0.00  0.00    +0.066 A 
ATOM      4  C   LIG A   1      -7.974   1.620 124.898  0.00  0.00    +0.064 A 
ATOM      5  C   LIG A   1      -8.673   2.213 123.851  0.00  0.00    +0.163 A 
ATOM      6  C   LIG A   1      -8.046   3.137 123.016  0.00  0.00    +0.201 A 
ATOM      7  C   LIG A   1      -6.724   3.495 123.230  0.00  0.00    +0.163 A 
ATOM      8  C   LIG A   1      -6.008   2.919 124.262  0.00  0.00    +0.064 A 
BRANCH   7   9
ATOM      9  O   LIG A   1      -6.109   4.407 122.425  0.00  0.00    -0.503 OA
ATOM     10  H   LIG A   1      -5.983   3.943 121.573  0.00  0.00    +0.292 HD
ENDBRANCH   7   9
BRANCH   6  11
ATOM     11  O   LIG A   1      -8.723   3.703 121.972  0.00  0.00    -0.501 OA
ATOM     12  H   LIG A   1      -8.310   3.309 121.177  0.00  0.00    +0.292 HD
ENDBRANCH   6  11
BRANCH   5  13
ATOM     13  O   LIG A   1      -9.983   1.917 123.600  0.00  0.00    -0.503 OA
ATOM     14  H   LIG A   1     -10.399   2.694 123.187  0.00  0.00    +0.292 HD
ENDBRANCH   5  13
ENDBRANCH   2   3
BRANCH   2  15
ATOM     15  O   LIG A   1      -6.868   0.811 127.064  0.00  0.00    -0.461 OA
BRANCH  15  16
ATOM     16  C   LIG A   1      -6.578  -0.475 127.624  0.00  0.00    +0.232 C 
BRANCH  16  17
ATOM     17  C   LIG A   1      -7.687  -0.862 128.591  0.00  0.00    +0.041 C 
BRANCH  17  18
ATOM     18  C   LIG A   1      -7.801  -2.364 128.668  0.00  0.00    +0.003 C 
BRANCH  18  19
ATOM     19  C   LIG A   1      -7.606  -3.001 127.347  0.00  0.00    +0.000 C 
BRANCH  19  20
ATOM     20  C   LIG A   1      -9.005  -3.309 126.831  0.00  0.00    -0.000 C 
BRANCH  20  21
ATOM     21  C   LIG A   1      -9.072  -2.709 125.468  0.00  0.00    -0.000 C 
BRANCH  21  22
ATOM     22  C   LIG A   1      -9.305  -3.149 124.049  0.00  0.00    -0.000 C 
BRANCH  22  23
ATOM     23  C   LIG A   1      -8.349  -2.489 122.953  0.00  0.00    -0.000 C 
BRANCH  23  24
ATOM     24  C   LIG A   1      -7.152  -1.505 123.331  0.00  0.00    -0.000 C 
BRANCH  24  25
ATOM     25  C   LIG A   1      -5.807  -1.975 124.038  0.00  0.00    -0.000 C 
BRANCH  25  26
ATOM     26  C   LIG A   1      -5.581  -3.484 124.262  0.00  0.00    -0.003 C 
ATOM     27  C   LIG A   1      -4.390  -3.801 123.461  0.00  0.00    +0.004 C 
ENDBRANCH  25  26
ENDBRANCH  24  25
ENDBRANCH  23  24
ENDBRANCH  22  23
ENDBRANCH  21  22
ENDBRANCH  20  21
ENDBRANCH  19  20
ENDBRANCH  18  19
ENDBRANCH  17  18
ENDBRANCH  16  17
ENDBRANCH  15  16
ENDBRANCH   2  15
TORSDOF 16
ENDMDL
MODEL 6
REMARK VINA RESULT:      -6.0      2.407      4.250
REMARK  Name = NuBBE_632
REMARK  17 active torsions:
REMARK  status: ('A' for Active; 'I' for Inactive)
REMARK    1  A    between atoms: C_2  and  O_3
REMARK    2  A    between atoms: C_2  and  C_16
REMARK    3  A    between atoms: O_3  and  C_4
REMARK    4  A    between atoms: C_4  and  C_5
REMARK    5  A    between atoms: C_5  and  C_6
REMARK    6  A    between atoms: C_6  and  C_7
REMARK    7  A    between atoms: C_7  and  C_8
REMARK    8  A    between atoms: C_8  and  C_9
REMARK    9  A    between atoms: C_9  and  C_10
REMARK   10  A    between atoms: C_10  and  C_11
REMARK   11  A    between atoms: C_11  and  C_12
REMARK   12  A    between atoms: C_12  and  C_13
REMARK   13  A    between atoms: C_13  and  C_14
REMARK   14  A    between atoms: C_14  and  C_15
REMARK   15  A    between atoms: C_18  and  O_19
REMARK   16  A    between atoms: C_20  and  O_21
REMARK   17  A    between atoms: C_22  and  O_23
REMARK                            x       y       z     vdW  Elec       q    Type
REMARK                         _______ _______ _______ _____ _____    ______ ____
ROOT
ATOM      1  O   LIG A   1      -9.723   0.397 124.103  0.00  0.00    -0.245 OA
ATOM      2  C   LIG A   1      -8.639   0.717 123.828  0.00  0.00    +0.339 C 
ENDROOT
BRANCH   2   3
ATOM      3  C   LIG A   1      -8.034   2.055 124.147  0.00  0.00    +0.066 A 
ATOM      4  C   LIG A   1      -6.952   2.480 123.369  0.00  0.00    +0.064 A 
ATOM      5  C   LIG A   1      -6.391   3.725 123.635  0.00  0.00    +0.163 A 
ATOM      6  C   LIG A   1      -6.917   4.536 124.639  0.00  0.00    +0.201 A 
ATOM      7  C   LIG A   1      -8.020   4.125 125.372  0.00  0.00    +0.163 A 
ATOM      8  C   LIG A   1      -8.593   2.892 125.127  0.00  0.00    +0.064 A 
BRANCH   7   9
ATOM      9  O   LIG A   1      -8.547   4.919 126.346  0.00  0.00    -0.503 OA
ATOM     10  H   LIG A   1      -9.129   4.327 126.863  0.00  0.00    +0.292 HD
ENDBRANCH   7   9
BRANCH   6  11
ATOM     11  O   LIG A   1      -6.354   5.750 124.920  0.00  0.00    -0.501 OA
ATOM     12  H   LIG A   1      -5.841   5.593 125.739  0.00  0.00    +0.292 HD
ENDBRANCH   6  11
BRANCH   5  13
ATOM     13  O   LIG A   1      -5.316   4.196 122.936  0.00  0.00    -0.503 OA
ATOM     14  H   LIG A   1      -4.914   4.922 123.445  0.00  0.00    +0.292 HD
ENDBRANCH   5  13
ENDBRANCH   2   3
BRANCH   2  15
ATOM     15  O   LIG A   1      -7.615  -0.056 123.314  0.00  0.00    -0.461 OA
BRANCH  15  16
ATOM     16  C   LIG A   1      -7.981  -1.396 122.963  0.00  0.00    +0.232 C 
BRANCH  16  17
ATOM     17  C   LIG A   1      -6.941  -2.360 123.515  0.00  0.00    +0.041 C 
BRANCH  17  18
ATOM     18  C   LIG A   1      -7.588  -3.306 124.496  0.00  0.00    +0.003 C 
BRANCH  18  19
ATOM     19  C   LIG A   1      -9.035  -3.039 124.648  0.00  0.00    +0.000 C 
BRANCH  19  20
ATOM     20  C   LIG A   1      -9.200  -2.466 126.048  0.00  0.00    -0.000 C 
BRANCH  20  21
ATOM     21  C   LIG A   1      -8.953  -3.603 126.981  0.00  0.00    -0.000 C 
BRANCH  21  22
ATOM     22  C   LIG A   1      -8.393  -3.835 128.357  0.00  0.00    -0.000 C 
BRANCH  22  23
ATOM     23  C   LIG A   1      -8.046  -2.522 129.197  0.00  0.00    -0.000 C 
BRANCH  23  24
ATOM     24  C   LIG A   1      -6.728  -1.660 128.944  0.00  0.00    -0.000 C 
BRANCH  24  25
ATOM     25  C   LIG A   1      -5.656  -1.987 127.816  0.00  0.00    -0.000 C 
BRANCH  25  26
ATOM     26  C   LIG A   1      -5.582  -1.066 126.581  0.00  0.00    -0.003 C 
ATOM     27  C   LIG A   1      -6.529   0.020 126.875  0.00  0.00    +0.004 C 
ENDBRANCH  25  26
ENDBRANCH  24  25
ENDBRANCH  23  24
ENDBRANCH  22  23
ENDBRANCH  21  22
ENDBRANCH  20  21
ENDBRANCH  19  20
ENDBRANCH  18  19
ENDBRANCH  17  18
ENDBRANCH  16  17
ENDBRANCH  15  16
ENDBRANCH   2  15
TORSDOF 16
ENDMDL
MODEL 7
REMARK VINA RESULT:      -5.9      6.112      9.942
REMARK  Name = NuBBE_632
REMARK  17 active torsions:
REMARK  status: ('A' for Active; 'I' for Inactive)
REMARK    1  A    between atoms: C_2  and  O_3
REMARK    2  A    between atoms: C_2  and  C_16
REMARK    3  A    between atoms: O_3  and  C_4
REMARK    4  A    between atoms: C_4  and  C_5
REMARK    5  A    between atoms: C_5  and  C_6
REMARK    6  A    between atoms: C_6  and  C_7
REMARK    7  A    between atoms: C_7  and  C_8
REMARK    8  A    between atoms: C_8  and  C_9
REMARK    9  A    between atoms: C_9  and  C_10
REMARK   10  A    between atoms: C_10  and  C_11
REMARK   11  A    between atoms: C_11  and  C_12
REMARK   12  A    between atoms: C_12  and  C_13
REMARK   13  A    between atoms: C_13  and  C_14
REMARK   14  A    between atoms: C_14  and  C_15
REMARK   15  A    between atoms: C_18  and  O_19
REMARK   16  A    between atoms: C_20  and  O_21
REMARK   17  A    between atoms: C_22  and  O_23
REMARK                            x       y       z     vdW  Elec       q    Type
REMARK                         _______ _______ _______ _____ _____    ______ ____
ROOT
ATOM      1  O   LIG A   1      -5.193  -3.670 129.684  0.00  0.00    -0.245 OA
ATOM      2  C   LIG A   1      -6.055  -3.234 130.331  0.00  0.00    +0.339 C 
ENDROOT
BRANCH   2   3
ATOM      3  C   LIG A   1      -6.338  -3.620 131.755  0.00  0.00    +0.066 A 
ATOM      4  C   LIG A   1      -7.426  -3.012 132.388  0.00  0.00    +0.064 A 
ATOM      5  C   LIG A   1      -7.717  -3.372 133.700  0.00  0.00    +0.163 A 
ATOM      6  C   LIG A   1      -6.951  -4.337 134.354  0.00  0.00    +0.201 A 
ATOM      7  C   LIG A   1      -5.905  -4.967 133.700  0.00  0.00    +0.163 A 
ATOM      8  C   LIG A   1      -5.596  -4.626 132.397  0.00  0.00    +0.064 A 
BRANCH   7   9
ATOM      9  O   LIG A   1      -5.162  -5.921 134.329  0.00  0.00    -0.503 OA
ATOM     10  H   LIG A   1      -5.628  -6.762 134.144  0.00  0.00    +0.292 HD
ENDBRANCH   7   9
BRANCH   6  11
ATOM     11  O   LIG A   1      -7.219  -4.676 135.651  0.00  0.00    -0.501 OA
ATOM     12  H   LIG A   1      -7.353  -5.646 135.623  0.00  0.00    +0.292 HD
ENDBRANCH   6  11
BRANCH   5  13
ATOM     13  O   LIG A   1      -8.747  -2.802 134.393  0.00  0.00    -0.503 OA
ATOM     14  H   LIG A   1      -8.638  -3.018 135.336  0.00  0.00    +0.292 HD
ENDBRANCH   5  13
ENDBRANCH   2   3
BRANCH   2  15
ATOM     15  O   LIG A   1      -6.901  -2.180 130.042  0.00  0.00    -0.461 OA
BRANCH  15  16
ATOM     16  C   LIG A   1      -7.603  -2.285 128.798  0.00  0.00    +0.232 C 
BRANCH  16  17
ATOM     17  C   LIG A   1      -8.670  -3.363 128.912  0.00  0.00    +0.041 C 
BRANCH  17  18
ATOM     18  C   LIG A   1      -8.881  -4.023 127.573  0.00  0.00    +0.003 C 
BRANCH  18  19
ATOM     19  C   LIG A   1      -8.557  -3.113 126.452  0.00  0.00    +0.000 C 
BRANCH  19  20
ATOM     20  C   LIG A   1      -8.351  -4.012 125.242  0.00  0.00    -0.000 C 
BRANCH  20  21
ATOM     21  C   LIG A   1      -9.048  -3.333 124.112  0.00  0.00    -0.000 C 
BRANCH  21  22
ATOM     22  C   LIG A   1      -8.724  -2.393 122.985  0.00  0.00    -0.000 C 
BRANCH  22  23
ATOM     23  C   LIG A   1      -8.054  -1.006 123.407  0.00  0.00    -0.000 C 
BRANCH  23  24
ATOM     24  C   LIG A   1      -6.490  -0.852 123.682  0.00  0.00    -0.000 C 
BRANCH  24  25
ATOM     25  C   LIG A   1      -5.563  -2.029 124.215  0.00  0.00    -0.000 C 
BRANCH  25  26
ATOM     26  C   LIG A   1      -4.962  -3.013 123.191  0.00  0.00    -0.003 C 
ATOM     27  C   LIG A   1      -4.807  -4.271 123.936  0.00  0.00    +0.004 C 
ENDBRANCH  25  26
ENDBRANCH  24  25
ENDBRANCH  23  24
ENDBRANCH  22  23
ENDBRANCH  21  22
ENDBRANCH  20  21
ENDBRANCH  19  20
ENDBRANCH  18  19
ENDBRANCH  17  18
ENDBRANCH  16  17
ENDBRANCH  15  16
ENDBRANCH   2  15
TORSDOF 16
ENDMDL
MODEL 8
REMARK VINA RESULT:      -5.9      1.873      4.067
REMARK  Name = NuBBE_632
REMARK  17 active torsions:
REMARK  status: ('A' for Active; 'I' for Inactive)
REMARK    1  A    between atoms: C_2  and  O_3
REMARK    2  A    between atoms: C_2  and  C_16
REMARK    3  A    between atoms: O_3  and  C_4
REMARK    4  A    between atoms: C_4  and  C_5
REMARK    5  A    between atoms: C_5  and  C_6
REMARK    6  A    between atoms: C_6  and  C_7
REMARK    7  A    between atoms: C_7  and  C_8
REMARK    8  A    between atoms: C_8  and  C_9
REMARK    9  A    between atoms: C_9  and  C_10
REMARK   10  A    between atoms: C_10  and  C_11
REMARK   11  A    between atoms: C_11  and  C_12
REMARK   12  A    between atoms: C_12  and  C_13
REMARK   13  A    between atoms: C_13  and  C_14
REMARK   14  A    between atoms: C_14  and  C_15
REMARK   15  A    between atoms: C_18  and  O_19
REMARK   16  A    between atoms: C_20  and  O_21
REMARK   17  A    between atoms: C_22  and  O_23
REMARK                            x       y       z     vdW  Elec       q    Type
REMARK                         _______ _______ _______ _____ _____    ______ ____
ROOT
ATOM      1  O   LIG A   1      -9.292   1.569 126.493  0.00  0.00    -0.245 OA
ATOM      2  C   LIG A   1      -8.426   1.244 125.788  0.00  0.00    +0.339 C 
ENDROOT
BRANCH   2   3
ATOM      3  C   LIG A   1      -7.588   2.186 124.970  0.00  0.00    +0.066 A 
ATOM      4  C   LIG A   1      -6.393   2.645 125.533  0.00  0.00    +0.064 A 
ATOM      5  C   LIG A   1      -5.593   3.502 124.783  0.00  0.00    +0.163 A 
ATOM      6  C   LIG A   1      -5.968   3.868 123.491  0.00  0.00    +0.201 A 
ATOM      7  C   LIG A   1      -7.130   3.369 122.926  0.00  0.00    +0.163 A 
ATOM      8  C   LIG A   1      -7.942   2.518 123.652  0.00  0.00    +0.064 A 
BRANCH   7   9
ATOM      9  O   LIG A   1      -7.495   3.713 121.659  0.00  0.00    -0.503 OA
ATOM     10  H   LIG A   1      -7.319   4.674 121.601  0.00  0.00    +0.292 HD
ENDBRANCH   7   9
BRANCH   6  11
ATOM     11  O   LIG A   1      -5.196   4.728 122.760  0.00  0.00    -0.501 OA
ATOM     12  H   LIG A   1      -4.345   4.255 122.652  0.00  0.00    +0.292 HD
ENDBRANCH   6  11
BRANCH   5  13
ATOM     13  O   LIG A   1      -4.425   4.013 125.275  0.00  0.00    -0.503 OA
ATOM     14  H   LIG A   1      -3.716   3.365 125.115  0.00  0.00    +0.292 HD
ENDBRANCH   5  13
ENDBRANCH   2   3
BRANCH   2  15
ATOM     15  O   LIG A   1      -7.853  -0.005 125.645  0.00  0.00    -0.461 OA
BRANCH  15  16
ATOM     16  C   LIG A   1      -7.081  -0.453 126.765  0.00  0.00    +0.232 C 
BRANCH  16  17
ATOM     17  C   LIG A   1      -6.020  -1.431 126.283  0.00  0.00    +0.041 C 
BRANCH  17  18
ATOM     18  C   LIG A   1      -5.512  -1.012 124.926  0.00  0.00    +0.003 C 
BRANCH  18  19
ATOM     19  C   LIG A   1      -5.611  -2.107 123.937  0.00  0.00    +0.000 C 
BRANCH  19  20
ATOM     20  C   LIG A   1      -6.605  -1.625 122.891  0.00  0.00    -0.000 C 
BRANCH  20  21
ATOM     21  C   LIG A   1      -7.751  -2.578 122.955  0.00  0.00    -0.000 C 
BRANCH  21  22
ATOM     22  C   LIG A   1      -8.936  -2.863 123.835  0.00  0.00    -0.000 C 
BRANCH  22  23
ATOM     23  C   LIG A   1      -8.629  -3.688 125.168  0.00  0.00    -0.000 C 
BRANCH  23  24
ATOM     24  C   LIG A   1      -9.261  -3.308 126.583  0.00  0.00    -0.000 C 
BRANCH  24  25
ATOM     25  C   LIG A   1      -8.948  -4.088 127.932  0.00  0.00    -0.000 C 
BRANCH  25  26
ATOM     26  C   LIG A   1      -8.539  -3.273 129.176  0.00  0.00    -0.003 C 
ATOM     27  C   LIG A   1      -7.071  -3.355 129.203  0.00  0.00    +0.004 C 
ENDBRANCH  25  26
ENDBRANCH  24  25
ENDBRANCH  23  24
ENDBRANCH  22  23
ENDBRANCH  21  22
ENDBRANCH  20  21
ENDBRANCH  19  20
ENDBRANCH  18  19
ENDBRANCH  17  18
ENDBRANCH  16  17
ENDBRANCH  15  16
ENDBRANCH   2  15
TORSDOF 16
ENDMDL
MODEL 9
REMARK VINA RESULT:      -5.8      2.667      4.914
REMARK  Name = NuBBE_632
REMARK  17 active torsions:
REMARK  status: ('A' for Active; 'I' for Inactive)
REMARK    1  A    between atoms: C_2  and  O_3
REMARK    2  A    between atoms: C_2  and  C_16
REMARK    3  A    between atoms: O_3  and  C_4
REMARK    4  A    between atoms: C_4  and  C_5
REMARK    5  A    between atoms: C_5  and  C_6
REMARK    6  A    between atoms: C_6  and  C_7
REMARK    7  A    between atoms: C_7  and  C_8
REMARK    8  A    between atoms: C_8  and  C_9
REMARK    9  A    between atoms: C_9  and  C_10
REMARK   10  A    between atoms: C_10  and  C_11
REMARK   11  A    between atoms: C_11  and  C_12
REMARK   12  A    between atoms: C_12  and  C_13
REMARK   13  A    between atoms: C_13  and  C_14
REMARK   14  A    between atoms: C_14  and  C_15
REMARK   15  A    between atoms: C_18  and  O_19
REMARK   16  A    between atoms: C_20  and  O_21
REMARK   17  A    between atoms: C_22  and  O_23
REMARK                            x       y       z     vdW  Elec       q    Type
REMARK                         _______ _______ _______ _____ _____    ______ ____
ROOT
ATOM      1  O   LIG A   1      -5.745  -1.112 125.618  0.00  0.00    -0.245 OA
ATOM      2  C   LIG A   1      -6.334  -0.590 124.761  0.00  0.00    +0.339 C 
ENDROOT
BRANCH   2   3
ATOM      3  C   LIG A   1      -7.070   0.713 124.898  0.00  0.00    +0.066 A 
ATOM      4  C   LIG A   1      -7.408   1.134 126.189  0.00  0.00    +0.064 A 
ATOM      5  C   LIG A   1      -8.071   2.348 126.338  0.00  0.00    +0.163 A 
ATOM      6  C   LIG A   1      -8.365   3.134 125.225  0.00  0.00    +0.201 A 
ATOM      7  C   LIG A   1      -7.982   2.729 123.956  0.00  0.00    +0.163 A 
ATOM      8  C   LIG A   1      -7.324   1.527 123.782  0.00  0.00    +0.064 A 
BRANCH   7   9
ATOM      9  O   LIG A   1      -8.255   3.499 122.865  0.00  0.00    -0.503 OA
ATOM     10  H   LIG A   1      -7.527   3.311 122.239  0.00  0.00    +0.292 HD
ENDBRANCH   7   9
BRANCH   6  11
ATOM     11  O   LIG A   1      -9.037   4.317 125.365  0.00  0.00    -0.501 OA
ATOM     12  H   LIG A   1      -9.217   4.378 126.326  0.00  0.00    +0.292 HD
ENDBRANCH   6  11
BRANCH   5  13
ATOM     13  O   LIG A   1      -8.457   2.813 127.564  0.00  0.00    -0.503 OA
ATOM     14  H   LIG A   1      -9.179   2.248 127.892  0.00  0.00    +0.292 HD
ENDBRANCH   5  13
ENDBRANCH   2   3
BRANCH   2  15
ATOM     15  O   LIG A   1      -6.377  -0.918 123.420  0.00  0.00    -0.461 OA
BRANCH  15  16
ATOM     16  C   LIG A   1      -6.849  -2.239 123.130  0.00  0.00    +0.232 C 
BRANCH  16  17
ATOM     17  C   LIG A   1      -8.204  -2.148 122.443  0.00  0.00    +0.041 C 
BRANCH  17  18
ATOM     18  C   LIG A   1      -9.286  -2.638 123.373  0.00  0.00    +0.003 C 
BRANCH  18  19
ATOM     19  C   LIG A   1      -8.726  -3.321 124.560  0.00  0.00    +0.000 C 
BRANCH  19  20
ATOM     20  C   LIG A   1      -9.281  -2.572 125.763  0.00  0.00    -0.000 C 
BRANCH  20  21
ATOM     21  C   LIG A   1      -9.366  -3.578 126.860  0.00  0.00    -0.000 C 
BRANCH  21  22
ATOM     22  C   LIG A   1      -8.635  -3.938 128.123  0.00  0.00    -0.000 C 
BRANCH  22  23
ATOM     23  C   LIG A   1      -7.859  -2.741 128.842  0.00  0.00    -0.000 C 
BRANCH  23  24
ATOM     24  C   LIG A   1      -6.311  -2.820 129.219  0.00  0.00    -0.000 C 
BRANCH  24  25
ATOM     25  C   LIG A   1      -5.722  -3.763 130.357  0.00  0.00    -0.000 C 
BRANCH  25  26
ATOM     26  C   LIG A   1      -4.191  -3.913 130.469  0.00  0.00    -0.003 C 
ATOM     27  C   LIG A   1      -3.686  -3.540 129.140  0.00  0.00    +0.004 C 
ENDBRANCH  25  26
ENDBRANCH  24  25
ENDBRANCH  23  24
ENDBRANCH  22  23
ENDBRANCH  21  22
ENDBRANCH  20  21
ENDBRANCH  19  20
ENDBRANCH  18  19
ENDBRANCH  17  18
ENDBRANCH  16  17
ENDBRANCH  15  16
ENDBRANCH   2  15
TORSDOF 16
ENDMDL
