MODEL 1
REMARK VINA RESULT:      -9.5      0.000      0.000
REMARK  Name = NuBBE_2491
REMARK  8 active torsions:
REMARK  status: ('A' for Active; 'I' for Inactive)
REMARK    1  A    between atoms: C_1  and  C_2
REMARK    2  A    between atoms: C_2  and  C_3
REMARK    3  A    between atoms: C_6  and  C_7
REMARK    4  A    between atoms: C_11  and  C_12
REMARK    5  A    between atoms: C_17  and  C_18
REMARK    6  A    between atoms: C_17  and  C_19
REMARK    7  A    between atoms: C_24  and  C_25
REMARK    8  A    between atoms: C_30  and  C_31
REMARK                            x       y       z     vdW  Elec       q    Type
REMARK                         _______ _______ _______ _____ _____    ______ ____
ROOT
ATOM      1  C   LIG A   1      -4.190   4.936 127.938  0.00  0.00    +0.011 C 
ATOM      2  C   LIG A   1      -4.966   3.975 128.869  0.00  0.00    -0.035 C 
ATOM      3  C   LIG A   1      -5.562   5.033 129.785  0.00  0.00    +0.011 C 
ATOM      4  C   LIG A   1      -3.886   2.969 129.269  0.00  0.00    +0.007 C 
ATOM      5  C   LIG A   1      -3.977   2.664 130.715  0.00  0.00    +0.008 C 
ATOM      6  C   LIG A   1      -5.271   1.908 131.097  0.00  0.00    -0.025 C 
ATOM      7  C   LIG A   1      -4.912   0.405 131.038  0.00  0.00    +0.012 C 
ATOM      8  C   LIG A   1      -5.413   2.245 132.581  0.00  0.00    +0.034 C 
ATOM      9  C   LIG A   1      -6.545   3.151 132.818  0.00  0.00    -0.026 C 
ATOM     10  C   LIG A   1      -7.149   3.869 131.816  0.00  0.00    -0.061 C 
ATOM     11  C   LIG A   1      -7.472   5.388 132.258  0.00  0.00    -0.007 C 
ATOM     12  C   LIG A   1      -6.447   5.639 133.460  0.00  0.00    +0.016 C 
ATOM     13  C   LIG A   1      -7.230   6.751 131.447  0.00  0.00    +0.012 C 
ATOM     14  C   LIG A   1      -8.114   7.171 130.248  0.00  0.00    +0.006 C 
ATOM     15  C   LIG A   1      -9.589   7.285 130.657  0.00  0.00    +0.008 C 
ATOM     16  C   LIG A   1     -10.721   7.445 129.422  0.00  0.00    +0.027 C 
ATOM     17  C   LIG A   1     -10.405   8.661 128.514  0.00  0.00    +0.019 C 
ATOM     18  C   LIG A   1     -11.023   6.338 128.328  0.00  0.00    +0.019 C 
ATOM     19  C   LIG A   1     -12.040   7.637 130.121  0.00  0.00    +0.139 C 
ATOM     20  O   LIG A   1     -13.014   8.217 129.496  0.00  0.00    -0.297 OA
ATOM     21  C   LIG A   1     -12.350   7.049 131.463  0.00  0.00    +0.075 C 
ATOM     22  C   LIG A   1     -11.257   6.418 132.307  0.00  0.00    +0.015 C 
ATOM     23  C   LIG A   1      -9.947   6.085 131.610  0.00  0.00    -0.024 C 
ATOM     24  C   LIG A   1     -10.043   4.994 130.630  0.00  0.00    +0.012 C 
ATOM     25  C   LIG A   1      -8.955   5.393 132.705  0.00  0.00    +0.005 C 
ATOM     26  C   LIG A   1      -9.412   3.853 133.081  0.00  0.00    +0.006 C 
ATOM     27  C   LIG A   1      -9.067   2.582 132.054  0.00  0.00    +0.012 C 
ATOM     28  C   LIG A   1      -7.956   2.883 130.886  0.00  0.00    -0.007 C 
ATOM     29  C   LIG A   1      -8.965   2.587 129.631  0.00  0.00    +0.016 C 
ATOM     30  C   LIG A   1      -6.601   2.183 130.171  0.00  0.00    +0.006 C 
ATOM     31  C   LIG A   1      -6.179   3.012 128.689  0.00  0.00    +0.011 C 
ENDROOT
TORSDOF 0
ENDMDL
MODEL 2
REMARK VINA RESULT:      -9.4      4.983      7.973
REMARK  Name = NuBBE_2491
REMARK  8 active torsions:
REMARK  status: ('A' for Active; 'I' for Inactive)
REMARK    1  A    between atoms: C_1  and  C_2
REMARK    2  A    between atoms: C_2  and  C_3
REMARK    3  A    between atoms: C_6  and  C_7
REMARK    4  A    between atoms: C_11  and  C_12
REMARK    5  A    between atoms: C_17  and  C_18
REMARK    6  A    between atoms: C_17  and  C_19
REMARK    7  A    between atoms: C_24  and  C_25
REMARK    8  A    between atoms: C_30  and  C_31
REMARK                            x       y       z     vdW  Elec       q    Type
REMARK                         _______ _______ _______ _____ _____    ______ ____
ROOT
ATOM      1  C   LIG A   1      -7.823  -2.489 129.977  0.00  0.00    +0.011 C 
ATOM      2  C   LIG A   1      -7.605  -2.478 128.446  0.00  0.00    -0.035 C 
ATOM      3  C   LIG A   1      -8.206  -1.107 128.176  0.00  0.00    +0.011 C 
ATOM      4  C   LIG A   1      -8.222  -3.810 128.020  0.00  0.00    +0.007 C 
ATOM      5  C   LIG A   1      -9.027  -3.636 126.791  0.00  0.00    +0.008 C 
ATOM      6  C   LIG A   1      -8.176  -3.272 125.553  0.00  0.00    -0.025 C 
ATOM      7  C   LIG A   1      -7.840  -4.616 124.865  0.00  0.00    +0.012 C 
ATOM      8  C   LIG A   1      -9.200  -2.586 124.649  0.00  0.00    +0.034 C 
ATOM      9  C   LIG A   1      -8.941  -1.144 124.547  0.00  0.00    -0.026 C 
ATOM     10  C   LIG A   1      -8.127  -0.467 125.422  0.00  0.00    -0.061 C 
ATOM     11  C   LIG A   1      -8.750   0.956 125.864  0.00  0.00    -0.007 C 
ATOM     12  C   LIG A   1     -10.314   0.766 125.586  0.00  0.00    +0.016 C 
ATOM     13  C   LIG A   1      -8.842   1.608 127.327  0.00  0.00    +0.012 C 
ATOM     14  C   LIG A   1      -7.610   2.199 128.051  0.00  0.00    +0.006 C 
ATOM     15  C   LIG A   1      -6.964   3.321 127.226  0.00  0.00    +0.008 C 
ATOM     16  C   LIG A   1      -5.453   3.872 127.723  0.00  0.00    +0.027 C 
ATOM     17  C   LIG A   1      -5.476   4.347 129.198  0.00  0.00    +0.019 C 
ATOM     18  C   LIG A   1      -4.131   2.997 127.723  0.00  0.00    +0.019 C 
ATOM     19  C   LIG A   1      -5.132   5.020 126.804  0.00  0.00    +0.139 C 
ATOM     20  O   LIG A   1      -4.282   5.920 127.182  0.00  0.00    -0.297 OA
ATOM     21  C   LIG A   1      -5.625   5.103 125.393  0.00  0.00    +0.075 C 
ATOM     22  C   LIG A   1      -6.682   4.140 124.880  0.00  0.00    +0.015 C 
ATOM     23  C   LIG A   1      -6.949   2.896 125.712  0.00  0.00    -0.024 C 
ATOM     24  C   LIG A   1      -5.843   1.928 125.725  0.00  0.00    +0.012 C 
ATOM     25  C   LIG A   1      -8.087   2.012 124.945  0.00  0.00    +0.005 C 
ATOM     26  C   LIG A   1      -7.499   1.265 123.597  0.00  0.00    +0.006 C 
ATOM     27  C   LIG A   1      -6.585  -0.128 123.719  0.00  0.00    +0.012 C 
ATOM     28  C   LIG A   1      -6.630  -0.892 125.169  0.00  0.00    -0.007 C 
ATOM     29  C   LIG A   1      -5.024  -0.759 125.465  0.00  0.00    +0.016 C 
ATOM     30  C   LIG A   1      -6.784  -2.439 125.818  0.00  0.00    +0.006 C 
ATOM     31  C   LIG A   1      -6.355  -2.450 127.514  0.00  0.00    +0.011 C 
ENDROOT
TORSDOF 0
ENDMDL
MODEL 3
REMARK VINA RESULT:      -9.3      4.394      7.180
REMARK  Name = NuBBE_2491
REMARK  8 active torsions:
REMARK  status: ('A' for Active; 'I' for Inactive)
REMARK    1  A    between atoms: C_1  and  C_2
REMARK    2  A    between atoms: C_2  and  C_3
REMARK    3  A    between atoms: C_6  and  C_7
REMARK    4  A    between atoms: C_11  and  C_12
REMARK    5  A    between atoms: C_17  and  C_18
REMARK    6  A    between atoms: C_17  and  C_19
REMARK    7  A    between atoms: C_24  and  C_25
REMARK    8  A    between atoms: C_30  and  C_31
REMARK                            x       y       z     vdW  Elec       q    Type
REMARK                         _______ _______ _______ _____ _____    ______ ____
ROOT
ATOM      1  C   LIG A   1      -8.359   7.146 130.889  0.00  0.00    +0.011 C 
ATOM      2  C   LIG A   1      -7.576   6.000 131.571  0.00  0.00    -0.035 C 
ATOM      3  C   LIG A   1      -6.214   6.314 130.972  0.00  0.00    +0.011 C 
ATOM      4  C   LIG A   1      -8.428   4.777 131.230  0.00  0.00    +0.007 C 
ATOM      5  C   LIG A   1      -7.565   3.641 130.836  0.00  0.00    +0.008 C 
ATOM      6  C   LIG A   1      -6.695   3.106 131.997  0.00  0.00    -0.025 C 
ATOM      7  C   LIG A   1      -7.512   1.962 132.641  0.00  0.00    +0.012 C 
ATOM      8  C   LIG A   1      -5.545   2.429 131.252  0.00  0.00    +0.034 C 
ATOM      9  C   LIG A   1      -4.292   3.179 131.409  0.00  0.00    -0.026 C 
ATOM     10  C   LIG A   1      -4.249   4.479 131.850  0.00  0.00    -0.061 C 
ATOM     11  C   LIG A   1      -3.210   5.381 131.005  0.00  0.00    -0.007 C 
ATOM     12  C   LIG A   1      -3.077   4.580 129.627  0.00  0.00    +0.016 C 
ATOM     13  C   LIG A   1      -3.406   6.857 130.408  0.00  0.00    +0.012 C 
ATOM     14  C   LIG A   1      -3.398   8.121 131.300  0.00  0.00    +0.006 C 
ATOM     15  C   LIG A   1      -2.079   8.247 132.075  0.00  0.00    +0.008 C 
ATOM     16  C   LIG A   1      -2.014   9.394 133.304  0.00  0.00    +0.027 C 
ATOM     17  C   LIG A   1      -2.374  10.809 132.784  0.00  0.00    +0.019 C 
ATOM     18  C   LIG A   1      -2.883   9.346 134.629  0.00  0.00    +0.019 C 
ATOM     19  C   LIG A   1      -0.593   9.360 133.799  0.00  0.00    +0.139 C 
ATOM     20  O   LIG A   1      -0.106  10.391 134.411  0.00  0.00    -0.297 OA
ATOM     21  C   LIG A   1       0.258   8.128 133.765  0.00  0.00    +0.075 C 
ATOM     22  C   LIG A   1      -0.193   6.893 133.004  0.00  0.00    +0.015 C 
ATOM     23  C   LIG A   1      -1.656   6.825 132.596  0.00  0.00    -0.024 C 
ATOM     24  C   LIG A   1      -2.591   6.671 133.720  0.00  0.00    +0.012 C 
ATOM     25  C   LIG A   1      -1.899   5.404 131.831  0.00  0.00    +0.005 C 
ATOM     26  C   LIG A   1      -1.891   4.122 132.869  0.00  0.00    +0.006 C 
ATOM     27  C   LIG A   1      -3.225   3.775 133.812  0.00  0.00    +0.012 C 
ATOM     28  C   LIG A   1      -4.623   4.517 133.382  0.00  0.00    -0.007 C 
ATOM     29  C   LIG A   1      -4.817   5.316 134.799  0.00  0.00    +0.016 C 
ATOM     30  C   LIG A   1      -6.258   4.180 133.163  0.00  0.00    +0.006 C 
ATOM     31  C   LIG A   1      -7.189   5.657 133.042  0.00  0.00    +0.011 C 
ENDROOT
TORSDOF 0
ENDMDL
MODEL 4
REMARK VINA RESULT:      -9.1      3.551      5.799
REMARK  Name = NuBBE_2491
REMARK  8 active torsions:
REMARK  status: ('A' for Active; 'I' for Inactive)
REMARK    1  A    between atoms: C_1  and  C_2
REMARK    2  A    between atoms: C_2  and  C_3
REMARK    3  A    between atoms: C_6  and  C_7
REMARK    4  A    between atoms: C_11  and  C_12
REMARK    5  A    between atoms: C_17  and  C_18
REMARK    6  A    between atoms: C_17  and  C_19
REMARK    7  A    between atoms: C_24  and  C_25
REMARK    8  A    between atoms: C_30  and  C_31
REMARK                            x       y       z     vdW  Elec       q    Type
REMARK                         _______ _______ _______ _____ _____    ______ ____
ROOT
ATOM      1  C   LIG A   1      -7.594   3.296 128.012  0.00  0.00    +0.011 C 
ATOM      2  C   LIG A   1      -6.099   3.442 128.376  0.00  0.00    -0.035 C 
ATOM      3  C   LIG A   1      -6.228   4.698 129.225  0.00  0.00    +0.011 C 
ATOM      4  C   LIG A   1      -5.422   3.370 127.006  0.00  0.00    +0.007 C 
ATOM      5  C   LIG A   1      -4.355   4.390 126.904  0.00  0.00    +0.008 C 
ATOM      6  C   LIG A   1      -3.167   4.125 127.857  0.00  0.00    -0.025 C 
ATOM      7  C   LIG A   1      -2.144   3.306 127.035  0.00  0.00    +0.012 C 
ATOM      8  C   LIG A   1      -2.558   5.519 128.009  0.00  0.00    +0.034 C 
ATOM      9  C   LIG A   1      -2.786   6.057 129.357  0.00  0.00    -0.026 C 
ATOM     10  C   LIG A   1      -3.718   5.537 130.222  0.00  0.00    -0.061 C 
ATOM     11  C   LIG A   1      -4.550   6.687 130.991  0.00  0.00    -0.007 C 
ATOM     12  C   LIG A   1      -4.385   7.955 130.031  0.00  0.00    +0.016 C 
ATOM     13  C   LIG A   1      -6.129   6.788 131.254  0.00  0.00    +0.012 C 
ATOM     14  C   LIG A   1      -6.854   5.906 132.298  0.00  0.00    +0.006 C 
ATOM     15  C   LIG A   1      -6.269   6.111 133.702  0.00  0.00    +0.008 C 
ATOM     16  C   LIG A   1      -6.739   5.024 134.899  0.00  0.00    +0.027 C 
ATOM     17  C   LIG A   1      -8.280   4.975 135.051  0.00  0.00    +0.019 C 
ATOM     18  C   LIG A   1      -6.400   3.476 134.893  0.00  0.00    +0.019 C 
ATOM     19  C   LIG A   1      -6.100   5.533 136.164  0.00  0.00    +0.139 C 
ATOM     20  O   LIG A   1      -6.602   5.201 137.309  0.00  0.00    -0.297 OA
ATOM     21  C   LIG A   1      -4.805   6.284 136.184  0.00  0.00    +0.075 C 
ATOM     22  C   LIG A   1      -4.177   6.785 134.895  0.00  0.00    +0.015 C 
ATOM     23  C   LIG A   1      -4.703   6.201 133.593  0.00  0.00    -0.024 C 
ATOM     24  C   LIG A   1      -4.374   4.782 133.391  0.00  0.00    +0.012 C 
ATOM     25  C   LIG A   1      -3.857   6.864 132.366  0.00  0.00    +0.005 C 
ATOM     26  C   LIG A   1      -2.317   6.277 132.274  0.00  0.00    +0.006 C 
ATOM     27  C   LIG A   1      -2.009   4.780 131.600  0.00  0.00    +0.012 C 
ATOM     28  C   LIG A   1      -3.228   4.124 130.720  0.00  0.00    -0.007 C 
ATOM     29  C   LIG A   1      -3.392   2.788 131.655  0.00  0.00    +0.016 C 
ATOM     30  C   LIG A   1      -3.492   3.331 129.259  0.00  0.00    +0.006 C 
ATOM     31  C   LIG A   1      -5.086   2.609 129.220  0.00  0.00    +0.011 C 
ENDROOT
TORSDOF 0
ENDMDL
MODEL 5
REMARK VINA RESULT:      -8.9      5.467      7.652
REMARK  Name = NuBBE_2491
REMARK  8 active torsions:
REMARK  status: ('A' for Active; 'I' for Inactive)
REMARK    1  A    between atoms: C_1  and  C_2
REMARK    2  A    between atoms: C_2  and  C_3
REMARK    3  A    between atoms: C_6  and  C_7
REMARK    4  A    between atoms: C_11  and  C_12
REMARK    5  A    between atoms: C_17  and  C_18
REMARK    6  A    between atoms: C_17  and  C_19
REMARK    7  A    between atoms: C_24  and  C_25
REMARK    8  A    between atoms: C_30  and  C_31
REMARK                            x       y       z     vdW  Elec       q    Type
REMARK                         _______ _______ _______ _____ _____    ______ ____
ROOT
ATOM      1  C   LIG A   1      -3.998   2.875 130.345  0.00  0.00    +0.011 C 
ATOM      2  C   LIG A   1      -4.169   1.412 130.817  0.00  0.00    -0.035 C 
ATOM      3  C   LIG A   1      -5.582   1.204 130.294  0.00  0.00    +0.011 C 
ATOM      4  C   LIG A   1      -3.780   1.499 132.293  0.00  0.00    +0.007 C 
ATOM      5  C   LIG A   1      -4.717   0.707 133.121  0.00  0.00    +0.008 C 
ATOM      6  C   LIG A   1      -4.624  -0.813 132.859  0.00  0.00    -0.025 C 
ATOM      7  C   LIG A   1      -3.613  -1.357 133.896  0.00  0.00    +0.012 C 
ATOM      8  C   LIG A   1      -5.996  -1.304 133.320  0.00  0.00    +0.034 C 
ATOM      9  C   LIG A   1      -6.820  -1.731 132.181  0.00  0.00    -0.026 C 
ATOM     10  C   LIG A   1      -6.532  -1.394 130.881  0.00  0.00    -0.061 C 
ATOM     11  C   LIG A   1      -7.848  -0.964 130.052  0.00  0.00    -0.007 C 
ATOM     12  C   LIG A   1      -8.873  -0.530 131.201  0.00  0.00    +0.016 C 
ATOM     13  C   LIG A   1      -8.057   0.281 129.061  0.00  0.00    +0.012 C 
ATOM     14  C   LIG A   1      -7.447   0.321 127.640  0.00  0.00    +0.006 C 
ATOM     15  C   LIG A   1      -7.930  -0.864 126.793  0.00  0.00    +0.008 C 
ATOM     16  C   LIG A   1      -7.145  -1.137 125.329  0.00  0.00    +0.027 C 
ATOM     17  C   LIG A   1      -7.181   0.118 124.420  0.00  0.00    +0.019 C 
ATOM     18  C   LIG A   1      -5.621  -1.550 125.188  0.00  0.00    +0.019 C 
ATOM     19  C   LIG A   1      -7.893  -2.274 124.688  0.00  0.00    +0.139 C 
ATOM     20  O   LIG A   1      -7.834  -2.433 123.405  0.00  0.00    -0.297 OA
ATOM     21  C   LIG A   1      -8.586  -3.345 125.472  0.00  0.00    +0.075 C 
ATOM     22  C   LIG A   1      -8.775  -3.210 126.973  0.00  0.00    +0.015 C 
ATOM     23  C   LIG A   1      -7.942  -2.158 127.686  0.00  0.00    -0.024 C 
ATOM     24  C   LIG A   1      -6.502  -2.455 127.732  0.00  0.00    +0.012 C 
ATOM     25  C   LIG A   1      -8.294  -2.230 129.278  0.00  0.00    +0.005 C 
ATOM     26  C   LIG A   1      -7.650  -3.563 130.005  0.00  0.00    +0.006 C 
ATOM     27  C   LIG A   1      -6.033  -3.615 130.421  0.00  0.00    +0.012 C 
ATOM     28  C   LIG A   1      -5.244  -2.178 130.419  0.00  0.00    -0.007 C 
ATOM     29  C   LIG A   1      -4.148  -2.604 129.278  0.00  0.00    +0.016 C 
ATOM     30  C   LIG A   1      -4.163  -1.289 131.355  0.00  0.00    +0.006 C 
ATOM     31  C   LIG A   1      -3.504   0.052 130.443  0.00  0.00    +0.011 C 
ENDROOT
TORSDOF 0
ENDMDL
MODEL 6
REMARK VINA RESULT:      -8.9      4.384      7.325
REMARK  Name = NuBBE_2491
REMARK  8 active torsions:
REMARK  status: ('A' for Active; 'I' for Inactive)
REMARK    1  A    between atoms: C_1  and  C_2
REMARK    2  A    between atoms: C_2  and  C_3
REMARK    3  A    between atoms: C_6  and  C_7
REMARK    4  A    between atoms: C_11  and  C_12
REMARK    5  A    between atoms: C_17  and  C_18
REMARK    6  A    between atoms: C_17  and  C_19
REMARK    7  A    between atoms: C_24  and  C_25
REMARK    8  A    between atoms: C_30  and  C_31
REMARK                            x       y       z     vdW  Elec       q    Type
REMARK                         _______ _______ _______ _____ _____    ______ ____
ROOT
ATOM      1  C   LIG A   1      -1.845   3.364 126.235  0.00  0.00    +0.011 C 
ATOM      2  C   LIG A   1      -2.917   3.278 127.346  0.00  0.00    -0.035 C 
ATOM      3  C   LIG A   1      -4.125   3.113 126.437  0.00  0.00    +0.011 C 
ATOM      4  C   LIG A   1      -2.611   4.517 128.190  0.00  0.00    +0.007 C 
ATOM      5  C   LIG A   1      -3.866   5.203 128.571  0.00  0.00    +0.008 C 
ATOM      6  C   LIG A   1      -4.745   4.374 129.535  0.00  0.00    -0.025 C 
ATOM      7  C   LIG A   1      -4.340   4.819 130.960  0.00  0.00    +0.012 C 
ATOM      8  C   LIG A   1      -6.133   4.965 129.293  0.00  0.00    +0.034 C 
ATOM      9  C   LIG A   1      -7.003   4.014 128.586  0.00  0.00    -0.026 C 
ATOM     10  C   LIG A   1      -6.521   2.910 127.925  0.00  0.00    -0.061 C 
ATOM     11  C   LIG A   1      -7.240   2.688 126.497  0.00  0.00    -0.007 C 
ATOM     12  C   LIG A   1      -7.800   4.145 126.144  0.00  0.00    +0.016 C 
ATOM     13  C   LIG A   1      -6.582   2.333 125.078  0.00  0.00    +0.012 C 
ATOM     14  C   LIG A   1      -6.035   0.925 124.746  0.00  0.00    +0.006 C 
ATOM     15  C   LIG A   1      -7.129  -0.144 124.882  0.00  0.00    +0.008 C 
ATOM     16  C   LIG A   1      -6.642  -1.755 124.844  0.00  0.00    +0.027 C 
ATOM     17  C   LIG A   1      -5.847  -2.079 123.554  0.00  0.00    +0.019 C 
ATOM     18  C   LIG A   1      -5.718  -2.442 125.933  0.00  0.00    +0.019 C 
ATOM     19  C   LIG A   1      -7.918  -2.551 124.892  0.00  0.00    +0.139 C 
ATOM     20  O   LIG A   1      -7.928  -3.765 124.443  0.00  0.00    -0.297 OA
ATOM     21  C   LIG A   1      -9.158  -2.074 125.582  0.00  0.00    +0.075 C 
ATOM     22  C   LIG A   1      -9.272  -0.641 126.072  0.00  0.00    +0.015 C 
ATOM     23  C   LIG A   1      -7.986   0.165 126.165  0.00  0.00    -0.024 C 
ATOM     24  C   LIG A   1      -7.060  -0.291 127.212  0.00  0.00    +0.012 C 
ATOM     25  C   LIG A   1      -8.359   1.644 126.743  0.00  0.00    +0.005 C 
ATOM     26  C   LIG A   1      -8.727   1.615 128.352  0.00  0.00    +0.006 C 
ATOM     27  C   LIG A   1      -7.522   1.533 129.505  0.00  0.00    +0.012 C 
ATOM     28  C   LIG A   1      -6.003   1.861 128.982  0.00  0.00    -0.007 C 
ATOM     29  C   LIG A   1      -5.384   0.396 129.374  0.00  0.00    +0.016 C 
ATOM     30  C   LIG A   1      -4.636   2.737 129.429  0.00  0.00    +0.006 C 
ATOM     31  C   LIG A   1      -3.248   2.257 128.478  0.00  0.00    +0.011 C 
ENDROOT
TORSDOF 0
ENDMDL
MODEL 7
REMARK VINA RESULT:      -8.7      4.314      7.038
REMARK  Name = NuBBE_2491
REMARK  8 active torsions:
REMARK  status: ('A' for Active; 'I' for Inactive)
REMARK    1  A    between atoms: C_1  and  C_2
REMARK    2  A    between atoms: C_2  and  C_3
REMARK    3  A    between atoms: C_6  and  C_7
REMARK    4  A    between atoms: C_11  and  C_12
REMARK    5  A    between atoms: C_17  and  C_18
REMARK    6  A    between atoms: C_17  and  C_19
REMARK    7  A    between atoms: C_24  and  C_25
REMARK    8  A    between atoms: C_30  and  C_31
REMARK                            x       y       z     vdW  Elec       q    Type
REMARK                         _______ _______ _______ _____ _____    ______ ____
ROOT
ATOM      1  C   LIG A   1     -10.275   1.176 124.528  0.00  0.00    +0.011 C 
ATOM      2  C   LIG A   1      -9.257   0.110 124.994  0.00  0.00    -0.035 C 
ATOM      3  C   LIG A   1      -8.338   1.043 125.767  0.00  0.00    +0.011 C 
ATOM      4  C   LIG A   1      -8.900  -0.593 123.684  0.00  0.00    +0.007 C 
ATOM      5  C   LIG A   1      -7.442  -0.837 123.610  0.00  0.00    +0.008 C 
ATOM      6  C   LIG A   1      -6.941  -1.854 124.661  0.00  0.00    -0.025 C 
ATOM      7  C   LIG A   1      -6.972  -3.232 123.960  0.00  0.00    +0.012 C 
ATOM      8  C   LIG A   1      -5.463  -1.485 124.787  0.00  0.00    +0.034 C 
ATOM      9  C   LIG A   1      -5.177  -0.859 126.085  0.00  0.00    -0.026 C 
ATOM     10  C   LIG A   1      -6.158  -0.355 126.904  0.00  0.00    -0.061 C 
ATOM     11  C   LIG A   1      -5.748   1.067 127.550  0.00  0.00    -0.007 C 
ATOM     12  C   LIG A   1      -4.632   1.612 126.542  0.00  0.00    +0.016 C 
ATOM     13  C   LIG A   1      -6.622   2.404 127.690  0.00  0.00    +0.012 C 
ATOM     14  C   LIG A   1      -7.767   2.543 128.720  0.00  0.00    +0.006 C 
ATOM     15  C   LIG A   1      -7.257   2.328 130.152  0.00  0.00    +0.008 C 
ATOM     16  C   LIG A   1      -8.412   2.154 131.364  0.00  0.00    +0.027 C 
ATOM     17  C   LIG A   1      -9.383   3.362 131.403  0.00  0.00    +0.019 C 
ATOM     18  C   LIG A   1      -9.442   0.953 131.461  0.00  0.00    +0.019 C 
ATOM     19  C   LIG A   1      -7.627   2.067 132.645  0.00  0.00    +0.139 C 
ATOM     20  O   LIG A   1      -8.200   2.369 133.766  0.00  0.00    -0.297 OA
ATOM     21  C   LIG A   1      -6.247   1.492 132.723  0.00  0.00    +0.075 C 
ATOM     22  C   LIG A   1      -5.462   1.180 131.461  0.00  0.00    +0.015 C 
ATOM     23  C   LIG A   1      -6.240   1.129 130.155  0.00  0.00    -0.024 C 
ATOM     24  C   LIG A   1      -7.171  -0.003 130.049  0.00  0.00    +0.012 C 
ATOM     25  C   LIG A   1      -5.195   0.746 128.962  0.00  0.00    +0.005 C 
ATOM     26  C   LIG A   1      -4.733  -0.837 129.015  0.00  0.00    +0.006 C 
ATOM     27  C   LIG A   1      -5.737  -2.042 128.442  0.00  0.00    +0.012 C 
ATOM     28  C   LIG A   1      -6.992  -1.549 127.508  0.00  0.00    -0.007 C 
ATOM     29  C   LIG A   1      -8.160  -2.138 128.494  0.00  0.00    +0.016 C 
ATOM     30  C   LIG A   1      -7.777  -1.947 126.073  0.00  0.00    +0.006 C 
ATOM     31  C   LIG A   1      -9.314  -1.120 125.953  0.00  0.00    +0.011 C 
ENDROOT
TORSDOF 0
ENDMDL
MODEL 8
REMARK VINA RESULT:      -8.7      3.202      5.867
REMARK  Name = NuBBE_2491
REMARK  8 active torsions:
REMARK  status: ('A' for Active; 'I' for Inactive)
REMARK    1  A    between atoms: C_1  and  C_2
REMARK    2  A    between atoms: C_2  and  C_3
REMARK    3  A    between atoms: C_6  and  C_7
REMARK    4  A    between atoms: C_11  and  C_12
REMARK    5  A    between atoms: C_17  and  C_18
REMARK    6  A    between atoms: C_17  and  C_19
REMARK    7  A    between atoms: C_24  and  C_25
REMARK    8  A    between atoms: C_30  and  C_31
REMARK                            x       y       z     vdW  Elec       q    Type
REMARK                         _______ _______ _______ _____ _____    ______ ____
ROOT
ATOM      1  C   LIG A   1      -6.244   2.205 127.975  0.00  0.00    +0.011 C 
ATOM      2  C   LIG A   1      -7.150   2.850 129.050  0.00  0.00    -0.035 C 
ATOM      3  C   LIG A   1      -6.172   2.754 130.210  0.00  0.00    +0.011 C 
ATOM      4  C   LIG A   1      -8.440   2.040 128.915  0.00  0.00    +0.007 C 
ATOM      5  C   LIG A   1      -8.980   1.704 130.252  0.00  0.00    +0.008 C 
ATOM      6  C   LIG A   1      -9.465   2.941 131.041  0.00  0.00    -0.025 C 
ATOM      7  C   LIG A   1     -10.972   3.078 130.722  0.00  0.00    +0.012 C 
ATOM      8  C   LIG A   1      -9.388   2.452 132.487  0.00  0.00    +0.034 C 
ATOM      9  C   LIG A   1      -8.300   3.115 133.218  0.00  0.00    -0.026 C 
ATOM     10  C   LIG A   1      -7.284   3.796 132.592  0.00  0.00    -0.061 C 
ATOM     11  C   LIG A   1      -5.842   3.488 133.250  0.00  0.00    -0.007 C 
ATOM     12  C   LIG A   1      -6.071   2.082 133.978  0.00  0.00    +0.016 C 
ATOM     13  C   LIG A   1      -4.449   3.162 132.526  0.00  0.00    +0.012 C 
ATOM     14  C   LIG A   1      -3.615   4.246 131.803  0.00  0.00    +0.006 C 
ATOM     15  C   LIG A   1      -3.234   5.384 132.760  0.00  0.00    +0.008 C 
ATOM     16  C   LIG A   1      -2.583   6.778 132.077  0.00  0.00    +0.027 C 
ATOM     17  C   LIG A   1      -1.329   6.462 131.223  0.00  0.00    +0.019 C 
ATOM     18  C   LIG A   1      -3.361   7.751 131.097  0.00  0.00    +0.019 C 
ATOM     19  C   LIG A   1      -2.218   7.653 133.246  0.00  0.00    +0.139 C 
ATOM     20  O   LIG A   1      -1.317   8.572 133.098  0.00  0.00    -0.297 OA
ATOM     21  C   LIG A   1      -2.955   7.632 134.549  0.00  0.00    +0.075 C 
ATOM     22  C   LIG A   1      -3.974   6.545 134.847  0.00  0.00    +0.015 C 
ATOM     23  C   LIG A   1      -4.471   5.718 133.672  0.00  0.00    -0.024 C 
ATOM     24  C   LIG A   1      -5.305   6.462 132.718  0.00  0.00    +0.012 C 
ATOM     25  C   LIG A   1      -5.570   4.652 134.236  0.00  0.00    +0.005 C 
ATOM     26  C   LIG A   1      -7.001   5.374 134.629  0.00  0.00    +0.006 C 
ATOM     27  C   LIG A   1      -8.102   5.795 133.446  0.00  0.00    +0.012 C 
ATOM     28  C   LIG A   1      -7.860   5.125 131.969  0.00  0.00    -0.007 C 
ATOM     29  C   LIG A   1      -7.669   6.549 131.183  0.00  0.00    +0.016 C 
ATOM     30  C   LIG A   1      -8.715   4.371 130.729  0.00  0.00    +0.006 C 
ATOM     31  C   LIG A   1      -7.748   4.273 129.275  0.00  0.00    +0.011 C 
ENDROOT
TORSDOF 0
ENDMDL
MODEL 9
REMARK VINA RESULT:      -8.6      4.027      7.024
REMARK  Name = NuBBE_2491
REMARK  8 active torsions:
REMARK  status: ('A' for Active; 'I' for Inactive)
REMARK    1  A    between atoms: C_1  and  C_2
REMARK    2  A    between atoms: C_2  and  C_3
REMARK    3  A    between atoms: C_6  and  C_7
REMARK    4  A    between atoms: C_11  and  C_12
REMARK    5  A    between atoms: C_17  and  C_18
REMARK    6  A    between atoms: C_17  and  C_19
REMARK    7  A    between atoms: C_24  and  C_25
REMARK    8  A    between atoms: C_30  and  C_31
REMARK                            x       y       z     vdW  Elec       q    Type
REMARK                         _______ _______ _______ _____ _____    ______ ____
ROOT
ATOM      1  C   LIG A   1      -4.137  -0.618 130.614  0.00  0.00    +0.011 C 
ATOM      2  C   LIG A   1      -4.887   0.719 130.413  0.00  0.00    -0.035 C 
ATOM      3  C   LIG A   1      -4.655   0.848 128.916  0.00  0.00    +0.011 C 
ATOM      4  C   LIG A   1      -4.255   1.610 131.483  0.00  0.00    +0.007 C 
ATOM      5  C   LIG A   1      -3.983   2.958 130.936  0.00  0.00    +0.008 C 
ATOM      6  C   LIG A   1      -5.268   3.745 130.589  0.00  0.00    -0.025 C 
ATOM      7  C   LIG A   1      -5.604   4.577 131.849  0.00  0.00    +0.012 C 
ATOM      8  C   LIG A   1      -4.761   4.747 129.552  0.00  0.00    +0.034 C 
ATOM      9  C   LIG A   1      -5.271   4.431 128.211  0.00  0.00    -0.026 C 
ATOM     10  C   LIG A   1      -5.816   3.212 127.886  0.00  0.00    -0.061 C 
ATOM     11  C   LIG A   1      -5.317   2.680 126.446  0.00  0.00    -0.007 C 
ATOM     12  C   LIG A   1      -3.948   3.476 126.223  0.00  0.00    +0.016 C 
ATOM     13  C   LIG A   1      -4.816   1.215 126.028  0.00  0.00    +0.012 C 
ATOM     14  C   LIG A   1      -5.786   0.022 125.860  0.00  0.00    +0.006 C 
ATOM     15  C   LIG A   1      -6.857   0.321 124.802  0.00  0.00    +0.008 C 
ATOM     16  C   LIG A   1      -8.159  -0.742 124.701  0.00  0.00    +0.027 C 
ATOM     17  C   LIG A   1      -7.687  -2.200 124.471  0.00  0.00    +0.019 C 
ATOM     18  C   LIG A   1      -9.232  -0.963 125.846  0.00  0.00    +0.019 C 
ATOM     19  C   LIG A   1      -8.970  -0.258 123.528  0.00  0.00    +0.139 C 
ATOM     20  O   LIG A   1      -9.762  -1.081 122.920  0.00  0.00    -0.297 OA
ATOM     21  C   LIG A   1      -9.035   1.178 123.113  0.00  0.00    +0.075 C 
ATOM     22  C   LIG A   1      -8.090   2.205 123.712  0.00  0.00    +0.015 C 
ATOM     23  C   LIG A   1      -7.344   1.807 124.976  0.00  0.00    -0.024 C 
ATOM     24  C   LIG A   1      -8.199   1.663 126.163  0.00  0.00    +0.012 C 
ATOM     25  C   LIG A   1      -6.428   3.075 125.440  0.00  0.00    +0.005 C 
ATOM     26  C   LIG A   1      -7.329   4.299 126.082  0.00  0.00    +0.006 C 
ATOM     27  C   LIG A   1      -7.899   4.212 127.650  0.00  0.00    +0.012 C 
ATOM     28  C   LIG A   1      -7.214   3.066 128.601  0.00  0.00    -0.007 C 
ATOM     29  C   LIG A   1      -8.607   2.253 128.891  0.00  0.00    +0.016 C 
ATOM     30  C   LIG A   1      -6.588   2.869 130.152  0.00  0.00    +0.006 C 
ATOM     31  C   LIG A   1      -6.375   1.174 130.529  0.00  0.00    +0.011 C 
ENDROOT
TORSDOF 0
ENDMDL
