MODEL 1
REMARK VINA RESULT:     -10.0      0.000      0.000
REMARK  Name = NuBBE_1232
REMARK  9 active torsions:
REMARK  status: ('A' for Active; 'I' for Inactive)
REMARK    1  A    between atoms: C_1  and  C_2
REMARK    2  A    between atoms: C_2  and  C_34
REMARK    3  A    between atoms: C_5  and  C_6
REMARK    4  A    between atoms: C_6  and  O_7
REMARK    5  A    between atoms: C_11  and  C_12
REMARK    6  A    between atoms: C_13  and  C_27
REMARK    7  A    between atoms: C_17  and  C_18
REMARK    8  A    between atoms: C_17  and  C_26
REMARK    9  A    between atoms: C_22  and  C_24
REMARK                            x       y       z     vdW  Elec       q    Type
REMARK                         _______ _______ _______ _____ _____    ______ ____
ROOT
ATOM      1  C   LIG A   1      -4.979  -3.973 124.016  0.00  0.00    +0.011 C 
ATOM      2  C   LIG A   1      -6.005  -2.833 123.851  0.00  0.00    -0.034 C 
ATOM      3  C   LIG A   1      -7.439  -3.397 123.836  0.00  0.00    +0.007 C 
ATOM      4  C   LIG A   1      -7.909  -3.883 125.207  0.00  0.00    +0.019 C 
ATOM      5  C   LIG A   1      -7.826  -2.782 126.292  0.00  0.00    +0.074 C 
ATOM      6  C   LIG A   1      -8.185  -3.397 127.664  0.00  0.00    +0.019 C 
ATOM      7  C   LIG A   1      -8.064  -2.379 128.800  0.00  0.00    +0.012 C 
ATOM      8  C   LIG A   1      -6.667  -1.691 128.926  0.00  0.00    -0.004 C 
ATOM      9  C   LIG A   1      -5.684  -2.759 129.488  0.00  0.00    +0.016 C 
ATOM     10  C   LIG A   1      -6.779  -0.397 129.895  0.00  0.00    -0.013 C 
ATOM     11  C   LIG A   1      -7.103  -0.790 131.352  0.00  0.00    +0.008 C 
ATOM     12  C   LIG A   1      -7.364   0.425 132.229  0.00  0.00    +0.005 C 
ATOM     13  C   LIG A   1      -6.231   1.470 132.260  0.00  0.00    +0.008 C 
ATOM     14  C   LIG A   1      -6.758   2.933 132.544  0.00  0.00    +0.027 C 
ATOM     15  C   LIG A   1      -7.570   2.942 133.867  0.00  0.00    +0.019 C 
ATOM     16  C   LIG A   1      -5.571   3.887 132.732  0.00  0.00    +0.139 C 
ATOM     17  C   LIG A   1      -4.322   3.656 131.922  0.00  0.00    +0.075 C 
ATOM     18  C   LIG A   1      -4.541   2.703 130.758  0.00  0.00    +0.015 C 
ATOM     19  C   LIG A   1      -5.098   1.313 131.158  0.00  0.00    -0.018 C 
ATOM     20  C   LIG A   1      -5.415   0.363 129.903  0.00  0.00    +0.073 C 
ATOM     21  C   LIG A   1      -3.901   0.588 131.893  0.00  0.00    +0.012 C 
ATOM     22  O   LIG A   1      -5.615   4.838 133.517  0.00  0.00    -0.297 OA
ATOM     23  C   LIG A   1      -7.665   3.536 131.459  0.00  0.00    +0.019 C 
ATOM     24  C   LIG A   1      -7.900   0.556 129.370  0.00  0.00    +0.013 C 
ATOM     25  C   LIG A   1      -6.134  -1.265 127.536  0.00  0.00    -0.056 C 
ATOM     26  C   LIG A   1      -5.480  -0.098 127.361  0.00  0.00    +0.046 C 
ATOM     27  C   LIG A   1      -5.137   0.840 128.469  0.00  0.00    +0.160 C 
ATOM     28  O   LIG A   1      -4.558   1.878 128.167  0.00  0.00    -0.292 OA
ATOM     29  C   LIG A   1      -6.361  -2.252 126.370  0.00  0.00    +0.033 C 
ATOM     30  C   LIG A   1      -5.841  -1.791 124.981  0.00  0.00    +0.015 C 
ATOM     31  C   LIG A   1      -5.731  -2.148 122.497  0.00  0.00    +0.011 C 
ENDROOT
BRANCH   5  32
ATOM     32  C   LIG A   1      -8.833  -1.660 125.955  0.00  0.00    +0.311 C 
ATOM     33  O   LIG A   1      -8.576  -0.467 125.936  0.00  0.00    -0.250 OA
BRANCH  32  34
ATOM     34  O   LIG A   1     -10.086  -2.094 125.675  0.00  0.00    -0.480 OA
ATOM     35  H   LIG A   1     -10.599  -2.434 126.429  0.00  0.00    +0.295 HD
ENDBRANCH  32  34
ENDBRANCH   5  32
TORSDOF 2
ENDMDL
MODEL 2
REMARK VINA RESULT:      -9.9      2.713      7.718
REMARK  Name = NuBBE_1232
REMARK  9 active torsions:
REMARK  status: ('A' for Active; 'I' for Inactive)
REMARK    1  A    between atoms: C_1  and  C_2
REMARK    2  A    between atoms: C_2  and  C_34
REMARK    3  A    between atoms: C_5  and  C_6
REMARK    4  A    between atoms: C_6  and  O_7
REMARK    5  A    between atoms: C_11  and  C_12
REMARK    6  A    between atoms: C_13  and  C_27
REMARK    7  A    between atoms: C_17  and  C_18
REMARK    8  A    between atoms: C_17  and  C_26
REMARK    9  A    between atoms: C_22  and  C_24
REMARK                            x       y       z     vdW  Elec       q    Type
REMARK                         _______ _______ _______ _____ _____    ______ ____
ROOT
ATOM      1  C   LIG A   1      -4.932  -5.321 133.549  0.00  0.00    +0.011 C 
ATOM      2  C   LIG A   1      -6.035  -4.249 133.666  0.00  0.00    -0.034 C 
ATOM      3  C   LIG A   1      -5.475  -2.968 134.313  0.00  0.00    +0.007 C 
ATOM      4  C   LIG A   1      -4.542  -2.185 133.390  0.00  0.00    +0.019 C 
ATOM      5  C   LIG A   1      -5.212  -1.804 132.047  0.00  0.00    +0.074 C 
ATOM      6  C   LIG A   1      -4.160  -1.144 131.128  0.00  0.00    +0.019 C 
ATOM      7  C   LIG A   1      -4.734  -0.794 129.753  0.00  0.00    +0.012 C 
ATOM      8  C   LIG A   1      -5.372  -1.992 128.979  0.00  0.00    -0.004 C 
ATOM      9  C   LIG A   1      -4.201  -2.897 128.499  0.00  0.00    +0.016 C 
ATOM     10  C   LIG A   1      -6.258  -1.435 127.742  0.00  0.00    -0.013 C 
ATOM     11  C   LIG A   1      -5.387  -0.754 126.666  0.00  0.00    +0.008 C 
ATOM     12  C   LIG A   1      -6.226  -0.092 125.583  0.00  0.00    +0.005 C 
ATOM     13  C   LIG A   1      -7.225  -1.021 124.866  0.00  0.00    +0.008 C 
ATOM     14  C   LIG A   1      -8.492  -0.249 124.321  0.00  0.00    +0.027 C 
ATOM     15  C   LIG A   1      -8.033   0.908 123.393  0.00  0.00    +0.019 C 
ATOM     16  C   LIG A   1      -9.354  -1.195 123.474  0.00  0.00    +0.139 C 
ATOM     17  C   LIG A   1      -9.441  -2.646 123.872  0.00  0.00    +0.075 C 
ATOM     18  C   LIG A   1      -8.934  -2.902 125.283  0.00  0.00    +0.015 C 
ATOM     19  C   LIG A   1      -7.479  -2.437 125.539  0.00  0.00    -0.018 C 
ATOM     20  C   LIG A   1      -7.003  -2.626 127.062  0.00  0.00    +0.073 C 
ATOM     21  C   LIG A   1      -6.577  -3.450 124.729  0.00  0.00    +0.012 C 
ATOM     22  O   LIG A   1      -9.982  -0.802 122.487  0.00  0.00    -0.297 OA
ATOM     23  C   LIG A   1      -9.405   0.371 125.389  0.00  0.00    +0.019 C 
ATOM     24  C   LIG A   1      -7.305  -0.402 128.269  0.00  0.00    +0.013 C 
ATOM     25  C   LIG A   1      -6.257  -2.848 129.919  0.00  0.00    -0.056 C 
ATOM     26  C   LIG A   1      -7.430  -3.367 129.500  0.00  0.00    +0.046 C 
ATOM     27  C   LIG A   1      -7.944  -3.247 128.105  0.00  0.00    +0.160 C 
ATOM     28  O   LIG A   1      -9.037  -3.749 127.865  0.00  0.00    -0.292 OA
ATOM     29  C   LIG A   1      -5.719  -3.101 131.343  0.00  0.00    +0.033 C 
ATOM     30  C   LIG A   1      -6.636  -3.940 132.276  0.00  0.00    +0.015 C 
ATOM     31  C   LIG A   1      -7.145  -4.816 134.574  0.00  0.00    +0.011 C 
ENDROOT
BRANCH   5  32
ATOM     32  C   LIG A   1      -6.357  -0.803 132.317  0.00  0.00    +0.311 C 
ATOM     33  O   LIG A   1      -7.534  -0.996 132.060  0.00  0.00    -0.250 OA
BRANCH  32  34
ATOM     34  O   LIG A   1      -5.962   0.367 132.876  0.00  0.00    -0.480 OA
ATOM     35  H   LIG A   1      -5.099   0.356 133.324  0.00  0.00    +0.295 HD
ENDBRANCH  32  34
ENDBRANCH   5  32
TORSDOF 2
ENDMDL
MODEL 3
REMARK VINA RESULT:      -9.6      3.213      8.888
REMARK  Name = NuBBE_1232
REMARK  9 active torsions:
REMARK  status: ('A' for Active; 'I' for Inactive)
REMARK    1  A    between atoms: C_1  and  C_2
REMARK    2  A    between atoms: C_2  and  C_34
REMARK    3  A    between atoms: C_5  and  C_6
REMARK    4  A    between atoms: C_6  and  O_7
REMARK    5  A    between atoms: C_11  and  C_12
REMARK    6  A    between atoms: C_13  and  C_27
REMARK    7  A    between atoms: C_17  and  C_18
REMARK    8  A    between atoms: C_17  and  C_26
REMARK    9  A    between atoms: C_22  and  C_24
REMARK                            x       y       z     vdW  Elec       q    Type
REMARK                         _______ _______ _______ _____ _____    ______ ____
ROOT
ATOM      1  C   LIG A   1      -1.472   4.517 132.802  0.00  0.00    +0.011 C 
ATOM      2  C   LIG A   1      -2.856   5.190 132.695  0.00  0.00    -0.034 C 
ATOM      3  C   LIG A   1      -2.709   6.657 132.249  0.00  0.00    +0.007 C 
ATOM      4  C   LIG A   1      -2.308   6.803 130.781  0.00  0.00    +0.019 C 
ATOM      5  C   LIG A   1      -3.293   6.095 129.819  0.00  0.00    +0.074 C 
ATOM      6  C   LIG A   1      -2.738   6.175 128.380  0.00  0.00    +0.019 C 
ATOM      7  C   LIG A   1      -3.630   5.439 127.377  0.00  0.00    +0.012 C 
ATOM      8  C   LIG A   1      -3.901   3.937 127.711  0.00  0.00    -0.004 C 
ATOM      9  C   LIG A   1      -2.580   3.164 127.430  0.00  0.00    +0.016 C 
ATOM     10  C   LIG A   1      -5.130   3.389 126.808  0.00  0.00    -0.013 C 
ATOM     11  C   LIG A   1      -4.775   3.350 125.307  0.00  0.00    +0.008 C 
ATOM     12  C   LIG A   1      -5.973   2.987 124.443  0.00  0.00    +0.005 C 
ATOM     13  C   LIG A   1      -6.665   1.657 124.801  0.00  0.00    +0.008 C 
ATOM     14  C   LIG A   1      -8.201   1.649 124.432  0.00  0.00    +0.027 C 
ATOM     15  C   LIG A   1      -8.372   1.985 122.926  0.00  0.00    +0.019 C 
ATOM     16  C   LIG A   1      -8.783   0.246 124.653  0.00  0.00    +0.139 C 
ATOM     17  C   LIG A   1      -8.255  -0.584 125.795  0.00  0.00    +0.075 C 
ATOM     18  C   LIG A   1      -7.453   0.232 126.796  0.00  0.00    +0.015 C 
ATOM     19  C   LIG A   1      -6.253   1.001 126.189  0.00  0.00    -0.018 C 
ATOM     20  C   LIG A   1      -5.486   1.934 127.247  0.00  0.00    +0.073 C 
ATOM     21  C   LIG A   1      -5.195  -0.114 125.824  0.00  0.00    +0.012 C 
ATOM     22  O   LIG A   1      -9.673  -0.215 123.933  0.00  0.00    -0.297 OA
ATOM     23  C   LIG A   1      -9.079   2.639 125.213  0.00  0.00    +0.019 C 
ATOM     24  C   LIG A   1      -6.377   4.309 127.006  0.00  0.00    +0.013 C 
ATOM     25  C   LIG A   1      -4.228   3.756 129.213  0.00  0.00    -0.056 C 
ATOM     26  C   LIG A   1      -5.178   2.891 129.627  0.00  0.00    +0.046 C 
ATOM     27  C   LIG A   1      -5.933   1.984 128.716  0.00  0.00    +0.160 C 
ATOM     28  O   LIG A   1      -6.785   1.262 129.223  0.00  0.00    -0.292 OA
ATOM     29  C   LIG A   1      -3.396   4.588 130.213  0.00  0.00    +0.033 C 
ATOM     30  C   LIG A   1      -3.760   4.409 131.713  0.00  0.00    +0.015 C 
ATOM     31  C   LIG A   1      -3.501   5.162 134.095  0.00  0.00    +0.011 C 
ENDROOT
BRANCH   5  32
ATOM     32  C   LIG A   1      -4.663   6.807 129.880  0.00  0.00    +0.311 C 
ATOM     33  O   LIG A   1      -5.725   6.266 130.139  0.00  0.00    -0.250 OA
BRANCH  32  34
ATOM     34  O   LIG A   1      -4.620   8.134 129.607  0.00  0.00    -0.480 OA
ATOM     35  H   LIG A   1      -5.085   8.714 130.235  0.00  0.00    +0.295 HD
ENDBRANCH  32  34
ENDBRANCH   5  32
TORSDOF 2
ENDMDL
MODEL 4
REMARK VINA RESULT:      -9.2      1.979      8.235
REMARK  Name = NuBBE_1232
REMARK  9 active torsions:
REMARK  status: ('A' for Active; 'I' for Inactive)
REMARK    1  A    between atoms: C_1  and  C_2
REMARK    2  A    between atoms: C_2  and  C_34
REMARK    3  A    between atoms: C_5  and  C_6
REMARK    4  A    between atoms: C_6  and  O_7
REMARK    5  A    between atoms: C_11  and  C_12
REMARK    6  A    between atoms: C_13  and  C_27
REMARK    7  A    between atoms: C_17  and  C_18
REMARK    8  A    between atoms: C_17  and  C_26
REMARK    9  A    between atoms: C_22  and  C_24
REMARK                            x       y       z     vdW  Elec       q    Type
REMARK                         _______ _______ _______ _____ _____    ______ ____
ROOT
ATOM      1  C   LIG A   1      -7.682   5.633 132.558  0.00  0.00    +0.011 C 
ATOM      2  C   LIG A   1      -7.319   6.047 131.118  0.00  0.00    -0.034 C 
ATOM      3  C   LIG A   1      -5.847   6.495 131.041  0.00  0.00    +0.007 C 
ATOM      4  C   LIG A   1      -4.857   5.336 131.165  0.00  0.00    +0.019 C 
ATOM      5  C   LIG A   1      -5.091   4.235 130.102  0.00  0.00    +0.074 C 
ATOM      6  C   LIG A   1      -4.144   3.048 130.389  0.00  0.00    +0.019 C 
ATOM      7  C   LIG A   1      -4.361   1.889 129.413  0.00  0.00    +0.012 C 
ATOM      8  C   LIG A   1      -5.823   1.341 129.352  0.00  0.00    -0.004 C 
ATOM      9  C   LIG A   1      -6.069   0.557 130.674  0.00  0.00    +0.016 C 
ATOM     10  C   LIG A   1      -6.001   0.400 128.044  0.00  0.00    -0.013 C 
ATOM     11  C   LIG A   1      -5.154  -0.886 128.136  0.00  0.00    +0.008 C 
ATOM     12  C   LIG A   1      -5.195  -1.694 126.848  0.00  0.00    +0.005 C 
ATOM     13  C   LIG A   1      -6.604  -2.087 126.362  0.00  0.00    +0.008 C 
ATOM     14  C   LIG A   1      -6.683  -2.259 124.793  0.00  0.00    +0.027 C 
ATOM     15  C   LIG A   1      -5.619  -3.290 124.332  0.00  0.00    +0.019 C 
ATOM     16  C   LIG A   1      -8.058  -2.815 124.399  0.00  0.00    +0.139 C 
ATOM     17  C   LIG A   1      -9.265  -2.393 125.195  0.00  0.00    +0.075 C 
ATOM     18  C   LIG A   1      -8.998  -1.182 126.075  0.00  0.00    +0.015 C 
ATOM     19  C   LIG A   1      -7.823  -1.354 127.070  0.00  0.00    -0.018 C 
ATOM     20  C   LIG A   1      -7.497  -0.027 127.915  0.00  0.00    +0.073 C 
ATOM     21  C   LIG A   1      -8.351  -2.377 128.153  0.00  0.00    +0.012 C 
ATOM     22  O   LIG A   1      -8.202  -3.587 123.447  0.00  0.00    -0.297 OA
ATOM     23  C   LIG A   1      -6.452  -0.981 123.971  0.00  0.00    +0.019 C 
ATOM     24  C   LIG A   1      -5.576   1.192 126.767  0.00  0.00    +0.013 C 
ATOM     25  C   LIG A   1      -6.847   2.502 129.310  0.00  0.00    -0.056 C 
ATOM     26  C   LIG A   1      -7.950   2.439 128.535  0.00  0.00    +0.046 C 
ATOM     27  C   LIG A   1      -8.334   1.247 127.726  0.00  0.00    +0.160 C 
ATOM     28  O   LIG A   1      -9.353   1.332 127.050  0.00  0.00    -0.292 OA
ATOM     29  C   LIG A   1      -6.559   3.718 130.217  0.00  0.00    +0.033 C 
ATOM     30  C   LIG A   1      -7.586   4.881 130.137  0.00  0.00    +0.015 C 
ATOM     31  C   LIG A   1      -8.217   7.239 130.731  0.00  0.00    +0.011 C 
ENDROOT
BRANCH   5  32
ATOM     32  C   LIG A   1      -4.784   4.808 128.701  0.00  0.00    +0.311 C 
ATOM     33  O   LIG A   1      -5.603   4.962 127.810  0.00  0.00    -0.250 OA
BRANCH  32  34
ATOM     34  O   LIG A   1      -3.485   5.140 128.500  0.00  0.00    -0.480 OA
ATOM     35  H   LIG A   1      -2.826   4.532 128.879  0.00  0.00    +0.295 HD
ENDBRANCH  32  34
ENDBRANCH   5  32
TORSDOF 2
ENDMDL
MODEL 5
REMARK VINA RESULT:      -9.1      2.698      7.693
REMARK  Name = NuBBE_1232
REMARK  9 active torsions:
REMARK  status: ('A' for Active; 'I' for Inactive)
REMARK    1  A    between atoms: C_1  and  C_2
REMARK    2  A    between atoms: C_2  and  C_34
REMARK    3  A    between atoms: C_5  and  C_6
REMARK    4  A    between atoms: C_6  and  O_7
REMARK    5  A    between atoms: C_11  and  C_12
REMARK    6  A    between atoms: C_13  and  C_27
REMARK    7  A    between atoms: C_17  and  C_18
REMARK    8  A    between atoms: C_17  and  C_26
REMARK    9  A    between atoms: C_22  and  C_24
REMARK                            x       y       z     vdW  Elec       q    Type
REMARK                         _______ _______ _______ _____ _____    ______ ____
ROOT
ATOM      1  C   LIG A   1     -11.889   5.847 129.973  0.00  0.00    +0.011 C 
ATOM      2  C   LIG A   1     -10.392   6.213 130.012  0.00  0.00    -0.034 C 
ATOM      3  C   LIG A   1     -10.021   6.826 131.375  0.00  0.00    +0.007 C 
ATOM      4  C   LIG A   1      -9.999   5.801 132.510  0.00  0.00    +0.019 C 
ATOM      5  C   LIG A   1      -9.042   4.618 132.228  0.00  0.00    +0.074 C 
ATOM      6  C   LIG A   1      -9.188   3.571 133.355  0.00  0.00    +0.019 C 
ATOM      7  C   LIG A   1      -8.315   2.337 133.112  0.00  0.00    +0.012 C 
ATOM      8  C   LIG A   1      -8.553   1.618 131.745  0.00  0.00    -0.004 C 
ATOM      9  C   LIG A   1      -9.926   0.893 131.848  0.00  0.00    +0.016 C 
ATOM     10  C   LIG A   1      -7.339   0.585 131.452  0.00  0.00    -0.013 C 
ATOM     11  C   LIG A   1      -7.317  -0.584 132.459  0.00  0.00    +0.008 C 
ATOM     12  C   LIG A   1      -6.091  -1.468 132.286  0.00  0.00    +0.005 C 
ATOM     13  C   LIG A   1      -5.896  -2.054 130.873  0.00  0.00    +0.008 C 
ATOM     14  C   LIG A   1      -4.378  -2.328 130.531  0.00  0.00    +0.027 C 
ATOM     15  C   LIG A   1      -3.763  -3.253 131.615  0.00  0.00    +0.019 C 
ATOM     16  C   LIG A   1      -4.272  -3.066 129.189  0.00  0.00    +0.139 C 
ATOM     17  C   LIG A   1      -5.266  -2.742 128.105  0.00  0.00    +0.075 C 
ATOM     18  C   LIG A   1      -6.033  -1.457 128.372  0.00  0.00    +0.015 C 
ATOM     19  C   LIG A   1      -6.794  -1.428 129.722  0.00  0.00    -0.018 C 
ATOM     20  C   LIG A   1      -7.511  -0.023 130.025  0.00  0.00    +0.073 C 
ATOM     21  C   LIG A   1      -7.995  -2.438 129.536  0.00  0.00    +0.012 C 
ATOM     22  O   LIG A   1      -3.394  -3.906 128.972  0.00  0.00    -0.297 OA
ATOM     23  C   LIG A   1      -3.480  -1.085 130.443  0.00  0.00    +0.019 C 
ATOM     24  C   LIG A   1      -5.975   1.342 131.532  0.00  0.00    +0.013 C 
ATOM     25  C   LIG A   1      -8.661   2.645 130.592  0.00  0.00    -0.056 C 
ATOM     26  C   LIG A   1      -8.113   2.406 129.383  0.00  0.00    +0.046 C 
ATOM     27  C   LIG A   1      -7.436   1.129 129.012  0.00  0.00    +0.160 C 
ATOM     28  O   LIG A   1      -6.962   1.052 127.884  0.00  0.00    -0.292 OA
ATOM     29  C   LIG A   1      -9.451   3.939 130.884  0.00  0.00    +0.033 C 
ATOM     30  C   LIG A   1      -9.524   4.966 129.720  0.00  0.00    +0.015 C 
ATOM     31  C   LIG A   1     -10.138   7.264 128.913  0.00  0.00    +0.011 C 
ENDROOT
BRANCH   5  32
ATOM     32  C   LIG A   1      -7.587   5.138 132.198  0.00  0.00    +0.311 C 
ATOM     33  O   LIG A   1      -6.830   5.053 131.244  0.00  0.00    -0.250 OA
BRANCH  32  34
ATOM     34  O   LIG A   1      -7.171   5.714 133.351  0.00  0.00    -0.480 OA
ATOM     35  H   LIG A   1      -6.463   5.249 133.830  0.00  0.00    +0.295 HD
ENDBRANCH  32  34
ENDBRANCH   5  32
TORSDOF 2
ENDMDL
MODEL 6
REMARK VINA RESULT:      -9.0      2.637      4.386
REMARK  Name = NuBBE_1232
REMARK  9 active torsions:
REMARK  status: ('A' for Active; 'I' for Inactive)
REMARK    1  A    between atoms: C_1  and  C_2
REMARK    2  A    between atoms: C_2  and  C_34
REMARK    3  A    between atoms: C_5  and  C_6
REMARK    4  A    between atoms: C_6  and  O_7
REMARK    5  A    between atoms: C_11  and  C_12
REMARK    6  A    between atoms: C_13  and  C_27
REMARK    7  A    between atoms: C_17  and  C_18
REMARK    8  A    between atoms: C_17  and  C_26
REMARK    9  A    between atoms: C_22  and  C_24
REMARK                            x       y       z     vdW  Elec       q    Type
REMARK                         _______ _______ _______ _____ _____    ______ ____
ROOT
ATOM      1  C   LIG A   1      -8.926   1.946 122.900  0.00  0.00    +0.011 C 
ATOM      2  C   LIG A   1      -9.822   0.871 123.550  0.00  0.00    -0.034 C 
ATOM      3  C   LIG A   1      -9.818  -0.417 122.705  0.00  0.00    +0.007 C 
ATOM      4  C   LIG A   1      -8.500  -1.187 122.788  0.00  0.00    +0.019 C 
ATOM      5  C   LIG A   1      -8.112  -1.553 124.242  0.00  0.00    +0.074 C 
ATOM      6  C   LIG A   1      -6.709  -2.201 124.242  0.00  0.00    +0.019 C 
ATOM      7  C   LIG A   1      -6.229  -2.534 125.656  0.00  0.00    +0.012 C 
ATOM      8  C   LIG A   1      -6.207  -1.328 126.649  0.00  0.00    -0.004 C 
ATOM      9  C   LIG A   1      -5.019  -0.416 126.227  0.00  0.00    +0.016 C 
ATOM     10  C   LIG A   1      -6.049  -1.871 128.168  0.00  0.00    -0.013 C 
ATOM     11  C   LIG A   1      -4.679  -2.538 128.405  0.00  0.00    +0.008 C 
ATOM     12  C   LIG A   1      -4.586  -3.187 129.778  0.00  0.00    +0.005 C 
ATOM     13  C   LIG A   1      -4.871  -2.251 130.969  0.00  0.00    +0.008 C 
ATOM     14  C   LIG A   1      -5.455  -3.018 132.221  0.00  0.00    +0.027 C 
ATOM     15  C   LIG A   1      -4.487  -4.162 132.623  0.00  0.00    +0.019 C 
ATOM     16  C   LIG A   1      -5.551  -2.062 133.419  0.00  0.00    +0.139 C 
ATOM     17  C   LIG A   1      -5.893  -0.617 133.165  0.00  0.00    +0.075 C 
ATOM     18  C   LIG A   1      -6.446  -0.377 131.769  0.00  0.00    +0.015 C 
ATOM     19  C   LIG A   1      -5.519  -0.843 130.619  0.00  0.00    -0.018 C 
ATOM     20  C   LIG A   1      -6.170  -0.672 129.160  0.00  0.00    +0.073 C 
ATOM     21  C   LIG A   1      -4.315   0.181 130.623  0.00  0.00    +0.012 C 
ATOM     22  O   LIG A   1      -5.366  -2.444 134.577  0.00  0.00    -0.297 OA
ATOM     23  C   LIG A   1      -6.841  -3.652 132.028  0.00  0.00    +0.019 C 
ATOM     24  C   LIG A   1      -7.174  -2.911 128.472  0.00  0.00    +0.013 C 
ATOM     25  C   LIG A   1      -7.500  -0.485 126.521  0.00  0.00    -0.056 C 
ATOM     26  C   LIG A   1      -8.108   0.038 127.606  0.00  0.00    +0.046 C 
ATOM     27  C   LIG A   1      -7.571  -0.065 128.994  0.00  0.00    +0.160 C 
ATOM     28  O   LIG A   1      -8.237   0.438 129.892  0.00  0.00    -0.292 OA
ATOM     29  C   LIG A   1      -8.039  -0.248 125.094  0.00  0.00    +0.033 C 
ATOM     30  C   LIG A   1      -9.351   0.578 124.994  0.00  0.00    +0.015 C 
ATOM     31  C   LIG A   1     -11.260   1.426 123.598  0.00  0.00    +0.011 C 
ENDROOT
BRANCH   5  32
ATOM     32  C   LIG A   1      -9.141  -2.559 124.804  0.00  0.00    +0.311 C 
ATOM     33  O   LIG A   1      -9.762  -2.420 125.845  0.00  0.00    -0.250 OA
BRANCH  32  34
ATOM     34  O   LIG A   1      -9.319  -3.666 124.044  0.00  0.00    -0.480 OA
ATOM     35  H   LIG A   1      -9.939  -4.329 124.394  0.00  0.00    +0.295 HD
ENDBRANCH  32  34
ENDBRANCH   5  32
TORSDOF 2
ENDMDL
MODEL 7
REMARK VINA RESULT:      -8.6      3.398      6.764
REMARK  Name = NuBBE_1232
REMARK  9 active torsions:
REMARK  status: ('A' for Active; 'I' for Inactive)
REMARK    1  A    between atoms: C_1  and  C_2
REMARK    2  A    between atoms: C_2  and  C_34
REMARK    3  A    between atoms: C_5  and  C_6
REMARK    4  A    between atoms: C_6  and  O_7
REMARK    5  A    between atoms: C_11  and  C_12
REMARK    6  A    between atoms: C_13  and  C_27
REMARK    7  A    between atoms: C_17  and  C_18
REMARK    8  A    between atoms: C_17  and  C_26
REMARK    9  A    between atoms: C_22  and  C_24
REMARK                            x       y       z     vdW  Elec       q    Type
REMARK                         _______ _______ _______ _____ _____    ______ ____
ROOT
ATOM      1  C   LIG A   1      -8.417  -4.679 135.077  0.00  0.00    +0.011 C 
ATOM      2  C   LIG A   1      -7.025  -4.034 135.234  0.00  0.00    -0.034 C 
ATOM      3  C   LIG A   1      -5.918  -5.057 134.914  0.00  0.00    +0.007 C 
ATOM      4  C   LIG A   1      -5.813  -5.385 133.425  0.00  0.00    +0.019 C 
ATOM      5  C   LIG A   1      -5.586  -4.128 132.550  0.00  0.00    +0.074 C 
ATOM      6  C   LIG A   1      -5.633  -4.536 131.061  0.00  0.00    +0.019 C 
ATOM      7  C   LIG A   1      -5.478  -3.331 130.130  0.00  0.00    +0.012 C 
ATOM      8  C   LIG A   1      -6.516  -2.185 130.353  0.00  0.00    -0.004 C 
ATOM      9  C   LIG A   1      -7.882  -2.699 129.814  0.00  0.00    +0.016 C 
ATOM     10  C   LIG A   1      -6.024  -0.844 129.586  0.00  0.00    -0.013 C 
ATOM     11  C   LIG A   1      -6.027  -1.018 128.054  0.00  0.00    +0.008 C 
ATOM     12  C   LIG A   1      -5.419   0.179 127.338  0.00  0.00    +0.005 C 
ATOM     13  C   LIG A   1      -6.069   1.539 127.662  0.00  0.00    +0.008 C 
ATOM     14  C   LIG A   1      -5.060   2.746 127.517  0.00  0.00    +0.027 C 
ATOM     15  C   LIG A   1      -4.448   2.740 126.090  0.00  0.00    +0.019 C 
ATOM     16  C   LIG A   1      -5.811   4.075 127.683  0.00  0.00    +0.139 C 
ATOM     17  C   LIG A   1      -6.962   4.138 128.652  0.00  0.00    +0.075 C 
ATOM     18  C   LIG A   1      -7.000   2.952 129.603  0.00  0.00    +0.015 C 
ATOM     19  C   LIG A   1      -7.055   1.569 128.907  0.00  0.00    -0.018 C 
ATOM     20  C   LIG A   1      -6.991   0.332 129.930  0.00  0.00    +0.073 C 
ATOM     21  C   LIG A   1      -8.507   1.479 128.289  0.00  0.00    +0.012 C 
ATOM     22  O   LIG A   1      -5.493   5.089 127.057  0.00  0.00    -0.297 OA
ATOM     23  C   LIG A   1      -3.885   2.756 128.507  0.00  0.00    +0.019 C 
ATOM     24  C   LIG A   1      -4.577  -0.477 130.048  0.00  0.00    +0.013 C 
ATOM     25  C   LIG A   1      -6.699  -1.892 131.862  0.00  0.00    -0.056 C 
ATOM     26  C   LIG A   1      -6.840  -0.632 132.323  0.00  0.00    +0.046 C 
ATOM     27  C   LIG A   1      -6.917   0.572 131.446  0.00  0.00    +0.160 C 
ATOM     28  O   LIG A   1      -7.025   1.662 131.997  0.00  0.00    -0.292 OA
ATOM     29  C   LIG A   1      -6.742  -3.112 132.808  0.00  0.00    +0.033 C 
ATOM     30  C   LIG A   1      -6.900  -2.792 134.320  0.00  0.00    +0.015 C 
ATOM     31  C   LIG A   1      -6.877  -3.589 136.702  0.00  0.00    +0.011 C 
ENDROOT
BRANCH   5  32
ATOM     32  C   LIG A   1      -4.200  -3.528 132.875  0.00  0.00    +0.311 C 
ATOM     33  O   LIG A   1      -4.007  -2.416 133.338  0.00  0.00    -0.250 OA
BRANCH  32  34
ATOM     34  O   LIG A   1      -3.154  -4.342 132.592  0.00  0.00    -0.480 OA
ATOM     35  H   LIG A   1      -2.679  -4.708 133.358  0.00  0.00    +0.295 HD
ENDBRANCH  32  34
ENDBRANCH   5  32
TORSDOF 2
ENDMDL
MODEL 8
REMARK VINA RESULT:      -8.5      2.555      3.763
REMARK  Name = NuBBE_1232
REMARK  9 active torsions:
REMARK  status: ('A' for Active; 'I' for Inactive)
REMARK    1  A    between atoms: C_1  and  C_2
REMARK    2  A    between atoms: C_2  and  C_34
REMARK    3  A    between atoms: C_5  and  C_6
REMARK    4  A    between atoms: C_6  and  O_7
REMARK    5  A    between atoms: C_11  and  C_12
REMARK    6  A    between atoms: C_13  and  C_27
REMARK    7  A    between atoms: C_17  and  C_18
REMARK    8  A    between atoms: C_17  and  C_26
REMARK    9  A    between atoms: C_22  and  C_24
REMARK                            x       y       z     vdW  Elec       q    Type
REMARK                         _______ _______ _______ _____ _____    ______ ____
ROOT
ATOM      1  C   LIG A   1      -7.322  -3.656 124.134  0.00  0.00    +0.011 C 
ATOM      2  C   LIG A   1      -6.250  -2.551 124.231  0.00  0.00    -0.034 C 
ATOM      3  C   LIG A   1      -6.849  -1.185 123.846  0.00  0.00    +0.007 C 
ATOM      4  C   LIG A   1      -7.800  -0.625 124.903  0.00  0.00    +0.019 C 
ATOM      5  C   LIG A   1      -7.137  -0.494 126.295  0.00  0.00    +0.074 C 
ATOM      6  C   LIG A   1      -8.204  -0.057 127.323  0.00  0.00    +0.019 C 
ATOM      7  C   LIG A   1      -7.634   0.034 128.741  0.00  0.00    +0.012 C 
ATOM      8  C   LIG A   1      -6.960  -1.274 129.267  0.00  0.00    -0.004 C 
ATOM      9  C   LIG A   1      -8.103  -2.288 129.559  0.00  0.00    +0.016 C 
ATOM     10  C   LIG A   1      -6.086  -0.944 130.592  0.00  0.00    -0.013 C 
ATOM     11  C   LIG A   1      -6.972  -0.511 131.778  0.00  0.00    +0.008 C 
ATOM     12  C   LIG A   1      -6.148  -0.051 132.972  0.00  0.00    +0.005 C 
ATOM     13  C   LIG A   1      -5.120  -1.073 133.495  0.00  0.00    +0.008 C 
ATOM     14  C   LIG A   1      -3.874  -0.386 134.183  0.00  0.00    +0.027 C 
ATOM     15  C   LIG A   1      -4.363   0.553 135.318  0.00  0.00    +0.019 C 
ATOM     16  C   LIG A   1      -2.982  -1.455 134.830  0.00  0.00    +0.139 C 
ATOM     17  C   LIG A   1      -2.855  -2.796 134.156  0.00  0.00    +0.075 C 
ATOM     18  C   LIG A   1      -3.360  -2.786 132.722  0.00  0.00    +0.015 C 
ATOM     19  C   LIG A   1      -4.829  -2.322 132.558  0.00  0.00    -0.018 C 
ATOM     20  C   LIG A   1      -5.305  -2.224 131.027  0.00  0.00    +0.073 C 
ATOM     21  C   LIG A   1      -5.699  -3.500 133.153  0.00  0.00    +0.012 C 
ATOM     22  O   LIG A   1      -2.362  -1.244 135.876  0.00  0.00    -0.297 OA
ATOM     23  C   LIG A   1      -2.983   0.457 133.258  0.00  0.00    +0.019 C 
ATOM     24  C   LIG A   1      -5.071   0.201 130.278  0.00  0.00    +0.013 C 
ATOM     25  C   LIG A   1      -6.054  -1.904 128.180  0.00  0.00    -0.056 C 
ATOM     26  C   LIG A   1      -4.866  -2.461 128.492  0.00  0.00    +0.046 C 
ATOM     27  C   LIG A   1      -4.350  -2.601 129.884  0.00  0.00    +0.160 C 
ATOM     28  O   LIG A   1      -3.243  -3.109 130.024  0.00  0.00    -0.292 OA
ATOM     29  C   LIG A   1      -6.590  -1.889 126.733  0.00  0.00    +0.033 C 
ATOM     30  C   LIG A   1      -5.653  -2.503 125.656  0.00  0.00    +0.015 C 
ATOM     31  C   LIG A   1      -5.128  -2.898 123.232  0.00  0.00    +0.011 C 
ENDROOT
BRANCH   5  32
ATOM     32  C   LIG A   1      -6.022   0.573 126.228  0.00  0.00    +0.311 C 
ATOM     33  O   LIG A   1      -4.838   0.366 126.441  0.00  0.00    -0.250 OA
BRANCH  32  34
ATOM     34  O   LIG A   1      -6.453   1.818 125.913  0.00  0.00    -0.480 OA
ATOM     35  H   LIG A   1      -7.416   1.952 125.922  0.00  0.00    +0.295 HD
ENDBRANCH  32  34
ENDBRANCH   5  32
TORSDOF 2
ENDMDL
MODEL 9
REMARK VINA RESULT:      -8.5      2.636      8.221
REMARK  Name = NuBBE_1232
REMARK  9 active torsions:
REMARK  status: ('A' for Active; 'I' for Inactive)
REMARK    1  A    between atoms: C_1  and  C_2
REMARK    2  A    between atoms: C_2  and  C_34
REMARK    3  A    between atoms: C_5  and  C_6
REMARK    4  A    between atoms: C_6  and  O_7
REMARK    5  A    between atoms: C_11  and  C_12
REMARK    6  A    between atoms: C_13  and  C_27
REMARK    7  A    between atoms: C_17  and  C_18
REMARK    8  A    between atoms: C_17  and  C_26
REMARK    9  A    between atoms: C_22  and  C_24
REMARK                            x       y       z     vdW  Elec       q    Type
REMARK                         _______ _______ _______ _____ _____    ______ ____
ROOT
ATOM      1  C   LIG A   1      -3.750   7.590 128.878  0.00  0.00    +0.011 C 
ATOM      2  C   LIG A   1      -3.578   6.375 129.812  0.00  0.00    -0.034 C 
ATOM      3  C   LIG A   1      -4.466   6.525 131.062  0.00  0.00    +0.007 C 
ATOM      4  C   LIG A   1      -5.954   6.335 130.770  0.00  0.00    +0.019 C 
ATOM      5  C   LIG A   1      -6.264   4.969 130.110  0.00  0.00    +0.074 C 
ATOM      6  C   LIG A   1      -7.760   4.923 129.725  0.00  0.00    +0.019 C 
ATOM      7  C   LIG A   1      -8.129   3.622 129.008  0.00  0.00    +0.012 C 
ATOM      8  C   LIG A   1      -7.289   3.310 127.728  0.00  0.00    -0.004 C 
ATOM      9  C   LIG A   1      -7.756   4.304 126.626  0.00  0.00    +0.016 C 
ATOM     10  C   LIG A   1      -7.511   1.766 127.290  0.00  0.00    -0.013 C 
ATOM     11  C   LIG A   1      -8.958   1.498 126.826  0.00  0.00    +0.008 C 
ATOM     12  C   LIG A   1      -9.212   0.021 126.564  0.00  0.00    +0.005 C 
ATOM     13  C   LIG A   1      -8.258  -0.642 125.551  0.00  0.00    +0.008 C 
ATOM     14  C   LIG A   1      -8.063  -2.187 125.817  0.00  0.00    +0.027 C 
ATOM     15  C   LIG A   1      -9.448  -2.888 125.829  0.00  0.00    +0.019 C 
ATOM     16  C   LIG A   1      -7.247  -2.813 124.678  0.00  0.00    +0.139 C 
ATOM     17  C   LIG A   1      -6.160  -1.994 124.033  0.00  0.00    +0.075 C 
ATOM     18  C   LIG A   1      -5.784  -0.765 124.846  0.00  0.00    +0.015 C 
ATOM     19  C   LIG A   1      -6.964   0.190 125.154  0.00  0.00    -0.018 C 
ATOM     20  C   LIG A   1      -6.562   1.425 126.099  0.00  0.00    +0.073 C 
ATOM     21  C   LIG A   1      -7.315   0.867 123.769  0.00  0.00    +0.012 C 
ATOM     22  O   LIG A   1      -7.448  -3.965 124.285  0.00  0.00    -0.297 OA
ATOM     23  C   LIG A   1      -7.366  -2.553 127.137  0.00  0.00    +0.019 C 
ATOM     24  C   LIG A   1      -7.187   0.827 128.496  0.00  0.00    +0.013 C 
ATOM     25  C   LIG A   1      -5.784   3.576 127.979  0.00  0.00    -0.056 C 
ATOM     26  C   LIG A   1      -4.833   2.761 127.478  0.00  0.00    +0.046 C 
ATOM     27  C   LIG A   1      -5.115   1.598 126.587  0.00  0.00    +0.160 C 
ATOM     28  O   LIG A   1      -4.158   0.926 126.221  0.00  0.00    -0.292 OA
ATOM     29  C   LIG A   1      -5.426   4.833 128.800  0.00  0.00    +0.033 C 
ATOM     30  C   LIG A   1      -3.911   5.065 129.060  0.00  0.00    +0.015 C 
ATOM     31  C   LIG A   1      -2.102   6.331 130.258  0.00  0.00    +0.011 C 
ENDROOT
BRANCH   5  32
ATOM     32  C   LIG A   1      -5.958   3.838 131.116  0.00  0.00    +0.311 C 
ATOM     33  O   LIG A   1      -5.129   2.958 130.953  0.00  0.00    -0.250 OA
BRANCH  32  34
ATOM     34  O   LIG A   1      -6.706   3.872 132.246  0.00  0.00    -0.480 OA
ATOM     35  H   LIG A   1      -7.552   4.349 132.184  0.00  0.00    +0.295 HD
ENDBRANCH  32  34
ENDBRANCH   5  32
TORSDOF 2
ENDMDL
