MODEL 1
REMARK VINA RESULT:      -7.7      0.000      0.000
REMARK  Name = NuBBE_2425
REMARK  8 active torsions:
REMARK  status: ('A' for Active; 'I' for Inactive)
REMARK    1  A    between atoms: C_1  and  C_2
REMARK    2  A    between atoms: C_1  and  C_16
REMARK    3  A    between atoms: C_6  and  O_11
REMARK    4  A    between atoms: C_7  and  O_9
REMARK    5  A    between atoms: O_9  and  C_10
REMARK    6  A    between atoms: O_11  and  C_12
REMARK    7  A    between atoms: C_19  and  O_22
REMARK    8  A    between atoms: O_22  and  C_23
REMARK                            x       y       z     vdW  Elec       q    Type
REMARK                         _______ _______ _______ _____ _____    ______ ____
ROOT
ATOM      1  C   LIG A   1      -7.099   1.733 124.727  0.00  0.00    +0.053 A 
ATOM      2  C   LIG A   1      -6.951   0.338 124.558  0.00  0.00    +0.007 A 
ATOM      3  C   LIG A   1      -5.909  -0.285 125.297  0.00  0.00    -0.011 A 
ATOM      4  C   LIG A   1      -5.664  -1.645 125.119  0.00  0.00    +0.058 A 
ATOM      5  C   LIG A   1      -6.430  -2.447 124.273  0.00  0.00    +0.162 A 
ATOM      6  C   LIG A   1      -7.532  -1.880 123.601  0.00  0.00    +0.162 A 
ATOM      7  C   LIG A   1      -7.739  -0.497 123.742  0.00  0.00    +0.059 A 
ATOM      8  C   LIG A   1      -5.141   0.468 126.174  0.00  0.00    +0.028 A 
ATOM      9  C   LIG A   1      -5.382   1.813 126.291  0.00  0.00    +0.112 A 
ATOM     10  N   LIG A   1      -6.334   2.468 125.582  0.00  0.00    -0.259 NA
ENDROOT
BRANCH   6  11
ATOM     11  O   LIG A   1      -8.328  -2.650 122.791  0.00  0.00    -0.491 OA
ATOM     12  C   LIG A   1      -9.502  -3.193 123.425  0.00  0.00    +0.277 C 
ENDBRANCH   6  11
BRANCH   5  13
ATOM     13  O   LIG A   1      -5.893  -3.695 124.123  0.00  0.00    -0.491 OA
ATOM     14  C   LIG A   1      -4.616  -3.810 123.525  0.00  0.00    +0.277 C 
ENDBRANCH   5  13
BRANCH   1  15
ATOM     15  C   LIG A   1      -8.171   2.525 123.989  0.00  0.00    +0.091 C 
BRANCH  15  16
ATOM     16  C   LIG A   1      -7.783   3.046 122.623  0.00  0.00    -0.041 A 
ATOM     17  C   LIG A   1      -8.738   3.318 121.631  0.00  0.00    +0.007 A 
ATOM     18  C   LIG A   1      -8.359   3.853 120.391  0.00  0.00    +0.046 A 
ATOM     19  C   LIG A   1      -7.015   4.113 120.122  0.00  0.00    +0.120 A 
ATOM     20  C   LIG A   1      -6.065   3.831 121.105  0.00  0.00    +0.046 A 
ATOM     21  C   LIG A   1      -6.440   3.308 122.338  0.00  0.00    +0.007 A 
BRANCH  19  22
ATOM     22  O   LIG A   1      -6.709   4.641 118.892  0.00  0.00    -0.495 OA
ATOM     23  C   LIG A   1      -5.732   5.684 118.929  0.00  0.00    +0.277 C 
ENDBRANCH  19  22
ENDBRANCH  15  16
ENDBRANCH   1  15
TORSDOF 5
ENDMDL
MODEL 2
REMARK VINA RESULT:      -6.8      2.184      2.459
REMARK  Name = NuBBE_2425
REMARK  8 active torsions:
REMARK  status: ('A' for Active; 'I' for Inactive)
REMARK    1  A    between atoms: C_1  and  C_2
REMARK    2  A    between atoms: C_1  and  C_16
REMARK    3  A    between atoms: C_6  and  O_11
REMARK    4  A    between atoms: C_7  and  O_9
REMARK    5  A    between atoms: O_9  and  C_10
REMARK    6  A    between atoms: O_11  and  C_12
REMARK    7  A    between atoms: C_19  and  O_22
REMARK    8  A    between atoms: O_22  and  C_23
REMARK                            x       y       z     vdW  Elec       q    Type
REMARK                         _______ _______ _______ _____ _____    ______ ____
ROOT
ATOM      1  C   LIG A   1      -8.826   1.850 124.888  0.00  0.00    +0.053 A 
ATOM      2  C   LIG A   1      -8.669   0.578 125.481  0.00  0.00    +0.007 A 
ATOM      3  C   LIG A   1      -8.126   0.552 126.795  0.00  0.00    -0.011 A 
ATOM      4  C   LIG A   1      -7.878  -0.675 127.407  0.00  0.00    +0.058 A 
ATOM      5  C   LIG A   1      -8.182  -1.896 126.806  0.00  0.00    +0.162 A 
ATOM      6  C   LIG A   1      -8.812  -1.902 125.545  0.00  0.00    +0.162 A 
ATOM      7  C   LIG A   1      -9.008  -0.664 124.910  0.00  0.00    +0.059 A 
ATOM      8  C   LIG A   1      -7.837   1.744 127.444  0.00  0.00    +0.028 A 
ATOM      9  C   LIG A   1      -8.052   2.931 126.793  0.00  0.00    +0.112 A 
ATOM     10  N   LIG A   1      -8.530   3.016 125.528  0.00  0.00    -0.259 NA
ENDROOT
BRANCH   6  11
ATOM     11  O   LIG A   1      -9.160  -3.085 124.943  0.00  0.00    -0.491 OA
ATOM     12  C   LIG A   1      -9.350  -3.013 123.517  0.00  0.00    +0.277 C 
ENDBRANCH   6  11
BRANCH   5  13
ATOM     13  O   LIG A   1      -7.686  -2.955 127.514  0.00  0.00    -0.491 OA
ATOM     14  C   LIG A   1      -8.442  -3.449 128.603  0.00  0.00    +0.277 C 
ENDBRANCH   5  13
BRANCH   1  15
ATOM     15  C   LIG A   1      -9.390   2.019 123.483  0.00  0.00    +0.091 C 
BRANCH  15  16
ATOM     16  C   LIG A   1      -8.462   2.658 122.472  0.00  0.00    -0.041 A 
ATOM     17  C   LIG A   1      -8.944   3.292 121.317  0.00  0.00    +0.007 A 
ATOM     18  C   LIG A   1      -8.069   3.925 120.422  0.00  0.00    +0.046 A 
ATOM     19  C   LIG A   1      -6.696   3.922 120.667  0.00  0.00    +0.120 A 
ATOM     20  C   LIG A   1      -6.217   3.282 121.811  0.00  0.00    +0.046 A 
ATOM     21  C   LIG A   1      -7.084   2.660 122.703  0.00  0.00    +0.007 A 
BRANCH  19  22
ATOM     22  O   LIG A   1      -5.891   4.564 119.757  0.00  0.00    -0.495 OA
ATOM     23  C   LIG A   1      -4.870   5.372 120.345  0.00  0.00    +0.277 C 
ENDBRANCH  19  22
ENDBRANCH  15  16
ENDBRANCH   1  15
TORSDOF 5
ENDMDL
MODEL 3
REMARK VINA RESULT:      -6.7      2.745      3.777
REMARK  Name = NuBBE_2425
REMARK  8 active torsions:
REMARK  status: ('A' for Active; 'I' for Inactive)
REMARK    1  A    between atoms: C_1  and  C_2
REMARK    2  A    between atoms: C_1  and  C_16
REMARK    3  A    between atoms: C_6  and  O_11
REMARK    4  A    between atoms: C_7  and  O_9
REMARK    5  A    between atoms: O_9  and  C_10
REMARK    6  A    between atoms: O_11  and  C_12
REMARK    7  A    between atoms: C_19  and  O_22
REMARK    8  A    between atoms: O_22  and  C_23
REMARK                            x       y       z     vdW  Elec       q    Type
REMARK                         _______ _______ _______ _____ _____    ______ ____
ROOT
ATOM      1  C   LIG A   1      -9.206   0.305 123.916  0.00  0.00    +0.053 A 
ATOM      2  C   LIG A   1      -8.634  -0.292 125.062  0.00  0.00    +0.007 A 
ATOM      3  C   LIG A   1      -8.551  -1.711 125.065  0.00  0.00    -0.011 A 
ATOM      4  C   LIG A   1      -8.065  -2.364 126.196  0.00  0.00    +0.058 A 
ATOM      5  C   LIG A   1      -7.606  -1.684 127.324  0.00  0.00    +0.162 A 
ATOM      6  C   LIG A   1      -7.584  -0.275 127.314  0.00  0.00    +0.162 A 
ATOM      7  C   LIG A   1      -8.127   0.376 126.193  0.00  0.00    +0.059 A 
ATOM      8  C   LIG A   1      -8.967  -2.428 123.952  0.00  0.00    +0.028 A 
ATOM      9  C   LIG A   1      -9.482  -1.754 122.875  0.00  0.00    +0.112 A 
ATOM     10  N   LIG A   1      -9.622  -0.406 122.831  0.00  0.00    -0.259 NA
ENDROOT
BRANCH   6  11
ATOM     11  O   LIG A   1      -7.103   0.424 128.392  0.00  0.00    -0.491 OA
ATOM     12  C   LIG A   1      -8.086   0.765 129.388  0.00  0.00    +0.277 C 
ENDBRANCH   6  11
BRANCH   5  13
ATOM     13  O   LIG A   1      -7.351  -2.531 128.366  0.00  0.00    -0.491 OA
ATOM     14  C   LIG A   1      -8.421  -3.294 128.890  0.00  0.00    +0.277 C 
ENDBRANCH   5  13
BRANCH   1  15
ATOM     15  C   LIG A   1      -9.361   1.815 123.787  0.00  0.00    +0.091 C 
BRANCH  15  16
ATOM     16  C   LIG A   1      -8.463   2.486 122.770  0.00  0.00    -0.041 A 
ATOM     17  C   LIG A   1      -8.974   3.094 121.613  0.00  0.00    +0.007 A 
ATOM     18  C   LIG A   1      -8.127   3.758 120.712  0.00  0.00    +0.046 A 
ATOM     19  C   LIG A   1      -6.754   3.812 120.953  0.00  0.00    +0.120 A 
ATOM     20  C   LIG A   1      -6.247   3.197 122.099  0.00  0.00    +0.046 A 
ATOM     21  C   LIG A   1      -7.085   2.544 122.996  0.00  0.00    +0.007 A 
BRANCH  19  22
ATOM     22  O   LIG A   1      -5.980   4.481 120.038  0.00  0.00    -0.495 OA
ATOM     23  C   LIG A   1      -6.684   4.892 118.863  0.00  0.00    +0.277 C 
ENDBRANCH  19  22
ENDBRANCH  15  16
ENDBRANCH   1  15
TORSDOF 5
ENDMDL
MODEL 4
REMARK VINA RESULT:      -6.7      3.685      7.870
REMARK  Name = NuBBE_2425
REMARK  8 active torsions:
REMARK  status: ('A' for Active; 'I' for Inactive)
REMARK    1  A    between atoms: C_1  and  C_2
REMARK    2  A    between atoms: C_1  and  C_16
REMARK    3  A    between atoms: C_6  and  O_11
REMARK    4  A    between atoms: C_7  and  O_9
REMARK    5  A    between atoms: O_9  and  C_10
REMARK    6  A    between atoms: O_11  and  C_12
REMARK    7  A    between atoms: C_19  and  O_22
REMARK    8  A    between atoms: O_22  and  C_23
REMARK                            x       y       z     vdW  Elec       q    Type
REMARK                         _______ _______ _______ _____ _____    ______ ____
ROOT
ATOM      1  C   LIG A   1      -8.970  -2.410 125.479  0.00  0.00    +0.053 A 
ATOM      2  C   LIG A   1      -8.928  -1.036 125.157  0.00  0.00    +0.007 A 
ATOM      3  C   LIG A   1      -8.883  -0.708 123.774  0.00  0.00    -0.011 A 
ATOM      4  C   LIG A   1      -8.767   0.627 123.392  0.00  0.00    +0.058 A 
ATOM      5  C   LIG A   1      -8.739   1.677 124.310  0.00  0.00    +0.162 A 
ATOM      6  C   LIG A   1      -8.881   1.393 125.683  0.00  0.00    +0.162 A 
ATOM      7  C   LIG A   1      -8.942   0.041 126.064  0.00  0.00    +0.059 A 
ATOM      8  C   LIG A   1      -8.939  -1.719 122.825  0.00  0.00    +0.028 A 
ATOM      9  C   LIG A   1      -9.008  -3.023 123.239  0.00  0.00    +0.112 A 
ATOM     10  N   LIG A   1      -9.014  -3.398 124.541  0.00  0.00    -0.259 NA
ENDROOT
BRANCH   6  11
ATOM     11  O   LIG A   1      -8.896   2.405 126.608  0.00  0.00    -0.491 OA
ATOM     12  C   LIG A   1      -7.641   2.645 127.273  0.00  0.00    +0.277 C 
ENDBRANCH   6  11
BRANCH   5  13
ATOM     13  O   LIG A   1      -8.439   2.871 123.715  0.00  0.00    -0.491 OA
ATOM     14  C   LIG A   1      -8.569   2.974 122.310  0.00  0.00    +0.277 C 
ENDBRANCH   5  13
BRANCH   1  15
ATOM     15  C   LIG A   1      -9.014  -2.898 126.921  0.00  0.00    +0.091 C 
BRANCH  15  16
ATOM     16  C   LIG A   1      -7.694  -2.894 127.660  0.00  0.00    -0.041 A 
ATOM     17  C   LIG A   1      -6.525  -2.363 127.093  0.00  0.00    +0.007 A 
ATOM     18  C   LIG A   1      -5.325  -2.320 127.819  0.00  0.00    +0.046 A 
ATOM     19  C   LIG A   1      -5.277  -2.821 129.120  0.00  0.00    +0.120 A 
ATOM     20  C   LIG A   1      -6.437  -3.359 129.678  0.00  0.00    +0.046 A 
ATOM     21  C   LIG A   1      -7.629  -3.396 128.963  0.00  0.00    +0.007 A 
BRANCH  19  22
ATOM     22  O   LIG A   1      -4.074  -2.746 129.780  0.00  0.00    -0.495 OA
ATOM     23  C   LIG A   1      -3.066  -3.617 129.261  0.00  0.00    +0.277 C 
ENDBRANCH  19  22
ENDBRANCH  15  16
ENDBRANCH   1  15
TORSDOF 5
ENDMDL
MODEL 5
REMARK VINA RESULT:      -6.7      7.762      9.199
REMARK  Name = NuBBE_2425
REMARK  8 active torsions:
REMARK  status: ('A' for Active; 'I' for Inactive)
REMARK    1  A    between atoms: C_1  and  C_2
REMARK    2  A    between atoms: C_1  and  C_16
REMARK    3  A    between atoms: C_6  and  O_11
REMARK    4  A    between atoms: C_7  and  O_9
REMARK    5  A    between atoms: O_9  and  C_10
REMARK    6  A    between atoms: O_11  and  C_12
REMARK    7  A    between atoms: C_19  and  O_22
REMARK    8  A    between atoms: O_22  and  C_23
REMARK                            x       y       z     vdW  Elec       q    Type
REMARK                         _______ _______ _______ _____ _____    ______ ____
ROOT
ATOM      1  C   LIG A   1      -8.464   5.481 132.009  0.00  0.00    +0.053 A 
ATOM      2  C   LIG A   1      -8.594   4.157 131.536  0.00  0.00    +0.007 A 
ATOM      3  C   LIG A   1      -8.611   3.129 132.518  0.00  0.00    -0.011 A 
ATOM      4  C   LIG A   1      -8.663   1.797 132.113  0.00  0.00    +0.058 A 
ATOM      5  C   LIG A   1      -8.748   1.417 130.774  0.00  0.00    +0.162 A 
ATOM      6  C   LIG A   1      -8.833   2.414 129.781  0.00  0.00    +0.162 A 
ATOM      7  C   LIG A   1      -8.723   3.753 130.193  0.00  0.00    +0.059 A 
ATOM      8  C   LIG A   1      -8.559   3.463 133.865  0.00  0.00    +0.028 A 
ATOM      9  C   LIG A   1      -8.463   4.782 134.225  0.00  0.00    +0.112 A 
ATOM     10  N   LIG A   1      -8.403   5.800 133.333  0.00  0.00    -0.259 NA
ENDROOT
BRANCH   6  11
ATOM     11  O   LIG A   1      -8.955   2.074 128.458  0.00  0.00    -0.491 OA
ATOM     12  C   LIG A   1      -7.851   2.466 127.620  0.00  0.00    +0.277 C 
ENDBRANCH   6  11
BRANCH   5  13
ATOM     13  O   LIG A   1      -8.604   0.067 130.613  0.00  0.00    -0.491 OA
ATOM     14  C   LIG A   1      -7.295  -0.463 130.512  0.00  0.00    +0.277 C 
ENDBRANCH   5  13
BRANCH   1  15
ATOM     15  C   LIG A   1      -8.426   6.674 131.064  0.00  0.00    +0.091 C 
BRANCH  15  16
ATOM     16  C   LIG A   1      -9.748   7.066 130.441  0.00  0.00    -0.041 A 
ATOM     17  C   LIG A   1     -10.977   6.714 131.022  0.00  0.00    +0.007 A 
ATOM     18  C   LIG A   1     -12.190   7.135 130.456  0.00  0.00    +0.046 A 
ATOM     19  C   LIG A   1     -12.189   7.907 129.294  0.00  0.00    +0.120 A 
ATOM     20  C   LIG A   1     -10.966   8.247 128.712  0.00  0.00    +0.046 A 
ATOM     21  C   LIG A   1      -9.763   7.836 129.275  0.00  0.00    +0.007 A 
BRANCH  19  22
ATOM     22  O   LIG A   1     -13.408   8.293 128.792  0.00  0.00    -0.495 OA
ATOM     23  C   LIG A   1     -13.559   9.707 128.643  0.00  0.00    +0.277 C 
ENDBRANCH  19  22
ENDBRANCH  15  16
ENDBRANCH   1  15
TORSDOF 5
ENDMDL
MODEL 6
REMARK VINA RESULT:      -6.4      5.331      8.277
REMARK  Name = NuBBE_2425
REMARK  8 active torsions:
REMARK  status: ('A' for Active; 'I' for Inactive)
REMARK    1  A    between atoms: C_1  and  C_2
REMARK    2  A    between atoms: C_1  and  C_16
REMARK    3  A    between atoms: C_6  and  O_11
REMARK    4  A    between atoms: C_7  and  O_9
REMARK    5  A    between atoms: O_9  and  C_10
REMARK    6  A    between atoms: O_11  and  C_12
REMARK    7  A    between atoms: C_19  and  O_22
REMARK    8  A    between atoms: O_22  and  C_23
REMARK                            x       y       z     vdW  Elec       q    Type
REMARK                         _______ _______ _______ _____ _____    ______ ____
ROOT
ATOM      1  C   LIG A   1      -7.944   0.346 129.871  0.00  0.00    +0.053 A 
ATOM      2  C   LIG A   1      -8.259   1.721 129.788  0.00  0.00    +0.007 A 
ATOM      3  C   LIG A   1      -9.077   2.250 130.823  0.00  0.00    -0.011 A 
ATOM      4  C   LIG A   1      -9.484   3.580 130.760  0.00  0.00    +0.058 A 
ATOM      5  C   LIG A   1      -9.086   4.446 129.741  0.00  0.00    +0.162 A 
ATOM      6  C   LIG A   1      -8.196   3.979 128.753  0.00  0.00    +0.162 A 
ATOM      7  C   LIG A   1      -7.835   2.621 128.792  0.00  0.00    +0.059 A 
ATOM      8  C   LIG A   1      -9.472   1.433 131.874  0.00  0.00    +0.028 A 
ATOM      9  C   LIG A   1      -9.089   0.117 131.880  0.00  0.00    +0.112 A 
ATOM     10  N   LIG A   1      -8.345  -0.452 130.900  0.00  0.00    -0.259 NA
ENDROOT
BRANCH   6  11
ATOM     11  O   LIG A   1      -7.755   4.815 127.758  0.00  0.00    -0.491 OA
ATOM     12  C   LIG A   1      -7.207   4.154 126.601  0.00  0.00    +0.277 C 
ENDBRANCH   6  11
BRANCH   5  13
ATOM     13  O   LIG A   1      -9.751   5.639 129.791  0.00  0.00    -0.491 OA
ATOM     14  C   LIG A   1      -9.252   6.652 130.643  0.00  0.00    +0.277 C 
ENDBRANCH   5  13
BRANCH   1  15
ATOM     15  C   LIG A   1      -7.083  -0.348 128.824  0.00  0.00    +0.091 C 
BRANCH  15  16
ATOM     16  C   LIG A   1      -7.833  -1.076 127.730  0.00  0.00    -0.041 A 
ATOM     17  C   LIG A   1      -8.292  -0.419 126.578  0.00  0.00    +0.007 A 
ATOM     18  C   LIG A   1      -8.937  -1.125 125.551  0.00  0.00    +0.046 A 
ATOM     19  C   LIG A   1      -9.140  -2.500 125.670  0.00  0.00    +0.120 A 
ATOM     20  C   LIG A   1      -8.692  -3.150 126.821  0.00  0.00    +0.046 A 
ATOM     21  C   LIG A   1      -8.047  -2.453 127.836  0.00  0.00    +0.007 A 
BRANCH  19  22
ATOM     22  O   LIG A   1      -9.772  -3.136 124.629  0.00  0.00    -0.495 OA
ATOM     23  C   LIG A   1      -9.200  -2.869 123.346  0.00  0.00    +0.277 C 
ENDBRANCH  19  22
ENDBRANCH  15  16
ENDBRANCH   1  15
TORSDOF 5
ENDMDL
MODEL 7
REMARK VINA RESULT:      -6.4      4.817      7.078
REMARK  Name = NuBBE_2425
REMARK  8 active torsions:
REMARK  status: ('A' for Active; 'I' for Inactive)
REMARK    1  A    between atoms: C_1  and  C_2
REMARK    2  A    between atoms: C_1  and  C_16
REMARK    3  A    between atoms: C_6  and  O_11
REMARK    4  A    between atoms: C_7  and  O_9
REMARK    5  A    between atoms: O_9  and  C_10
REMARK    6  A    between atoms: O_11  and  C_12
REMARK    7  A    between atoms: C_19  and  O_22
REMARK    8  A    between atoms: O_22  and  C_23
REMARK                            x       y       z     vdW  Elec       q    Type
REMARK                         _______ _______ _______ _____ _____    ______ ____
ROOT
ATOM      1  C   LIG A   1      -7.151  -1.063 128.969  0.00  0.00    +0.053 A 
ATOM      2  C   LIG A   1      -7.902  -1.431 127.831  0.00  0.00    +0.007 A 
ATOM      3  C   LIG A   1      -8.295  -2.795 127.742  0.00  0.00    -0.011 A 
ATOM      4  C   LIG A   1      -8.974  -3.237 126.609  0.00  0.00    +0.058 A 
ATOM      5  C   LIG A   1      -9.334  -2.388 125.562  0.00  0.00    +0.162 A 
ATOM      6  C   LIG A   1      -9.046  -1.012 125.665  0.00  0.00    +0.162 A 
ATOM      7  C   LIG A   1      -8.313  -0.583 126.784  0.00  0.00    +0.059 A 
ATOM      8  C   LIG A   1      -7.985  -3.669 128.774  0.00  0.00    +0.028 A 
ATOM      9  C   LIG A   1      -7.277  -3.208 129.853  0.00  0.00    +0.112 A 
ATOM     10  N   LIG A   1      -6.841  -1.930 129.974  0.00  0.00    -0.259 NA
ENDROOT
BRANCH   6  11
ATOM     11  O   LIG A   1      -9.421  -0.144 124.671  0.00  0.00    -0.491 OA
ATOM     12  C   LIG A   1      -8.334   0.458 123.943  0.00  0.00    +0.277 C 
ENDBRANCH   6  11
BRANCH   5  13
ATOM     13  O   LIG A   1      -9.826  -3.077 124.489  0.00  0.00    -0.491 OA
ATOM     14  C   LIG A   1      -9.035  -3.153 123.318  0.00  0.00    +0.277 C 
ENDBRANCH   5  13
BRANCH   1  15
ATOM     15  C   LIG A   1      -6.662   0.363 129.184  0.00  0.00    +0.091 C 
BRANCH  15  16
ATOM     16  C   LIG A   1      -7.687   1.340 129.717  0.00  0.00    -0.041 A 
ATOM     17  C   LIG A   1      -8.479   1.050 130.839  0.00  0.00    +0.007 A 
ATOM     18  C   LIG A   1      -9.385   1.993 131.348  0.00  0.00    +0.046 A 
ATOM     19  C   LIG A   1      -9.518   3.237 130.732  0.00  0.00    +0.120 A 
ATOM     20  C   LIG A   1      -8.738   3.520 129.610  0.00  0.00    +0.046 A 
ATOM     21  C   LIG A   1      -7.835   2.589 129.108  0.00  0.00    +0.007 A 
BRANCH  19  22
ATOM     22  O   LIG A   1     -10.417   4.119 131.280  0.00  0.00    -0.495 OA
ATOM     23  C   LIG A   1     -11.168   4.863 130.319  0.00  0.00    +0.277 C 
ENDBRANCH  19  22
ENDBRANCH  15  16
ENDBRANCH   1  15
TORSDOF 5
ENDMDL
MODEL 8
REMARK VINA RESULT:      -6.3      3.938      5.670
REMARK  Name = NuBBE_2425
REMARK  8 active torsions:
REMARK  status: ('A' for Active; 'I' for Inactive)
REMARK    1  A    between atoms: C_1  and  C_2
REMARK    2  A    between atoms: C_1  and  C_16
REMARK    3  A    between atoms: C_6  and  O_11
REMARK    4  A    between atoms: C_7  and  O_9
REMARK    5  A    between atoms: O_9  and  C_10
REMARK    6  A    between atoms: O_11  and  C_12
REMARK    7  A    between atoms: C_19  and  O_22
REMARK    8  A    between atoms: O_22  and  C_23
REMARK                            x       y       z     vdW  Elec       q    Type
REMARK                         _______ _______ _______ _____ _____    ______ ____
ROOT
ATOM      1  C   LIG A   1      -7.258  -2.258 125.779  0.00  0.00    +0.053 A 
ATOM      2  C   LIG A   1      -6.829  -2.582 127.086  0.00  0.00    +0.007 A 
ATOM      3  C   LIG A   1      -7.783  -3.213 127.930  0.00  0.00    -0.011 A 
ATOM      4  C   LIG A   1      -7.446  -3.492 129.253  0.00  0.00    +0.058 A 
ATOM      5  C   LIG A   1      -6.185  -3.222 129.785  0.00  0.00    +0.162 A 
ATOM      6  C   LIG A   1      -5.186  -2.688 128.947  0.00  0.00    +0.162 A 
ATOM      7  C   LIG A   1      -5.550  -2.358 127.630  0.00  0.00    +0.059 A 
ATOM      8  C   LIG A   1      -9.040  -3.528 127.433  0.00  0.00    +0.028 A 
ATOM      9  C   LIG A   1      -9.352  -3.198 126.140  0.00  0.00    +0.112 A 
ATOM     10  N   LIG A   1      -8.498  -2.561 125.302  0.00  0.00    -0.259 NA
ENDROOT
BRANCH   6  11
ATOM     11  O   LIG A   1      -3.925  -2.447 129.429  0.00  0.00    -0.491 OA
ATOM     12  C   LIG A   1      -2.980  -3.517 129.237  0.00  0.00    +0.277 C 
ENDBRANCH   6  11
BRANCH   5  13
ATOM     13  O   LIG A   1      -6.148  -3.412 131.138  0.00  0.00    -0.491 OA
ATOM     14  C   LIG A   1      -5.592  -4.616 131.634  0.00  0.00    +0.277 C 
ENDBRANCH   5  13
BRANCH   1  15
ATOM     15  C   LIG A   1      -6.338  -1.575 124.776  0.00  0.00    +0.091 C 
BRANCH  15  16
ATOM     16  C   LIG A   1      -6.423  -0.065 124.725  0.00  0.00    -0.041 A 
ATOM     17  C   LIG A   1      -7.219   0.604 123.781  0.00  0.00    +0.007 A 
ATOM     18  C   LIG A   1      -7.324   2.003 123.788  0.00  0.00    +0.046 A 
ATOM     19  C   LIG A   1      -6.625   2.753 124.734  0.00  0.00    +0.120 A 
ATOM     20  C   LIG A   1      -5.826   2.087 125.664  0.00  0.00    +0.046 A 
ATOM     21  C   LIG A   1      -5.725   0.700 125.664  0.00  0.00    +0.007 A 
BRANCH  19  22
ATOM     22  O   LIG A   1      -6.775   4.118 124.692  0.00  0.00    -0.495 OA
ATOM     23  C   LIG A   1      -7.848   4.614 125.495  0.00  0.00    +0.277 C 
ENDBRANCH  19  22
ENDBRANCH  15  16
ENDBRANCH   1  15
TORSDOF 5
ENDMDL
MODEL 9
REMARK VINA RESULT:      -6.3      3.510      7.919
REMARK  Name = NuBBE_2425
REMARK  8 active torsions:
REMARK  status: ('A' for Active; 'I' for Inactive)
REMARK    1  A    between atoms: C_1  and  C_2
REMARK    2  A    between atoms: C_1  and  C_16
REMARK    3  A    between atoms: C_6  and  O_11
REMARK    4  A    between atoms: C_7  and  O_9
REMARK    5  A    between atoms: O_9  and  C_10
REMARK    6  A    between atoms: O_11  and  C_12
REMARK    7  A    between atoms: C_19  and  O_22
REMARK    8  A    between atoms: O_22  and  C_23
REMARK                            x       y       z     vdW  Elec       q    Type
REMARK                         _______ _______ _______ _____ _____    ______ ____
ROOT
ATOM      1  C   LIG A   1      -7.084  -1.824 124.488  0.00  0.00    +0.053 A 
ATOM      2  C   LIG A   1      -7.524  -0.511 124.206  0.00  0.00    +0.007 A 
ATOM      3  C   LIG A   1      -8.642  -0.388 123.337  0.00  0.00    -0.011 A 
ATOM      4  C   LIG A   1      -9.078   0.881 122.962  0.00  0.00    +0.058 A 
ATOM      5  C   LIG A   1      -8.494   2.054 123.439  0.00  0.00    +0.162 A 
ATOM      6  C   LIG A   1      -7.448   1.967 124.379  0.00  0.00    +0.162 A 
ATOM      7  C   LIG A   1      -6.976   0.685 124.710  0.00  0.00    +0.059 A 
ATOM      8  C   LIG A   1      -9.274  -1.528 122.862  0.00  0.00    +0.028 A 
ATOM      9  C   LIG A   1      -8.789  -2.760 123.217  0.00  0.00    +0.112 A 
ATOM     10  N   LIG A   1      -7.703  -2.939 124.009  0.00  0.00    -0.259 NA
ENDROOT
BRANCH   6  11
ATOM     11  O   LIG A   1      -6.877   3.101 124.897  0.00  0.00    -0.491 OA
ATOM     12  C   LIG A   1      -5.791   3.649 124.124  0.00  0.00    +0.277 C 
ENDBRANCH   6  11
BRANCH   5  13
ATOM     13  O   LIG A   1      -8.969   3.163 122.796  0.00  0.00    -0.491 OA
ATOM     14  C   LIG A   1      -8.539   3.408 121.470  0.00  0.00    +0.277 C 
ENDBRANCH   5  13
BRANCH   1  15
ATOM     15  C   LIG A   1      -5.894  -2.096 125.398  0.00  0.00    +0.091 C 
BRANCH  15  16
ATOM     16  C   LIG A   1      -6.206  -2.226 126.873  0.00  0.00    -0.041 A 
ATOM     17  C   LIG A   1      -5.218  -2.078 127.859  0.00  0.00    +0.007 A 
ATOM     18  C   LIG A   1      -5.542  -2.148 129.222  0.00  0.00    +0.046 A 
ATOM     19  C   LIG A   1      -6.860  -2.377 129.617  0.00  0.00    +0.120 A 
ATOM     20  C   LIG A   1      -7.840  -2.534 128.635  0.00  0.00    +0.046 A 
ATOM     21  C   LIG A   1      -7.522  -2.458 127.283  0.00  0.00    +0.007 A 
BRANCH  19  22
ATOM     22  O   LIG A   1      -7.114  -2.428 130.966  0.00  0.00    -0.495 OA
ATOM     23  C   LIG A   1      -6.420  -3.472 131.653  0.00  0.00    +0.277 C 
ENDBRANCH  19  22
ENDBRANCH  15  16
ENDBRANCH   1  15
TORSDOF 5
ENDMDL
