MODEL 1
REMARK VINA RESULT:      -8.9      0.000      0.000
REMARK  Name = NuBBE_386
REMARK  11 active torsions:
REMARK  status: ('A' for Active; 'I' for Inactive)
REMARK    1  A    between atoms: C_1  and  C_2
REMARK    2  A    between atoms: C_3  and  C_41
REMARK    3  A    between atoms: C_8  and  C_9
REMARK    4  A    between atoms: C_8  and  C_40
REMARK    5  A    between atoms: C_10  and  O_39
REMARK    6  A    between atoms: C_12  and  O_38
REMARK    7  A    between atoms: C_15  and  C_37
REMARK    8  A    between atoms: C_23  and  C_24
REMARK    9  A    between atoms: C_24  and  O_25
REMARK   10  A    between atoms: C_31  and  C_36
REMARK   11  A    between atoms: C_33  and  C_35
REMARK                            x       y       z     vdW  Elec       q    Type
REMARK                         _______ _______ _______ _____ _____    ______ ____
ROOT
ATOM      1  C   LIG A   1      -4.344   1.915 130.764  0.00  0.00    +0.016 C 
ATOM      2  C   LIG A   1      -5.095   2.129 129.406  0.00  0.00    -0.005 C 
ATOM      3  C   LIG A   1      -6.306   1.039 129.298  0.00  0.00    -0.019 C 
ATOM      4  C   LIG A   1      -5.805  -0.374 128.882  0.00  0.00    +0.008 C 
ATOM      5  C   LIG A   1      -5.783  -0.679 127.384  0.00  0.00    +0.005 C 
ATOM      6  C   LIG A   1      -7.161  -0.428 126.750  0.00  0.00    +0.003 C 
ATOM      7  C   LIG A   1      -7.374  -1.108 125.344  0.00  0.00    -0.003 C 
ATOM      8  C   LIG A   1      -6.403  -0.609 124.256  0.00  0.00    +0.014 C 
ATOM      9  C   LIG A   1      -8.841  -0.870 124.884  0.00  0.00    +0.149 C 
ATOM     10  C   LIG A   1      -9.257   0.607 124.942  0.00  0.00    +0.144 C 
ATOM     11  C   LIG A   1      -9.026   1.224 126.328  0.00  0.00    +0.041 C 
ATOM     12  C   LIG A   1      -7.559   1.091 126.860  0.00  0.00    -0.023 C 
ATOM     13  C   LIG A   1      -7.537   1.480 128.406  0.00  0.00    +0.006 C 
ATOM     14  C   LIG A   1      -7.975   2.922 128.736  0.00  0.00    +0.031 C 
ATOM     15  C   LIG A   1      -6.878   3.887 129.033  0.00  0.00    -0.026 C 
ATOM     16  C   LIG A   1      -5.600   3.584 129.323  0.00  0.00    -0.063 C 
ATOM     17  C   LIG A   1      -4.512   4.671 129.456  0.00  0.00    +0.035 C 
ATOM     18  C   LIG A   1      -3.557   4.544 128.233  0.00  0.00    +0.074 C 
ATOM     19  C   LIG A   1      -2.955   3.106 128.240  0.00  0.00    +0.019 C 
ATOM     20  C   LIG A   1      -4.017   1.987 128.293  0.00  0.00    +0.012 C 
ATOM     21  C   LIG A   1      -2.395   5.552 128.337  0.00  0.00    +0.019 C 
ATOM     22  C   LIG A   1      -2.867   6.981 128.572  0.00  0.00    +0.004 C 
ATOM     23  C   LIG A   1      -3.726   7.098 129.835  0.00  0.00    -0.011 C 
ATOM     24  C   LIG A   1      -4.949   6.136 129.801  0.00  0.00    -0.003 C 
ATOM     25  C   LIG A   1      -5.676   6.175 131.162  0.00  0.00    +0.008 C 
ATOM     26  C   LIG A   1      -4.139   8.563 130.019  0.00  0.00    +0.008 C 
ATOM     27  C   LIG A   1      -6.681   2.037 126.015  0.00  0.00    +0.012 C 
ATOM     28  C   LIG A   1      -7.138  -2.639 125.458  0.00  0.00    +0.014 C 
ATOM     29  C   LIG A   1      -6.922   0.839 130.738  0.00  0.00    +0.012 C 
ENDROOT
BRANCH  18  30
ATOM     30  C   LIG A   1      -4.218   4.754 126.864  0.00  0.00    +0.311 C 
ATOM     31  O   LIG A   1      -5.191   5.462 126.639  0.00  0.00    -0.250 OA
BRANCH  30  32
ATOM     32  O   LIG A   1      -3.715   4.015 125.862  0.00  0.00    -0.480 OA
ATOM     33  H   LIG A   1      -4.495   3.818 125.304  0.00  0.00    +0.295 HD
ENDBRANCH  30  32
ENDBRANCH  18  30
BRANCH  10  34
ATOM     34  O   LIG A   1     -10.656   0.699 124.645  0.00  0.00    -0.389 OA
ATOM     35  H   LIG A   1     -10.863   1.652 124.735  0.00  0.00    +0.210 HD
ENDBRANCH  10  34
BRANCH   9  36
ATOM     36  O   LIG A   1      -9.772  -1.590 125.717  0.00  0.00    -0.389 OA
ATOM     37  H   LIG A   1      -9.261  -2.250 126.219  0.00  0.00    +0.210 HD
ENDBRANCH   9  36
TORSDOF 4
ENDMDL
MODEL 2
REMARK VINA RESULT:      -8.5      3.777      7.357
REMARK  Name = NuBBE_386
REMARK  11 active torsions:
REMARK  status: ('A' for Active; 'I' for Inactive)
REMARK    1  A    between atoms: C_1  and  C_2
REMARK    2  A    between atoms: C_3  and  C_41
REMARK    3  A    between atoms: C_8  and  C_9
REMARK    4  A    between atoms: C_8  and  C_40
REMARK    5  A    between atoms: C_10  and  O_39
REMARK    6  A    between atoms: C_12  and  O_38
REMARK    7  A    between atoms: C_15  and  C_37
REMARK    8  A    between atoms: C_23  and  C_24
REMARK    9  A    between atoms: C_24  and  O_25
REMARK   10  A    between atoms: C_31  and  C_36
REMARK   11  A    between atoms: C_33  and  C_35
REMARK                            x       y       z     vdW  Elec       q    Type
REMARK                         _______ _______ _______ _____ _____    ______ ____
ROOT
ATOM      1  C   LIG A   1      -4.873   0.441 126.120  0.00  0.00    +0.016 C 
ATOM      2  C   LIG A   1      -5.808  -0.461 126.995  0.00  0.00    -0.005 C 
ATOM      3  C   LIG A   1      -5.419  -0.252 128.566  0.00  0.00    -0.019 C 
ATOM      4  C   LIG A   1      -4.145  -1.044 128.979  0.00  0.00    +0.008 C 
ATOM      5  C   LIG A   1      -4.364  -2.458 129.519  0.00  0.00    +0.005 C 
ATOM      6  C   LIG A   1      -5.354  -2.451 130.695  0.00  0.00    +0.003 C 
ATOM      7  C   LIG A   1      -5.322  -3.748 131.592  0.00  0.00    -0.003 C 
ATOM      8  C   LIG A   1      -5.696  -5.039 130.837  0.00  0.00    +0.014 C 
ATOM      9  C   LIG A   1      -6.283  -3.551 132.800  0.00  0.00    +0.149 C 
ATOM     10  C   LIG A   1      -7.691  -3.106 132.381  0.00  0.00    +0.144 C 
ATOM     11  C   LIG A   1      -7.670  -1.846 131.507  0.00  0.00    +0.041 C 
ATOM     12  C   LIG A   1      -6.775  -1.961 130.227  0.00  0.00    -0.023 C 
ATOM     13  C   LIG A   1      -6.594  -0.508 129.595  0.00  0.00    +0.006 C 
ATOM     14  C   LIG A   1      -7.894   0.186 129.139  0.00  0.00    +0.031 C 
ATOM     15  C   LIG A   1      -8.163   0.173 127.672  0.00  0.00    -0.026 C 
ATOM     16  C   LIG A   1      -7.281  -0.113 126.698  0.00  0.00    -0.063 C 
ATOM     17  C   LIG A   1      -7.710  -0.253 125.222  0.00  0.00    +0.035 C 
ATOM     18  C   LIG A   1      -7.603  -1.756 124.832  0.00  0.00    +0.074 C 
ATOM     19  C   LIG A   1      -6.128  -2.209 125.062  0.00  0.00    +0.019 C 
ATOM     20  C   LIG A   1      -5.601  -1.916 126.482  0.00  0.00    +0.012 C 
ATOM     21  C   LIG A   1      -7.943  -1.964 123.343  0.00  0.00    +0.019 C 
ATOM     22  C   LIG A   1      -9.277  -1.344 122.946  0.00  0.00    +0.004 C 
ATOM     23  C   LIG A   1      -9.323   0.157 123.251  0.00  0.00    -0.011 C 
ATOM     24  C   LIG A   1      -9.025   0.459 124.749  0.00  0.00    -0.003 C 
ATOM     25  C   LIG A   1      -8.916   1.984 124.958  0.00  0.00    +0.008 C 
ATOM     26  C   LIG A   1     -10.680   0.712 122.803  0.00  0.00    +0.008 C 
ATOM     27  C   LIG A   1      -7.489  -2.926 129.258  0.00  0.00    +0.012 C 
ATOM     28  C   LIG A   1      -3.886  -3.973 132.139  0.00  0.00    +0.014 C 
ATOM     29  C   LIG A   1      -5.037   1.266 128.784  0.00  0.00    +0.012 C 
ENDROOT
BRANCH  18  30
ATOM     30  C   LIG A   1      -8.501  -2.705 125.638  0.00  0.00    +0.311 C 
ATOM     31  O   LIG A   1      -8.201  -3.831 126.012  0.00  0.00    -0.250 OA
BRANCH  30  32
ATOM     32  O   LIG A   1      -9.750  -2.265 125.861  0.00  0.00    -0.480 OA
ATOM     33  H   LIG A   1      -9.736  -1.991 126.801  0.00  0.00    +0.295 HD
ENDBRANCH  30  32
ENDBRANCH  18  30
BRANCH  10  34
ATOM     34  O   LIG A   1      -8.447  -2.811 133.563  0.00  0.00    -0.389 OA
ATOM     35  H   LIG A   1      -8.346  -3.608 134.123  0.00  0.00    +0.210 HD
ENDBRANCH  10  34
BRANCH   9  36
ATOM     36  O   LIG A   1      -5.786  -2.541 133.702  0.00  0.00    -0.389 OA
ATOM     37  H   LIG A   1      -6.553  -2.176 134.178  0.00  0.00    +0.210 HD
ENDBRANCH   9  36
TORSDOF 4
ENDMDL
MODEL 3
REMARK VINA RESULT:      -8.5      2.945      7.095
REMARK  Name = NuBBE_386
REMARK  11 active torsions:
REMARK  status: ('A' for Active; 'I' for Inactive)
REMARK    1  A    between atoms: C_1  and  C_2
REMARK    2  A    between atoms: C_3  and  C_41
REMARK    3  A    between atoms: C_8  and  C_9
REMARK    4  A    between atoms: C_8  and  C_40
REMARK    5  A    between atoms: C_10  and  O_39
REMARK    6  A    between atoms: C_12  and  O_38
REMARK    7  A    between atoms: C_15  and  C_37
REMARK    8  A    between atoms: C_23  and  C_24
REMARK    9  A    between atoms: C_24  and  O_25
REMARK   10  A    between atoms: C_31  and  C_36
REMARK   11  A    between atoms: C_33  and  C_35
REMARK                            x       y       z     vdW  Elec       q    Type
REMARK                         _______ _______ _______ _____ _____    ______ ____
ROOT
ATOM      1  C   LIG A   1      -8.627  -0.154 131.316  0.00  0.00    +0.016 C 
ATOM      2  C   LIG A   1      -7.356   0.134 130.447  0.00  0.00    -0.005 C 
ATOM      3  C   LIG A   1      -7.161   1.750 130.322  0.00  0.00    -0.019 C 
ATOM      4  C   LIG A   1      -8.114   2.390 129.272  0.00  0.00    +0.008 C 
ATOM      5  C   LIG A   1      -7.580   2.505 127.844  0.00  0.00    +0.005 C 
ATOM      6  C   LIG A   1      -6.234   3.246 127.817  0.00  0.00    +0.003 C 
ATOM      7  C   LIG A   1      -5.813   3.798 126.401  0.00  0.00    -0.003 C 
ATOM      8  C   LIG A   1      -5.621   2.701 125.335  0.00  0.00    +0.014 C 
ATOM      9  C   LIG A   1      -4.500   4.620 126.548  0.00  0.00    +0.149 C 
ATOM     10  C   LIG A   1      -3.392   3.853 127.284  0.00  0.00    +0.144 C 
ATOM     11  C   LIG A   1      -3.850   3.333 128.652  0.00  0.00    +0.041 C 
ATOM     12  C   LIG A   1      -5.136   2.440 128.607  0.00  0.00    -0.023 C 
ATOM     13  C   LIG A   1      -5.672   2.237 130.095  0.00  0.00    +0.006 C 
ATOM     14  C   LIG A   1      -4.701   1.528 131.062  0.00  0.00    +0.031 C 
ATOM     15  C   LIG A   1      -4.988   0.091 131.339  0.00  0.00    -0.026 C 
ATOM     16  C   LIG A   1      -6.134  -0.562 131.079  0.00  0.00    -0.063 C 
ATOM     17  C   LIG A   1      -6.263  -2.090 131.262  0.00  0.00    +0.035 C 
ATOM     18  C   LIG A   1      -6.363  -2.735 129.849  0.00  0.00    +0.074 C 
ATOM     19  C   LIG A   1      -7.602  -2.122 129.126  0.00  0.00    +0.019 C 
ATOM     20  C   LIG A   1      -7.598  -0.579 129.085  0.00  0.00    +0.012 C 
ATOM     21  C   LIG A   1      -6.574  -4.258 129.953  0.00  0.00    +0.019 C 
ATOM     22  C   LIG A   1      -5.542  -4.941 130.843  0.00  0.00    +0.004 C 
ATOM     23  C   LIG A   1      -5.530  -4.353 132.258  0.00  0.00    -0.011 C 
ATOM     24  C   LIG A   1      -5.287  -2.816 132.250  0.00  0.00    -0.003 C 
ATOM     25  C   LIG A   1      -5.454  -2.258 133.679  0.00  0.00    +0.008 C 
ATOM     26  C   LIG A   1      -4.490  -5.106 133.097  0.00  0.00    +0.008 C 
ATOM     27  C   LIG A   1      -4.738   1.102 127.950  0.00  0.00    +0.012 C 
ATOM     28  C   LIG A   1      -6.921   4.738 125.852  0.00  0.00    +0.014 C 
ATOM     29  C   LIG A   1      -7.578   2.407 131.697  0.00  0.00    +0.012 C 
ENDROOT
BRANCH  18  30
ATOM     30  C   LIG A   1      -5.148  -2.507 128.940  0.00  0.00    +0.311 C 
ATOM     31  O   LIG A   1      -3.999  -2.316 129.314  0.00  0.00    -0.250 OA
BRANCH  30  32
ATOM     32  O   LIG A   1      -5.417  -2.428 127.626  0.00  0.00    -0.480 OA
ATOM     33  H   LIG A   1      -6.226  -2.970 127.522  0.00  0.00    +0.295 HD
ENDBRANCH  30  32
ENDBRANCH  18  30
BRANCH  10  34
ATOM     34  O   LIG A   1      -2.287   4.742 127.497  0.00  0.00    -0.389 OA
ATOM     35  H   LIG A   1      -1.564   4.163 127.814  0.00  0.00    +0.210 HD
ENDBRANCH  10  34
BRANCH   9  36
ATOM     36  O   LIG A   1      -4.725   5.832 127.297  0.00  0.00    -0.389 OA
ATOM     37  H   LIG A   1      -3.965   5.949 127.894  0.00  0.00    +0.210 HD
ENDBRANCH   9  36
TORSDOF 4
ENDMDL
MODEL 4
REMARK VINA RESULT:      -8.3      2.667      7.543
REMARK  Name = NuBBE_386
REMARK  11 active torsions:
REMARK  status: ('A' for Active; 'I' for Inactive)
REMARK    1  A    between atoms: C_1  and  C_2
REMARK    2  A    between atoms: C_3  and  C_41
REMARK    3  A    between atoms: C_8  and  C_9
REMARK    4  A    between atoms: C_8  and  C_40
REMARK    5  A    between atoms: C_10  and  O_39
REMARK    6  A    between atoms: C_12  and  O_38
REMARK    7  A    between atoms: C_15  and  C_37
REMARK    8  A    between atoms: C_23  and  C_24
REMARK    9  A    between atoms: C_24  and  O_25
REMARK   10  A    between atoms: C_31  and  C_36
REMARK   11  A    between atoms: C_33  and  C_35
REMARK                            x       y       z     vdW  Elec       q    Type
REMARK                         _______ _______ _______ _____ _____    ______ ____
ROOT
ATOM      1  C   LIG A   1      -4.865   0.793 126.696  0.00  0.00    +0.016 C 
ATOM      2  C   LIG A   1      -5.691   1.348 127.906  0.00  0.00    -0.005 C 
ATOM      3  C   LIG A   1      -5.878   2.959 127.718  0.00  0.00    -0.019 C 
ATOM      4  C   LIG A   1      -4.607   3.761 128.123  0.00  0.00    +0.008 C 
ATOM      5  C   LIG A   1      -4.528   4.230 129.576  0.00  0.00    +0.005 C 
ATOM      6  C   LIG A   1      -5.776   5.038 129.963  0.00  0.00    +0.003 C 
ATOM      7  C   LIG A   1      -5.614   5.922 131.259  0.00  0.00    -0.003 C 
ATOM      8  C   LIG A   1      -5.323   5.110 132.537  0.00  0.00    +0.014 C 
ATOM      9  C   LIG A   1      -6.905   6.768 131.459  0.00  0.00    +0.149 C 
ATOM     10  C   LIG A   1      -8.187   5.924 131.425  0.00  0.00    +0.144 C 
ATOM     11  C   LIG A   1      -8.296   5.079 130.150  0.00  0.00    +0.041 C 
ATOM     12  C   LIG A   1      -7.069   4.143 129.886  0.00  0.00    -0.023 C 
ATOM     13  C   LIG A   1      -7.167   3.575 128.399  0.00  0.00    +0.006 C 
ATOM     14  C   LIG A   1      -8.418   2.725 128.092  0.00  0.00    +0.031 C 
ATOM     15  C   LIG A   1      -8.215   1.248 128.066  0.00  0.00    -0.026 C 
ATOM     16  C   LIG A   1      -7.038   0.602 127.993  0.00  0.00    -0.063 C 
ATOM     17  C   LIG A   1      -6.938  -0.932 128.134  0.00  0.00    +0.035 C 
ATOM     18  C   LIG A   1      -6.256  -1.244 129.499  0.00  0.00    +0.074 C 
ATOM     19  C   LIG A   1      -4.855  -0.559 129.505  0.00  0.00    +0.019 C 
ATOM     20  C   LIG A   1      -4.898   0.949 129.184  0.00  0.00    +0.012 C 
ATOM     21  C   LIG A   1      -6.051  -2.761 129.676  0.00  0.00    +0.019 C 
ATOM     22  C   LIG A   1      -7.327  -3.564 129.456  0.00  0.00    +0.004 C 
ATOM     23  C   LIG A   1      -7.926  -3.313 128.068  0.00  0.00    -0.011 C 
ATOM     24  C   LIG A   1      -8.201  -1.802 127.814  0.00  0.00    -0.003 C 
ATOM     25  C   LIG A   1      -8.641  -1.595 126.349  0.00  0.00    +0.008 C 
ATOM     26  C   LIG A   1      -9.188  -4.171 127.911  0.00  0.00    +0.008 C 
ATOM     27  C   LIG A   1      -7.121   3.016 130.938  0.00  0.00    +0.012 C 
ATOM     28  C   LIG A   1      -4.414   6.893 131.087  0.00  0.00    +0.014 C 
ATOM     29  C   LIG A   1      -6.070   3.259 126.180  0.00  0.00    +0.012 C 
ENDROOT
BRANCH  18  30
ATOM     30  C   LIG A   1      -7.013  -0.742 130.736  0.00  0.00    +0.311 C 
ATOM     31  O   LIG A   1      -8.218  -0.541 130.806  0.00  0.00    -0.250 OA
BRANCH  30  32
ATOM     32  O   LIG A   1      -6.246  -0.420 131.790  0.00  0.00    -0.480 OA
ATOM     33  H   LIG A   1      -5.557   0.162 131.407  0.00  0.00    +0.295 HD
ENDBRANCH  30  32
ENDBRANCH  18  30
BRANCH  10  34
ATOM     34  O   LIG A   1      -9.316   6.807 131.469  0.00  0.00    -0.389 OA
ATOM     35  H   LIG A   1     -10.075   6.246 131.210  0.00  0.00    +0.210 HD
ENDBRANCH  10  34
BRANCH   9  36
ATOM     36  O   LIG A   1      -7.042   7.762 130.424  0.00  0.00    -0.389 OA
ATOM     37  H   LIG A   1      -7.475   8.538 130.823  0.00  0.00    +0.210 HD
ENDBRANCH   9  36
TORSDOF 4
ENDMDL
MODEL 5
REMARK VINA RESULT:      -8.2      2.727      4.737
REMARK  Name = NuBBE_386
REMARK  11 active torsions:
REMARK  status: ('A' for Active; 'I' for Inactive)
REMARK    1  A    between atoms: C_1  and  C_2
REMARK    2  A    between atoms: C_3  and  C_41
REMARK    3  A    between atoms: C_8  and  C_9
REMARK    4  A    between atoms: C_8  and  C_40
REMARK    5  A    between atoms: C_10  and  O_39
REMARK    6  A    between atoms: C_12  and  O_38
REMARK    7  A    between atoms: C_15  and  C_37
REMARK    8  A    between atoms: C_23  and  C_24
REMARK    9  A    between atoms: C_24  and  O_25
REMARK   10  A    between atoms: C_31  and  C_36
REMARK   11  A    between atoms: C_33  and  C_35
REMARK                            x       y       z     vdW  Elec       q    Type
REMARK                         _______ _______ _______ _____ _____    ______ ____
ROOT
ATOM      1  C   LIG A   1      -8.102   3.040 128.575  0.00  0.00    +0.016 C 
ATOM      2  C   LIG A   1      -7.356   1.716 128.195  0.00  0.00    -0.005 C 
ATOM      3  C   LIG A   1      -7.460   1.500 126.580  0.00  0.00    -0.019 C 
ATOM      4  C   LIG A   1      -8.840   0.934 126.139  0.00  0.00    +0.008 C 
ATOM      5  C   LIG A   1      -8.963  -0.588 126.061  0.00  0.00    +0.005 C 
ATOM      6  C   LIG A   1      -7.867  -1.184 125.164  0.00  0.00    +0.003 C 
ATOM      7  C   LIG A   1      -8.148  -2.654 124.666  0.00  0.00    -0.003 C 
ATOM      8  C   LIG A   1      -8.258  -3.688 125.804  0.00  0.00    +0.014 C 
ATOM      9  C   LIG A   1      -7.022  -3.078 123.681  0.00  0.00    +0.149 C 
ATOM     10  C   LIG A   1      -5.612  -2.862 124.250  0.00  0.00    +0.144 C 
ATOM     11  C   LIG A   1      -5.389  -1.420 124.724  0.00  0.00    +0.041 C 
ATOM     12  C   LIG A   1      -6.439  -0.913 125.770  0.00  0.00    -0.023 C 
ATOM     13  C   LIG A   1      -6.282   0.666 125.930  0.00  0.00    +0.006 C 
ATOM     14  C   LIG A   1      -4.909   1.149 126.444  0.00  0.00    +0.031 C 
ATOM     15  C   LIG A   1      -4.850   1.540 127.882  0.00  0.00    -0.026 C 
ATOM     16  C   LIG A   1      -5.896   1.791 128.689  0.00  0.00    -0.063 C 
ATOM     17  C   LIG A   1      -5.721   2.032 130.203  0.00  0.00    +0.035 C 
ATOM     18  C   LIG A   1      -6.301   0.797 130.955  0.00  0.00    +0.074 C 
ATOM     19  C   LIG A   1      -7.800   0.649 130.552  0.00  0.00    +0.019 C 
ATOM     20  C   LIG A   1      -8.032   0.589 129.027  0.00  0.00    +0.012 C 
ATOM     21  C   LIG A   1      -6.232   1.001 132.481  0.00  0.00    +0.019 C 
ATOM     22  C   LIG A   1      -4.840   1.388 132.967  0.00  0.00    +0.004 C 
ATOM     23  C   LIG A   1      -4.331   2.661 132.282  0.00  0.00    -0.011 C 
ATOM     24  C   LIG A   1      -4.333   2.532 130.731  0.00  0.00    -0.003 C 
ATOM     25  C   LIG A   1      -3.976   3.893 130.098  0.00  0.00    +0.008 C 
ATOM     26  C   LIG A   1      -2.943   3.000 132.839  0.00  0.00    +0.008 C 
ATOM     27  C   LIG A   1      -6.162  -1.658 127.092  0.00  0.00    +0.012 C 
ATOM     28  C   LIG A   1      -9.505  -2.703 123.911  0.00  0.00    +0.014 C 
ATOM     29  C   LIG A   1      -7.363   2.914 125.883  0.00  0.00    +0.012 C 
ENDROOT
BRANCH  18  30
ATOM     30  C   LIG A   1      -5.612  -0.539 130.644  0.00  0.00    +0.311 C 
ATOM     31  O   LIG A   1      -4.468  -0.676 130.234  0.00  0.00    -0.250 OA
BRANCH  30  32
ATOM     32  O   LIG A   1      -6.389  -1.628 130.759  0.00  0.00    -0.480 OA
ATOM     33  H   LIG A   1      -7.203  -1.289 131.185  0.00  0.00    +0.295 HD
ENDBRANCH  30  32
ENDBRANCH  18  30
BRANCH  10  34
ATOM     34  O   LIG A   1      -4.656  -3.140 123.219  0.00  0.00    -0.389 OA
ATOM     35  H   LIG A   1      -5.022  -3.917 122.749  0.00  0.00    +0.210 HD
ENDBRANCH  10  34
BRANCH   9  36
ATOM     36  O   LIG A   1      -7.089  -2.321 122.455  0.00  0.00    -0.389 OA
ATOM     37  H   LIG A   1      -6.837  -1.404 122.667  0.00  0.00    +0.210 HD
ENDBRANCH   9  36
TORSDOF 4
ENDMDL
MODEL 6
REMARK VINA RESULT:      -8.2      4.316      6.155
REMARK  Name = NuBBE_386
REMARK  11 active torsions:
REMARK  status: ('A' for Active; 'I' for Inactive)
REMARK    1  A    between atoms: C_1  and  C_2
REMARK    2  A    between atoms: C_3  and  C_41
REMARK    3  A    between atoms: C_8  and  C_9
REMARK    4  A    between atoms: C_8  and  C_40
REMARK    5  A    between atoms: C_10  and  O_39
REMARK    6  A    between atoms: C_12  and  O_38
REMARK    7  A    between atoms: C_15  and  C_37
REMARK    8  A    between atoms: C_23  and  C_24
REMARK    9  A    between atoms: C_24  and  O_25
REMARK   10  A    between atoms: C_31  and  C_36
REMARK   11  A    between atoms: C_33  and  C_35
REMARK                            x       y       z     vdW  Elec       q    Type
REMARK                         _______ _______ _______ _____ _____    ______ ____
ROOT
ATOM      1  C   LIG A   1      -3.260   2.931 134.094  0.00  0.00    +0.016 C 
ATOM      2  C   LIG A   1      -4.152   3.997 133.373  0.00  0.00    -0.005 C 
ATOM      3  C   LIG A   1      -5.720   3.572 133.543  0.00  0.00    -0.019 C 
ATOM      4  C   LIG A   1      -6.144   2.444 132.559  0.00  0.00    +0.008 C 
ATOM      5  C   LIG A   1      -6.709   2.890 131.210  0.00  0.00    +0.005 C 
ATOM      6  C   LIG A   1      -7.886   3.860 131.399  0.00  0.00    +0.003 C 
ATOM      7  C   LIG A   1      -8.806   4.037 130.131  0.00  0.00    -0.003 C 
ATOM      8  C   LIG A   1      -8.075   4.622 128.906  0.00  0.00    +0.014 C 
ATOM      9  C   LIG A   1     -10.012   4.947 130.503  0.00  0.00    +0.149 C 
ATOM     10  C   LIG A   1      -9.588   6.265 131.166  0.00  0.00    +0.144 C 
ATOM     11  C   LIG A   1      -8.692   6.041 132.390  0.00  0.00    +0.041 C 
ATOM     12  C   LIG A   1      -7.412   5.183 132.108  0.00  0.00    -0.023 C 
ATOM     13  C   LIG A   1      -6.755   4.769 133.500  0.00  0.00    +0.006 C 
ATOM     14  C   LIG A   1      -6.289   5.940 134.391  0.00  0.00    +0.031 C 
ATOM     15  C   LIG A   1      -4.823   6.213 134.397  0.00  0.00    -0.026 C 
ATOM     16  C   LIG A   1      -3.852   5.395 133.954  0.00  0.00    -0.063 C 
ATOM     17  C   LIG A   1      -2.379   5.848 133.861  0.00  0.00    +0.035 C 
ATOM     18  C   LIG A   1      -2.016   5.991 132.354  0.00  0.00    +0.074 C 
ATOM     19  C   LIG A   1      -2.251   4.610 131.669  0.00  0.00    +0.019 C 
ATOM     20  C   LIG A   1      -3.665   4.035 131.896  0.00  0.00    +0.012 C 
ATOM     21  C   LIG A   1      -0.531   6.367 132.180  0.00  0.00    +0.019 C 
ATOM     22  C   LIG A   1      -0.126   7.583 133.003  0.00  0.00    +0.004 C 
ATOM     23  C   LIG A   1      -0.405   7.380 134.496  0.00  0.00    -0.011 C 
ATOM     24  C   LIG A   1      -1.896   7.030 134.770  0.00  0.00    -0.003 C 
ATOM     25  C   LIG A   1      -2.078   6.671 136.260  0.00  0.00    +0.008 C 
ATOM     26  C   LIG A   1       0.051   8.630 135.259  0.00  0.00    +0.008 C 
ATOM     27  C   LIG A   1      -6.462   6.050 131.257  0.00  0.00    +0.012 C 
ATOM     28  C   LIG A   1      -9.355   2.655 129.682  0.00  0.00    +0.014 C 
ATOM     29  C   LIG A   1      -5.910   2.945 134.980  0.00  0.00    +0.012 C 
ENDROOT
BRANCH  18  30
ATOM     30  C   LIG A   1      -2.840   7.028 131.579  0.00  0.00    +0.311 C 
ATOM     31  O   LIG A   1      -3.378   8.018 132.057  0.00  0.00    -0.250 OA
BRANCH  30  32
ATOM     32  O   LIG A   1      -3.044   6.750 130.282  0.00  0.00    -0.480 OA
ATOM     33  H   LIG A   1      -3.940   6.354 130.266  0.00  0.00    +0.295 HD
ENDBRANCH  30  32
ENDBRANCH  18  30
BRANCH  10  34
ATOM     34  O   LIG A   1     -10.766   6.957 131.601  0.00  0.00    -0.389 OA
ATOM     35  H   LIG A   1     -10.925   6.623 132.508  0.00  0.00    +0.210 HD
ENDBRANCH  10  34
BRANCH   9  36
ATOM     36  O   LIG A   1     -10.895   4.287 131.433  0.00  0.00    -0.389 OA
ATOM     37  H   LIG A   1     -10.981   4.866 132.211  0.00  0.00    +0.210 HD
ENDBRANCH   9  36
TORSDOF 4
ENDMDL
MODEL 7
REMARK VINA RESULT:      -8.1      3.711      7.711
REMARK  Name = NuBBE_386
REMARK  11 active torsions:
REMARK  status: ('A' for Active; 'I' for Inactive)
REMARK    1  A    between atoms: C_1  and  C_2
REMARK    2  A    between atoms: C_3  and  C_41
REMARK    3  A    between atoms: C_8  and  C_9
REMARK    4  A    between atoms: C_8  and  C_40
REMARK    5  A    between atoms: C_10  and  O_39
REMARK    6  A    between atoms: C_12  and  O_38
REMARK    7  A    between atoms: C_15  and  C_37
REMARK    8  A    between atoms: C_23  and  C_24
REMARK    9  A    between atoms: C_24  and  O_25
REMARK   10  A    between atoms: C_31  and  C_36
REMARK   11  A    between atoms: C_33  and  C_35
REMARK                            x       y       z     vdW  Elec       q    Type
REMARK                         _______ _______ _______ _____ _____    ______ ____
ROOT
ATOM      1  C   LIG A   1      -6.173   0.348 127.575  0.00  0.00    +0.016 C 
ATOM      2  C   LIG A   1      -6.366   0.769 129.071  0.00  0.00    -0.005 C 
ATOM      3  C   LIG A   1      -7.476   1.964 129.141  0.00  0.00    -0.019 C 
ATOM      4  C   LIG A   1      -6.889   3.351 128.750  0.00  0.00    +0.008 C 
ATOM      5  C   LIG A   1      -6.324   4.200 129.888  0.00  0.00    +0.005 C 
ATOM      6  C   LIG A   1      -7.365   4.392 131.002  0.00  0.00    +0.003 C 
ATOM      7  C   LIG A   1      -7.061   5.581 131.993  0.00  0.00    -0.003 C 
ATOM      8  C   LIG A   1      -5.746   5.415 132.780  0.00  0.00    +0.014 C 
ATOM      9  C   LIG A   1      -8.249   5.729 132.986  0.00  0.00    +0.149 C 
ATOM     10  C   LIG A   1      -8.623   4.409 133.676  0.00  0.00    +0.144 C 
ATOM     11  C   LIG A   1      -8.905   3.284 132.672  0.00  0.00    +0.041 C 
ATOM     12  C   LIG A   1      -7.741   3.012 131.661  0.00  0.00    -0.023 C 
ATOM     13  C   LIG A   1      -8.281   2.062 130.500  0.00  0.00    +0.006 C 
ATOM     14  C   LIG A   1      -8.777   0.673 130.954  0.00  0.00    +0.031 C 
ATOM     15  C   LIG A   1      -7.844  -0.465 130.713  0.00  0.00    -0.026 C 
ATOM     16  C   LIG A   1      -6.771  -0.465 129.903  0.00  0.00    -0.063 C 
ATOM     17  C   LIG A   1      -5.784  -1.651 129.854  0.00  0.00    +0.035 C 
ATOM     18  C   LIG A   1      -4.448  -1.189 130.508  0.00  0.00    +0.074 C 
ATOM     19  C   LIG A   1      -3.925   0.046 129.713  0.00  0.00    +0.019 C 
ATOM     20  C   LIG A   1      -4.957   1.186 129.584  0.00  0.00    +0.012 C 
ATOM     21  C   LIG A   1      -3.383  -2.301 130.425  0.00  0.00    +0.019 C 
ATOM     22  C   LIG A   1      -3.875  -3.637 130.966  0.00  0.00    +0.004 C 
ATOM     23  C   LIG A   1      -5.137  -4.117 130.240  0.00  0.00    -0.011 C 
ATOM     24  C   LIG A   1      -6.283  -3.067 130.303  0.00  0.00    -0.003 C 
ATOM     25  C   LIG A   1      -7.459  -3.529 129.417  0.00  0.00    +0.008 C 
ATOM     26  C   LIG A   1      -5.555  -5.474 130.819  0.00  0.00    +0.008 C 
ATOM     27  C   LIG A   1      -6.592   2.358 132.455  0.00  0.00    +0.012 C 
ATOM     28  C   LIG A   1      -6.919   6.907 131.197  0.00  0.00    +0.014 C 
ATOM     29  C   LIG A   1      -8.584   1.674 128.053  0.00  0.00    +0.012 C 
ENDROOT
BRANCH  18  30
ATOM     30  C   LIG A   1      -4.553  -0.772 131.981  0.00  0.00    +0.311 C 
ATOM     31  O   LIG A   1      -5.403  -1.152 132.775  0.00  0.00    -0.250 OA
BRANCH  30  32
ATOM     32  O   LIG A   1      -3.673   0.161 132.379  0.00  0.00    -0.480 OA
ATOM     33  H   LIG A   1      -3.748   0.859 131.696  0.00  0.00    +0.295 HD
ENDBRANCH  30  32
ENDBRANCH  18  30
BRANCH  10  34
ATOM     34  O   LIG A   1      -9.812   4.620 134.450  0.00  0.00    -0.389 OA
ATOM     35  H   LIG A   1     -10.545   4.462 133.819  0.00  0.00    +0.210 HD
ENDBRANCH  10  34
BRANCH   9  36
ATOM     36  O   LIG A   1      -9.438   6.188 132.311  0.00  0.00    -0.389 OA
ATOM     37  H   LIG A   1     -10.193   6.009 132.900  0.00  0.00    +0.210 HD
ENDBRANCH   9  36
TORSDOF 4
ENDMDL
MODEL 8
REMARK VINA RESULT:      -8.1      4.648      8.224
REMARK  Name = NuBBE_386
REMARK  11 active torsions:
REMARK  status: ('A' for Active; 'I' for Inactive)
REMARK    1  A    between atoms: C_1  and  C_2
REMARK    2  A    between atoms: C_3  and  C_41
REMARK    3  A    between atoms: C_8  and  C_9
REMARK    4  A    between atoms: C_8  and  C_40
REMARK    5  A    between atoms: C_10  and  O_39
REMARK    6  A    between atoms: C_12  and  O_38
REMARK    7  A    between atoms: C_15  and  C_37
REMARK    8  A    between atoms: C_23  and  C_24
REMARK    9  A    between atoms: C_24  and  O_25
REMARK   10  A    between atoms: C_31  and  C_36
REMARK   11  A    between atoms: C_33  and  C_35
REMARK                            x       y       z     vdW  Elec       q    Type
REMARK                         _______ _______ _______ _____ _____    ______ ____
ROOT
ATOM      1  C   LIG A   1      -8.133   4.441 128.250  0.00  0.00    +0.016 C 
ATOM      2  C   LIG A   1      -7.881   4.822 129.748  0.00  0.00    -0.005 C 
ATOM      3  C   LIG A   1      -6.276   4.771 130.040  0.00  0.00    -0.019 C 
ATOM      4  C   LIG A   1      -5.750   3.321 130.245  0.00  0.00    +0.008 C 
ATOM      5  C   LIG A   1      -5.737   2.794 131.680  0.00  0.00    +0.005 C 
ATOM      6  C   LIG A   1      -4.964   3.744 132.609  0.00  0.00    +0.003 C 
ATOM      7  C   LIG A   1      -4.516   3.107 133.980  0.00  0.00    -0.003 C 
ATOM      8  C   LIG A   1      -5.690   2.645 134.866  0.00  0.00    +0.014 C 
ATOM      9  C   LIG A   1      -3.650   4.139 134.758  0.00  0.00    +0.149 C 
ATOM     10  C   LIG A   1      -4.323   5.513 134.888  0.00  0.00    +0.144 C 
ATOM     11  C   LIG A   1      -4.743   6.088 133.529  0.00  0.00    +0.041 C 
ATOM     12  C   LIG A   1      -5.672   5.148 132.688  0.00  0.00    -0.023 C 
ATOM     13  C   LIG A   1      -5.768   5.718 131.203  0.00  0.00    +0.006 C 
ATOM     14  C   LIG A   1      -6.370   7.133 131.070  0.00  0.00    +0.031 C 
ATOM     15  C   LIG A   1      -7.787   7.200 130.610  0.00  0.00    -0.026 C 
ATOM     16  C   LIG A   1      -8.491   6.210 130.033  0.00  0.00    -0.063 C 
ATOM     17  C   LIG A   1     -10.001   6.343 129.744  0.00  0.00    +0.035 C 
ATOM     18  C   LIG A   1     -10.761   5.400 130.722  0.00  0.00    +0.074 C 
ATOM     19  C   LIG A   1     -10.243   3.948 130.492  0.00  0.00    +0.019 C 
ATOM     20  C   LIG A   1      -8.709   3.811 130.593  0.00  0.00    +0.012 C 
ATOM     21  C   LIG A   1     -12.276   5.421 130.440  0.00  0.00    +0.019 C 
ATOM     22  C   LIG A   1     -12.856   6.829 130.406  0.00  0.00    +0.004 C 
ATOM     23  C   LIG A   1     -12.155   7.710 129.367  0.00  0.00    -0.011 C 
ATOM     24  C   LIG A   1     -10.617   7.777 129.598  0.00  0.00    -0.003 C 
ATOM     25  C   LIG A   1      -9.951   8.533 128.429  0.00  0.00    +0.008 C 
ATOM     26  C   LIG A   1     -12.808   9.098 129.374  0.00  0.00    +0.008 C 
ATOM     27  C   LIG A   1      -7.047   5.123 133.387  0.00  0.00    +0.012 C 
ATOM     28  C   LIG A   1      -3.655   1.842 133.717  0.00  0.00    +0.014 C 
ATOM     29  C   LIG A   1      -5.522   5.295 128.755  0.00  0.00    +0.012 C 
ENDROOT
BRANCH  18  30
ATOM     30  C   LIG A   1     -10.574   5.719 132.212  0.00  0.00    +0.311 C 
ATOM     31  O   LIG A   1     -10.512   6.837 132.704  0.00  0.00    -0.250 OA
BRANCH  30  32
ATOM     32  O   LIG A   1     -10.376   4.655 133.008  0.00  0.00    -0.480 OA
ATOM     33  H   LIG A   1     -10.677   3.898 132.464  0.00  0.00    +0.295 HD
ENDBRANCH  30  32
ENDBRANCH  18  30
BRANCH  10  34
ATOM     34  O   LIG A   1      -3.389   6.424 135.484  0.00  0.00    -0.389 OA
ATOM     35  H   LIG A   1      -3.861   7.282 135.500  0.00  0.00    +0.210 HD
ENDBRANCH  10  34
BRANCH   9  36
ATOM     36  O   LIG A   1      -2.387   4.363 134.098  0.00  0.00    -0.389 OA
ATOM     37  H   LIG A   1      -2.578   4.520 133.155  0.00  0.00    +0.210 HD
ENDBRANCH   9  36
TORSDOF 4
ENDMDL
MODEL 9
REMARK VINA RESULT:      -8.1      3.309      7.370
REMARK  Name = NuBBE_386
REMARK  11 active torsions:
REMARK  status: ('A' for Active; 'I' for Inactive)
REMARK    1  A    between atoms: C_1  and  C_2
REMARK    2  A    between atoms: C_3  and  C_41
REMARK    3  A    between atoms: C_8  and  C_9
REMARK    4  A    between atoms: C_8  and  C_40
REMARK    5  A    between atoms: C_10  and  O_39
REMARK    6  A    between atoms: C_12  and  O_38
REMARK    7  A    between atoms: C_15  and  C_37
REMARK    8  A    between atoms: C_23  and  C_24
REMARK    9  A    between atoms: C_24  and  O_25
REMARK   10  A    between atoms: C_31  and  C_36
REMARK   11  A    between atoms: C_33  and  C_35
REMARK                            x       y       z     vdW  Elec       q    Type
REMARK                         _______ _______ _______ _____ _____    ______ ____
ROOT
ATOM      1  C   LIG A   1      -7.933  -1.548 128.664  0.00  0.00    +0.016 C 
ATOM      2  C   LIG A   1      -6.707  -0.705 129.150  0.00  0.00    -0.005 C 
ATOM      3  C   LIG A   1      -6.983   0.868 128.810  0.00  0.00    -0.019 C 
ATOM      4  C   LIG A   1      -6.721   1.213 127.317  0.00  0.00    +0.008 C 
ATOM      5  C   LIG A   1      -5.310   1.681 126.960  0.00  0.00    +0.005 C 
ATOM      6  C   LIG A   1      -4.888   2.874 127.832  0.00  0.00    +0.003 C 
ATOM      7  C   LIG A   1      -3.666   3.700 127.274  0.00  0.00    -0.003 C 
ATOM      8  C   LIG A   1      -2.363   2.885 127.157  0.00  0.00    +0.014 C 
ATOM      9  C   LIG A   1      -3.429   4.935 128.191  0.00  0.00    +0.149 C 
ATOM     10  C   LIG A   1      -3.319   4.568 129.677  0.00  0.00    +0.144 C 
ATOM     11  C   LIG A   1      -4.527   3.762 130.171  0.00  0.00    +0.041 C 
ATOM     12  C   LIG A   1      -4.817   2.460 129.350  0.00  0.00    -0.023 C 
ATOM     13  C   LIG A   1      -6.253   1.904 129.760  0.00  0.00    +0.006 C 
ATOM     14  C   LIG A   1      -6.417   1.511 131.243  0.00  0.00    +0.031 C 
ATOM     15  C   LIG A   1      -6.363   0.050 131.541  0.00  0.00    -0.026 C 
ATOM     16  C   LIG A   1      -6.478  -0.954 130.655  0.00  0.00    -0.063 C 
ATOM     17  C   LIG A   1      -6.246  -2.427 131.055  0.00  0.00    +0.035 C 
ATOM     18  C   LIG A   1      -4.916  -2.898 130.398  0.00  0.00    +0.074 C 
ATOM     19  C   LIG A   1      -5.052  -2.722 128.855  0.00  0.00    +0.019 C 
ATOM     20  C   LIG A   1      -5.464  -1.299 128.425  0.00  0.00    +0.012 C 
ATOM     21  C   LIG A   1      -4.657  -4.390 130.690  0.00  0.00    +0.019 C 
ATOM     22  C   LIG A   1      -4.735  -4.727 132.174  0.00  0.00    +0.004 C 
ATOM     23  C   LIG A   1      -6.091  -4.342 132.776  0.00  0.00    -0.011 C 
ATOM     24  C   LIG A   1      -6.420  -2.836 132.558  0.00  0.00    -0.003 C 
ATOM     25  C   LIG A   1      -7.861  -2.548 133.031  0.00  0.00    +0.008 C 
ATOM     26  C   LIG A   1      -6.103  -4.734 134.259  0.00  0.00    +0.008 C 
ATOM     27  C   LIG A   1      -3.694   1.456 129.678  0.00  0.00    +0.012 C 
ATOM     28  C   LIG A   1      -3.983   4.207 125.841  0.00  0.00    +0.014 C 
ATOM     29  C   LIG A   1      -8.520   1.159 129.027  0.00  0.00    +0.012 C 
ENDROOT
BRANCH  18  30
ATOM     30  C   LIG A   1      -3.663  -2.127 130.835  0.00  0.00    +0.311 C 
ATOM     31  O   LIG A   1      -3.561  -1.437 131.841  0.00  0.00    -0.250 OA
BRANCH  30  32
ATOM     32  O   LIG A   1      -2.635  -2.162 129.972  0.00  0.00    -0.480 OA
ATOM     33  H   LIG A   1      -1.916  -2.589 130.483  0.00  0.00    +0.295 HD
ENDBRANCH  30  32
ENDBRANCH  18  30
BRANCH  10  34
ATOM     34  O   LIG A   1      -3.253   5.779 130.443  0.00  0.00    -0.389 OA
ATOM     35  H   LIG A   1      -2.305   6.023 130.432  0.00  0.00    +0.210 HD
ENDBRANCH  10  34
BRANCH   9  36
ATOM     36  O   LIG A   1      -4.514   5.880 128.082  0.00  0.00    -0.389 OA
ATOM     37  H   LIG A   1      -5.337   5.367 127.994  0.00  0.00    +0.210 HD
ENDBRANCH   9  36
TORSDOF 4
ENDMDL
