MODEL 1
REMARK VINA RESULT:      -7.9      0.000      0.000
REMARK  Name = NuBBE_129
REMARK  13 active torsions:
REMARK  status: ('A' for Active; 'I' for Inactive)
REMARK    1  A    between atoms: O_1  and  C_2
REMARK    2  A    between atoms: C_5  and  C_6
REMARK    3  A    between atoms: C_10  and  O_11
REMARK    4  A    between atoms: C_12  and  O_13
REMARK    5  A    between atoms: O_13  and  C_14
REMARK    6  A    between atoms: C_16  and  O_18
REMARK    7  A    between atoms: C_19  and  O_21
REMARK    8  A    between atoms: C_22  and  O_24
REMARK    9  A    between atoms: C_25  and  C_27
REMARK   10  A    between atoms: C_27  and  O_28
REMARK   11  A    between atoms: C_30  and  O_31
REMARK   12  A    between atoms: O_31  and  C_32
REMARK   13  A    between atoms: C_38  and  O_39
REMARK                            x       y       z     vdW  Elec       q    Type
REMARK                         _______ _______ _______ _____ _____    ______ ____
ROOT
ATOM      1  C   LIG A   1      -7.360   2.587 122.505  0.00  0.00    +0.139 A 
ATOM      2  O   LIG A   1      -6.502   1.555 122.877  0.00  0.00    -0.454 OA
ATOM      3  C   LIG A   1      -6.957   0.627 123.788  0.00  0.00    +0.146 A 
ATOM      4  C   LIG A   1      -8.199   0.715 124.395  0.00  0.00    +0.109 A 
ATOM      5  C   LIG A   1      -8.635  -0.263 125.299  0.00  0.00    +0.177 A 
ATOM      6  C   LIG A   1      -7.803  -1.346 125.633  0.00  0.00    +0.207 A 
ATOM      7  C   LIG A   1      -6.554  -1.456 124.984  0.00  0.00    +0.169 A 
ATOM      8  C   LIG A   1      -6.132  -0.457 124.084  0.00  0.00    +0.096 A 
ATOM      9  C   LIG A   1      -8.589   2.760 123.013  0.00  0.00    +0.098 A 
ATOM     10  C   LIG A   1      -9.067   1.846 124.046  0.00  0.00    +0.197 A 
ATOM     11  O   LIG A   1     -10.146   2.017 124.590  0.00  0.00    -0.287 OA
ENDROOT
BRANCH   1  15
ATOM     12  C   LIG A   1      -5.860   5.263 119.510  0.00  0.00    +0.158 A 
ATOM     13  C   LIG A   1      -7.005   4.521 119.253  0.00  0.00    +0.050 A 
ATOM     14  C   LIG A   1      -7.491   3.648 120.235  0.00  0.00    +0.015 A 
ATOM     15  C   LIG A   1      -6.836   3.510 121.473  0.00  0.00    +0.021 A 
ATOM     16  C   LIG A   1      -5.672   4.265 121.699  0.00  0.00    +0.060 A 
ATOM     17  C   LIG A   1      -5.202   5.134 120.727  0.00  0.00    +0.159 A 
BRANCH  12  18
ATOM     18  O   LIG A   1      -5.335   6.133 118.596  0.00  0.00    -0.503 OA
ATOM     19  H   LIG A   1      -5.470   7.037 118.928  0.00  0.00    +0.292 HD
ENDBRANCH  12  18
BRANCH  17  20
ATOM     20  O   LIG A   1      -4.079   5.866 120.984  0.00  0.00    -0.503 OA
ATOM     21  H   LIG A   1      -3.509   5.268 121.507  0.00  0.00    +0.292 HD
ENDBRANCH  17  20
ENDBRANCH   1  15
BRANCH   5  22
ATOM     22  O   LIG A   1      -9.904  -0.189 125.817  0.00  0.00    -0.503 OA
ATOM     23  H   LIG A   1      -9.917   0.441 126.573  0.00  0.00    +0.292 HD
ENDBRANCH   5  22
BRANCH   7  24
ATOM     24  O   LIG A   1      -5.615  -2.445 125.154  0.00  0.00    -0.491 OA
ATOM     25  C   LIG A   1      -5.377  -3.316 124.052  0.00  0.00    +0.277 C 
ENDBRANCH   7  24
BRANCH   6  26
ATOM     26  O   LIG A   1      -8.150  -2.326 126.528  0.00  0.00    -0.454 OA
BRANCH  26  27
ATOM     27  C   LIG A   1      -8.015  -2.052 127.932  0.00  0.00    +0.340 C 
ATOM     28  C   LIG A   1      -6.798  -2.864 128.461  0.00  0.00    +0.214 C 
ATOM     29  C   LIG A   1      -5.694  -1.912 128.951  0.00  0.00    +0.180 C 
ATOM     30  C   LIG A   1      -6.271  -0.955 130.013  0.00  0.00    +0.177 C 
ATOM     31  C   LIG A   1      -7.620  -0.361 129.539  0.00  0.00    +0.179 C 
ATOM     32  O   LIG A   1      -7.823  -0.641 128.149  0.00  0.00    -0.331 OA
BRANCH  28  33
ATOM     33  O   LIG A   1      -7.204  -3.738 129.537  0.00  0.00    -0.383 OA
ATOM     34  H   LIG A   1      -6.478  -4.379 129.698  0.00  0.00    +0.210 HD
ENDBRANCH  28  33
BRANCH  29  35
ATOM     35  O   LIG A   1      -5.117  -1.178 127.867  0.00  0.00    -0.386 OA
ATOM     36  H   LIG A   1      -4.230  -0.882 128.155  0.00  0.00    +0.210 HD
ENDBRANCH  29  35
BRANCH  30  37
ATOM     37  O   LIG A   1      -6.504  -1.705 131.217  0.00  0.00    -0.387 OA
ATOM     38  H   LIG A   1      -5.950  -2.507 131.162  0.00  0.00    +0.210 HD
ENDBRANCH  30  37
BRANCH  31  39
ATOM     39  C   LIG A   1      -7.673   1.159 129.731  0.00  0.00    +0.190 C 
BRANCH  39  40
ATOM     40  O   LIG A   1      -8.580   1.757 128.815  0.00  0.00    -0.392 OA
ATOM     41  H   LIG A   1      -8.807   2.635 129.165  0.00  0.00    +0.209 HD
ENDBRANCH  39  40
ENDBRANCH  31  39
ENDBRANCH  26  27
ENDBRANCH   6  26
TORSDOF 12
ENDMDL
MODEL 2
REMARK VINA RESULT:      -7.9      3.597      5.464
REMARK  Name = NuBBE_129
REMARK  13 active torsions:
REMARK  status: ('A' for Active; 'I' for Inactive)
REMARK    1  A    between atoms: O_1  and  C_2
REMARK    2  A    between atoms: C_5  and  C_6
REMARK    3  A    between atoms: C_10  and  O_11
REMARK    4  A    between atoms: C_12  and  O_13
REMARK    5  A    between atoms: O_13  and  C_14
REMARK    6  A    between atoms: C_16  and  O_18
REMARK    7  A    between atoms: C_19  and  O_21
REMARK    8  A    between atoms: C_22  and  O_24
REMARK    9  A    between atoms: C_25  and  C_27
REMARK   10  A    between atoms: C_27  and  O_28
REMARK   11  A    between atoms: C_30  and  O_31
REMARK   12  A    between atoms: O_31  and  C_32
REMARK   13  A    between atoms: C_38  and  O_39
REMARK                            x       y       z     vdW  Elec       q    Type
REMARK                         _______ _______ _______ _____ _____    ______ ____
ROOT
ATOM      1  C   LIG A   1      -7.858   3.329 123.257  0.00  0.00    +0.139 A 
ATOM      2  O   LIG A   1      -7.039   4.057 124.117  0.00  0.00    -0.454 OA
ATOM      3  C   LIG A   1      -7.105   3.783 125.465  0.00  0.00    +0.146 A 
ATOM      4  C   LIG A   1      -7.995   2.869 126.005  0.00  0.00    +0.109 A 
ATOM      5  C   LIG A   1      -8.015   2.601 127.380  0.00  0.00    +0.177 A 
ATOM      6  C   LIG A   1      -7.147   3.283 128.251  0.00  0.00    +0.207 A 
ATOM      7  C   LIG A   1      -6.214   4.185 127.696  0.00  0.00    +0.169 A 
ATOM      8  C   LIG A   1      -6.216   4.445 126.311  0.00  0.00    +0.096 A 
ATOM      9  C   LIG A   1      -8.742   2.408 123.665  0.00  0.00    +0.098 A 
ATOM     10  C   LIG A   1      -8.901   2.159 125.095  0.00  0.00    +0.197 A 
ATOM     11  O   LIG A   1      -9.750   1.386 125.510  0.00  0.00    -0.287 OA
ENDROOT
BRANCH   1  15
ATOM     12  C   LIG A   1      -7.353   4.169 119.083  0.00  0.00    +0.158 A 
ATOM     13  C   LIG A   1      -6.234   4.052 119.898  0.00  0.00    +0.050 A 
ATOM     14  C   LIG A   1      -6.405   3.778 121.262  0.00  0.00    +0.015 A 
ATOM     15  C   LIG A   1      -7.689   3.623 121.816  0.00  0.00    +0.021 A 
ATOM     16  C   LIG A   1      -8.802   3.759 120.969  0.00  0.00    +0.060 A 
ATOM     17  C   LIG A   1      -8.625   4.021 119.618  0.00  0.00    +0.159 A 
BRANCH  12  18
ATOM     18  O   LIG A   1      -7.255   4.434 117.746  0.00  0.00    -0.503 OA
ATOM     19  H   LIG A   1      -8.104   4.803 117.448  0.00  0.00    +0.292 HD
ENDBRANCH  12  18
BRANCH  17  20
ATOM     20  O   LIG A   1      -9.726   4.130 118.818  0.00  0.00    -0.503 OA
ATOM     21  H   LIG A   1      -9.367   4.180 117.910  0.00  0.00    +0.292 HD
ENDBRANCH  17  20
ENDBRANCH   1  15
BRANCH   5  22
ATOM     22  O   LIG A   1      -8.850   1.628 127.868  0.00  0.00    -0.503 OA
ATOM     23  H   LIG A   1      -8.786   1.598 128.850  0.00  0.00    +0.292 HD
ENDBRANCH   5  22
BRANCH   7  24
ATOM     24  O   LIG A   1      -5.272   4.925 128.371  0.00  0.00    -0.491 OA
ATOM     25  C   LIG A   1      -4.163   5.410 127.621  0.00  0.00    +0.277 C 
ENDBRANCH   7  24
BRANCH   6  26
ATOM     26  O   LIG A   1      -7.127   3.093 129.610  0.00  0.00    -0.454 OA
BRANCH  26  27
ATOM     27  C   LIG A   1      -8.056   3.832 130.419  0.00  0.00    +0.340 C 
ATOM     28  C   LIG A   1      -7.256   4.504 131.571  0.00  0.00    +0.214 C 
ATOM     29  C   LIG A   1      -7.328   6.036 131.447  0.00  0.00    +0.180 C 
ATOM     30  C   LIG A   1      -8.803   6.483 131.414  0.00  0.00    +0.177 C 
ATOM     31  C   LIG A   1      -9.618   5.611 130.429  0.00  0.00    +0.179 C 
ATOM     32  O   LIG A   1      -8.736   4.821 129.621  0.00  0.00    -0.331 OA
BRANCH  28  33
ATOM     33  O   LIG A   1      -7.777   4.092 132.854  0.00  0.00    -0.383 OA
ATOM     34  H   LIG A   1      -7.219   3.355 133.185  0.00  0.00    +0.210 HD
ENDBRANCH  28  33
BRANCH  29  35
ATOM     35  O   LIG A   1      -6.632   6.500 130.287  0.00  0.00    -0.386 OA
ATOM     36  H   LIG A   1      -5.760   6.056 130.275  0.00  0.00    +0.210 HD
ENDBRANCH  29  35
BRANCH  30  37
ATOM     37  O   LIG A   1      -9.355   6.314 132.732  0.00  0.00    -0.387 OA
ATOM     38  H   LIG A   1     -10.326   6.303 132.631  0.00  0.00    +0.210 HD
ENDBRANCH  30  37
BRANCH  31  39
ATOM     39  C   LIG A   1     -10.484   6.463 129.494  0.00  0.00    +0.190 C 
BRANCH  39  40
ATOM     40  O   LIG A   1      -9.951   6.475 128.176  0.00  0.00    -0.392 OA
ATOM     41  H   LIG A   1      -9.147   5.928 128.186  0.00  0.00    +0.209 HD
ENDBRANCH  39  40
ENDBRANCH  31  39
ENDBRANCH  26  27
ENDBRANCH   6  26
TORSDOF 12
ENDMDL
MODEL 3
REMARK VINA RESULT:      -7.7      2.724      4.287
REMARK  Name = NuBBE_129
REMARK  13 active torsions:
REMARK  status: ('A' for Active; 'I' for Inactive)
REMARK    1  A    between atoms: O_1  and  C_2
REMARK    2  A    between atoms: C_5  and  C_6
REMARK    3  A    between atoms: C_10  and  O_11
REMARK    4  A    between atoms: C_12  and  O_13
REMARK    5  A    between atoms: O_13  and  C_14
REMARK    6  A    between atoms: C_16  and  O_18
REMARK    7  A    between atoms: C_19  and  O_21
REMARK    8  A    between atoms: C_22  and  O_24
REMARK    9  A    between atoms: C_25  and  C_27
REMARK   10  A    between atoms: C_27  and  O_28
REMARK   11  A    between atoms: C_30  and  O_31
REMARK   12  A    between atoms: O_31  and  C_32
REMARK   13  A    between atoms: C_38  and  O_39
REMARK                            x       y       z     vdW  Elec       q    Type
REMARK                         _______ _______ _______ _____ _____    ______ ____
ROOT
ATOM      1  C   LIG A   1      -6.399   2.994 123.681  0.00  0.00    +0.139 A 
ATOM      2  O   LIG A   1      -5.926   3.624 124.830  0.00  0.00    -0.454 OA
ATOM      3  C   LIG A   1      -6.115   2.997 126.041  0.00  0.00    +0.146 A 
ATOM      4  C   LIG A   1      -6.811   1.807 126.172  0.00  0.00    +0.109 A 
ATOM      5  C   LIG A   1      -6.962   1.187 127.420  0.00  0.00    +0.177 A 
ATOM      6  C   LIG A   1      -6.431   1.782 128.578  0.00  0.00    +0.207 A 
ATOM      7  C   LIG A   1      -5.689   2.974 128.439  0.00  0.00    +0.169 A 
ATOM      8  C   LIG A   1      -5.556   3.584 127.175  0.00  0.00    +0.096 A 
ATOM      9  C   LIG A   1      -7.068   1.832 123.686  0.00  0.00    +0.098 A 
ATOM     10  C   LIG A   1      -7.364   1.187 124.961  0.00  0.00    +0.197 A 
ATOM     11  O   LIG A   1      -8.039   0.172 125.013  0.00  0.00    -0.287 OA
ENDROOT
BRANCH   1  15
ATOM     12  C   LIG A   1      -5.557   4.998 119.986  0.00  0.00    +0.158 A 
ATOM     13  C   LIG A   1      -6.571   4.052 120.035  0.00  0.00    +0.050 A 
ATOM     14  C   LIG A   1      -6.842   3.399 121.245  0.00  0.00    +0.015 A 
ATOM     15  C   LIG A   1      -6.102   3.686 122.407  0.00  0.00    +0.021 A 
ATOM     16  C   LIG A   1      -5.073   4.640 122.323  0.00  0.00    +0.060 A 
ATOM     17  C   LIG A   1      -4.817   5.289 121.125  0.00  0.00    +0.159 A 
BRANCH  12  18
ATOM     18  O   LIG A   1      -5.244   5.671 118.839  0.00  0.00    -0.503 OA
ATOM     19  H   LIG A   1      -5.879   6.400 118.733  0.00  0.00    +0.292 HD
ENDBRANCH  12  18
BRANCH  17  20
ATOM     20  O   LIG A   1      -3.822   6.223 121.080  0.00  0.00    -0.503 OA
ATOM     21  H   LIG A   1      -4.288   7.082 121.124  0.00  0.00    +0.292 HD
ENDBRANCH  17  20
ENDBRANCH   1  15
BRANCH   5  22
ATOM     22  O   LIG A   1      -7.583  -0.033 127.499  0.00  0.00    -0.503 OA
ATOM     23  H   LIG A   1      -7.622  -0.325 128.438  0.00  0.00    +0.292 HD
ENDBRANCH   5  22
BRANCH   7  24
ATOM     24  O   LIG A   1      -5.075   3.691 129.439  0.00  0.00    -0.491 OA
ATOM     25  C   LIG A   1      -3.654   3.776 129.404  0.00  0.00    +0.277 C 
ENDBRANCH   7  24
BRANCH   6  26
ATOM     26  O   LIG A   1      -6.561   1.249 129.836  0.00  0.00    -0.454 OA
BRANCH  26  27
ATOM     27  C   LIG A   1      -7.712   1.609 130.617  0.00  0.00    +0.340 C 
ATOM     28  C   LIG A   1      -7.260   1.740 132.100  0.00  0.00    +0.214 C 
ATOM     29  C   LIG A   1      -7.432   3.190 132.584  0.00  0.00    +0.180 C 
ATOM     30  C   LIG A   1      -8.893   3.635 132.371  0.00  0.00    +0.177 C 
ATOM     31  C   LIG A   1      -9.381   3.254 130.952  0.00  0.00    +0.179 C 
ATOM     32  O   LIG A   1      -8.271   2.848 130.140  0.00  0.00    -0.331 OA
BRANCH  28  33
ATOM     33  O   LIG A   1      -8.025   0.849 132.941  0.00  0.00    -0.383 OA
ATOM     34  H   LIG A   1      -7.515   0.699 133.767  0.00  0.00    +0.210 HD
ENDBRANCH  28  33
BRANCH  29  35
ATOM     35  O   LIG A   1      -6.530   4.075 131.915  0.00  0.00    -0.386 OA
ATOM     36  H   LIG A   1      -6.749   4.985 132.201  0.00  0.00    +0.210 HD
ENDBRANCH  29  35
BRANCH  30  37
ATOM     37  O   LIG A   1      -9.717   2.953 133.332  0.00  0.00    -0.387 OA
ATOM     38  H   LIG A   1     -10.543   2.708 132.872  0.00  0.00    +0.210 HD
ENDBRANCH  30  37
BRANCH  31  39
ATOM     39  C   LIG A   1     -10.077   4.427 130.254  0.00  0.00    +0.190 C 
BRANCH  39  40
ATOM     40  O   LIG A   1     -11.444   4.130 130.002  0.00  0.00    -0.392 OA
ATOM     41  H   LIG A   1     -11.952   4.435 130.773  0.00  0.00    +0.209 HD
ENDBRANCH  39  40
ENDBRANCH  31  39
ENDBRANCH  26  27
ENDBRANCH   6  26
TORSDOF 12
ENDMDL
MODEL 4
REMARK VINA RESULT:      -7.7      1.342      1.968
REMARK  Name = NuBBE_129
REMARK  13 active torsions:
REMARK  status: ('A' for Active; 'I' for Inactive)
REMARK    1  A    between atoms: O_1  and  C_2
REMARK    2  A    between atoms: C_5  and  C_6
REMARK    3  A    between atoms: C_10  and  O_11
REMARK    4  A    between atoms: C_12  and  O_13
REMARK    5  A    between atoms: O_13  and  C_14
REMARK    6  A    between atoms: C_16  and  O_18
REMARK    7  A    between atoms: C_19  and  O_21
REMARK    8  A    between atoms: C_22  and  O_24
REMARK    9  A    between atoms: C_25  and  C_27
REMARK   10  A    between atoms: C_27  and  O_28
REMARK   11  A    between atoms: C_30  and  O_31
REMARK   12  A    between atoms: O_31  and  C_32
REMARK   13  A    between atoms: C_38  and  O_39
REMARK                            x       y       z     vdW  Elec       q    Type
REMARK                         _______ _______ _______ _____ _____    ______ ____
ROOT
ATOM      1  C   LIG A   1      -6.903   2.814 123.086  0.00  0.00    +0.139 A 
ATOM      2  O   LIG A   1      -6.708   1.439 122.977  0.00  0.00    -0.454 OA
ATOM      3  C   LIG A   1      -7.134   0.637 124.012  0.00  0.00    +0.146 A 
ATOM      4  C   LIG A   1      -7.684   1.142 125.178  0.00  0.00    +0.109 A 
ATOM      5  C   LIG A   1      -8.129   0.292 126.199  0.00  0.00    +0.177 A 
ATOM      6  C   LIG A   1      -7.995  -1.102 126.072  0.00  0.00    +0.207 A 
ATOM      7  C   LIG A   1      -7.471  -1.618 124.867  0.00  0.00    +0.169 A 
ATOM      8  C   LIG A   1      -7.023  -0.744 123.857  0.00  0.00    +0.096 A 
ATOM      9  C   LIG A   1      -7.443   3.411 124.158  0.00  0.00    +0.098 A 
ATOM     10  C   LIG A   1      -7.822   2.598 125.310  0.00  0.00    +0.197 A 
ATOM     11  O   LIG A   1      -8.242   3.111 126.334  0.00  0.00    -0.287 OA
ENDROOT
BRANCH   1  15
ATOM     12  C   LIG A   1      -5.712   5.126 119.678  0.00  0.00    +0.158 A 
ATOM     13  C   LIG A   1      -6.807   4.277 119.580  0.00  0.00    +0.050 A 
ATOM     14  C   LIG A   1      -7.192   3.523 120.697  0.00  0.00    +0.015 A 
ATOM     15  C   LIG A   1      -6.486   3.612 121.911  0.00  0.00    +0.021 A 
ATOM     16  C   LIG A   1      -5.375   4.470 121.975  0.00  0.00    +0.060 A 
ATOM     17  C   LIG A   1      -5.006   5.221 120.870  0.00  0.00    +0.159 A 
BRANCH  12  18
ATOM     18  O   LIG A   1      -5.287   5.889 118.627  0.00  0.00    -0.503 OA
ATOM     19  H   LIG A   1      -5.631   5.494 117.807  0.00  0.00    +0.292 HD
ENDBRANCH  12  18
BRANCH  17  20
ATOM     20  O   LIG A   1      -3.933   6.058 120.970  0.00  0.00    -0.503 OA
ATOM     21  H   LIG A   1      -4.170   6.679 121.687  0.00  0.00    +0.292 HD
ENDBRANCH  17  20
ENDBRANCH   1  15
BRANCH   5  22
ATOM     22  O   LIG A   1      -8.746   0.823 127.303  0.00  0.00    -0.503 OA
ATOM     23  H   LIG A   1      -8.099   1.355 127.821  0.00  0.00    +0.292 HD
ENDBRANCH   5  22
BRANCH   7  24
ATOM     24  O   LIG A   1      -7.284  -2.941 124.543  0.00  0.00    -0.491 OA
ATOM     25  C   LIG A   1      -5.984  -3.330 124.112  0.00  0.00    +0.277 C 
ENDBRANCH   7  24
BRANCH   6  26
ATOM     26  O   LIG A   1      -8.382  -1.996 127.039  0.00  0.00    -0.454 OA
BRANCH  26  27
ATOM     27  C   LIG A   1      -7.389  -2.494 127.950  0.00  0.00    +0.340 C 
ATOM     28  C   LIG A   1      -6.098  -1.646 127.758  0.00  0.00    +0.214 C 
ATOM     29  C   LIG A   1      -5.779  -0.864 129.044  0.00  0.00    +0.180 C 
ATOM     30  C   LIG A   1      -5.671  -1.842 130.230  0.00  0.00    +0.177 C 
ATOM     31  C   LIG A   1      -6.858  -2.835 130.231  0.00  0.00    +0.179 C 
ATOM     32  O   LIG A   1      -7.865  -2.403 129.306  0.00  0.00    -0.331 OA
BRANCH  28  33
ATOM     33  O   LIG A   1      -4.983  -2.496 127.412  0.00  0.00    -0.383 OA
ATOM     34  H   LIG A   1      -4.236  -1.920 127.139  0.00  0.00    +0.210 HD
ENDBRANCH  28  33
BRANCH  29  35
ATOM     35  O   LIG A   1      -6.763   0.141 129.303  0.00  0.00    -0.386 OA
ATOM     36  H   LIG A   1      -6.486   0.950 128.826  0.00  0.00    +0.210 HD
ENDBRANCH  29  35
BRANCH  30  37
ATOM     37  O   LIG A   1      -4.452  -2.592 130.087  0.00  0.00    -0.387 OA
ATOM     38  H   LIG A   1      -3.845  -2.279 130.783  0.00  0.00    +0.210 HD
ENDBRANCH  30  37
BRANCH  31  39
ATOM     39  C   LIG A   1      -7.503  -2.952 131.616  0.00  0.00    +0.190 C 
BRANCH  39  40
ATOM     40  O   LIG A   1      -6.522  -2.887 132.642  0.00  0.00    -0.392 OA
ATOM     41  H   LIG A   1      -6.095  -3.760 132.688  0.00  0.00    +0.209 HD
ENDBRANCH  39  40
ENDBRANCH  31  39
ENDBRANCH  26  27
ENDBRANCH   6  26
TORSDOF 12
ENDMDL
MODEL 5
REMARK VINA RESULT:      -7.7      1.362      1.899
REMARK  Name = NuBBE_129
REMARK  13 active torsions:
REMARK  status: ('A' for Active; 'I' for Inactive)
REMARK    1  A    between atoms: O_1  and  C_2
REMARK    2  A    between atoms: C_5  and  C_6
REMARK    3  A    between atoms: C_10  and  O_11
REMARK    4  A    between atoms: C_12  and  O_13
REMARK    5  A    between atoms: O_13  and  C_14
REMARK    6  A    between atoms: C_16  and  O_18
REMARK    7  A    between atoms: C_19  and  O_21
REMARK    8  A    between atoms: C_22  and  O_24
REMARK    9  A    between atoms: C_25  and  C_27
REMARK   10  A    between atoms: C_27  and  O_28
REMARK   11  A    between atoms: C_30  and  O_31
REMARK   12  A    between atoms: O_31  and  C_32
REMARK   13  A    between atoms: C_38  and  O_39
REMARK                            x       y       z     vdW  Elec       q    Type
REMARK                         _______ _______ _______ _____ _____    ______ ____
ROOT
ATOM      1  C   LIG A   1      -7.068   2.954 122.988  0.00  0.00    +0.139 A 
ATOM      2  O   LIG A   1      -6.712   1.609 123.053  0.00  0.00    -0.454 OA
ATOM      3  C   LIG A   1      -7.133   0.877 124.141  0.00  0.00    +0.146 A 
ATOM      4  C   LIG A   1      -7.832   1.434 125.198  0.00  0.00    +0.109 A 
ATOM      5  C   LIG A   1      -8.264   0.650 126.277  0.00  0.00    +0.177 A 
ATOM      6  C   LIG A   1      -7.967  -0.723 126.322  0.00  0.00    +0.207 A 
ATOM      7  C   LIG A   1      -7.289  -1.298 125.225  0.00  0.00    +0.169 A 
ATOM      8  C   LIG A   1      -6.857  -0.490 124.155  0.00  0.00    +0.096 A 
ATOM      9  C   LIG A   1      -7.758   3.593 123.943  0.00  0.00    +0.098 A 
ATOM     10  C   LIG A   1      -8.141   2.869 125.151  0.00  0.00    +0.197 A 
ATOM     11  O   LIG A   1      -8.699   3.435 126.076  0.00  0.00    -0.287 OA
ENDROOT
BRANCH   1  15
ATOM     12  C   LIG A   1      -5.825   5.011 119.437  0.00  0.00    +0.158 A 
ATOM     13  C   LIG A   1      -4.968   4.951 120.529  0.00  0.00    +0.050 A 
ATOM     14  C   LIG A   1      -5.380   4.278 121.687  0.00  0.00    +0.015 A 
ATOM     15  C   LIG A   1      -6.644   3.666 121.761  0.00  0.00    +0.021 A 
ATOM     16  C   LIG A   1      -7.494   3.754 120.644  0.00  0.00    +0.060 A 
ATOM     17  C   LIG A   1      -7.077   4.413 119.498  0.00  0.00    +0.159 A 
BRANCH  12  18
ATOM     18  O   LIG A   1      -5.483   5.649 118.278  0.00  0.00    -0.503 OA
ATOM     19  H   LIG A   1      -4.718   6.220 118.462  0.00  0.00    +0.292 HD
ENDBRANCH  12  18
BRANCH  17  20
ATOM     20  O   LIG A   1      -7.918   4.465 118.424  0.00  0.00    -0.503 OA
ATOM     21  H   LIG A   1      -7.364   4.805 117.693  0.00  0.00    +0.292 HD
ENDBRANCH  17  20
ENDBRANCH   1  15
BRANCH   5  22
ATOM     22  O   LIG A   1      -9.026   1.219 127.265  0.00  0.00    -0.503 OA
ATOM     23  H   LIG A   1      -8.881   0.741 128.113  0.00  0.00    +0.292 HD
ENDBRANCH   5  22
BRANCH   7  24
ATOM     24  O   LIG A   1      -6.930  -2.616 125.070  0.00  0.00    -0.491 OA
ATOM     25  C   LIG A   1      -7.881  -3.485 124.462  0.00  0.00    +0.277 C 
ENDBRANCH   7  24
BRANCH   6  26
ATOM     26  O   LIG A   1      -8.332  -1.548 127.356  0.00  0.00    -0.454 OA
BRANCH  26  27
ATOM     27  C   LIG A   1      -7.574  -1.497 128.575  0.00  0.00    +0.340 C 
ATOM     28  C   LIG A   1      -6.770  -2.823 128.693  0.00  0.00    +0.214 C 
ATOM     29  C   LIG A   1      -5.259  -2.538 128.642  0.00  0.00    +0.180 C 
ATOM     30  C   LIG A   1      -4.888  -1.524 129.742  0.00  0.00    +0.177 C 
ATOM     31  C   LIG A   1      -5.877  -0.333 129.746  0.00  0.00    +0.179 C 
ATOM     32  O   LIG A   1      -6.689  -0.360 128.564  0.00  0.00    -0.331 OA
BRANCH  28  33
ATOM     33  O   LIG A   1      -7.099  -3.504 129.924  0.00  0.00    -0.383 OA
ATOM     34  H   LIG A   1      -7.634  -2.893 130.476  0.00  0.00    +0.210 HD
ENDBRANCH  28  33
BRANCH  29  35
ATOM     35  O   LIG A   1      -4.861  -2.059 127.355  0.00  0.00    -0.386 OA
ATOM     36  H   LIG A   1      -5.615  -2.198 126.747  0.00  0.00    +0.210 HD
ENDBRANCH  29  35
BRANCH  30  37
ATOM     37  O   LIG A   1      -4.973  -2.187 131.015  0.00  0.00    -0.387 OA
ATOM     38  H   LIG A   1      -4.057  -2.381 131.293  0.00  0.00    +0.210 HD
ENDBRANCH  30  37
BRANCH  31  39
ATOM     39  C   LIG A   1      -5.149   1.015 129.792  0.00  0.00    +0.190 C 
BRANCH  39  40
ATOM     40  O   LIG A   1      -3.760   0.852 129.536  0.00  0.00    -0.392 OA
ATOM     41  H   LIG A   1      -3.630   0.957 128.578  0.00  0.00    +0.209 HD
ENDBRANCH  39  40
ENDBRANCH  31  39
ENDBRANCH  26  27
ENDBRANCH   6  26
TORSDOF 12
ENDMDL
MODEL 6
REMARK VINA RESULT:      -7.6      2.236      3.392
REMARK  Name = NuBBE_129
REMARK  13 active torsions:
REMARK  status: ('A' for Active; 'I' for Inactive)
REMARK    1  A    between atoms: O_1  and  C_2
REMARK    2  A    between atoms: C_5  and  C_6
REMARK    3  A    between atoms: C_10  and  O_11
REMARK    4  A    between atoms: C_12  and  O_13
REMARK    5  A    between atoms: O_13  and  C_14
REMARK    6  A    between atoms: C_16  and  O_18
REMARK    7  A    between atoms: C_19  and  O_21
REMARK    8  A    between atoms: C_22  and  O_24
REMARK    9  A    between atoms: C_25  and  C_27
REMARK   10  A    between atoms: C_27  and  O_28
REMARK   11  A    between atoms: C_30  and  O_31
REMARK   12  A    between atoms: O_31  and  C_32
REMARK   13  A    between atoms: C_38  and  O_39
REMARK                            x       y       z     vdW  Elec       q    Type
REMARK                         _______ _______ _______ _____ _____    ______ ____
ROOT
ATOM      1  C   LIG A   1      -6.524   3.100 122.906  0.00  0.00    +0.139 A 
ATOM      2  O   LIG A   1      -5.605   3.379 123.916  0.00  0.00    -0.454 OA
ATOM      3  C   LIG A   1      -5.712   2.688 125.102  0.00  0.00    +0.146 A 
ATOM      4  C   LIG A   1      -6.728   1.782 125.356  0.00  0.00    +0.109 A 
ATOM      5  C   LIG A   1      -6.788   1.079 126.567  0.00  0.00    +0.177 A 
ATOM      6  C   LIG A   1      -5.828   1.306 127.569  0.00  0.00    +0.207 A 
ATOM      7  C   LIG A   1      -4.771   2.200 127.295  0.00  0.00    +0.169 A 
ATOM      8  C   LIG A   1      -4.734   2.901 126.073  0.00  0.00    +0.096 A 
ATOM      9  C   LIG A   1      -7.535   2.230 123.034  0.00  0.00    +0.098 A 
ATOM     10  C   LIG A   1      -7.730   1.547 124.309  0.00  0.00    +0.197 A 
ATOM     11  O   LIG A   1      -8.684   0.809 124.490  0.00  0.00    -0.287 OA
ENDROOT
BRANCH   1  15
ATOM     12  C   LIG A   1      -5.893   5.200 119.222  0.00  0.00    +0.158 A 
ATOM     13  C   LIG A   1      -4.920   5.247 120.212  0.00  0.00    +0.050 A 
ATOM     14  C   LIG A   1      -5.131   4.559 121.414  0.00  0.00    +0.015 A 
ATOM     15  C   LIG A   1      -6.312   3.827 121.634  0.00  0.00    +0.021 A 
ATOM     16  C   LIG A   1      -7.284   3.808 120.619  0.00  0.00    +0.060 A 
ATOM     17  C   LIG A   1      -7.064   4.483 119.427  0.00  0.00    +0.159 A 
BRANCH  12  18
ATOM     18  O   LIG A   1      -5.748   5.847 118.027  0.00  0.00    -0.503 OA
ATOM     19  H   LIG A   1      -4.849   5.673 117.696  0.00  0.00    +0.292 HD
ENDBRANCH  12  18
BRANCH  17  20
ATOM     20  O   LIG A   1      -8.020   4.431 118.454  0.00  0.00    -0.503 OA
ATOM     21  H   LIG A   1      -7.808   5.178 117.860  0.00  0.00    +0.292 HD
ENDBRANCH  17  20
ENDBRANCH   1  15
BRANCH   5  22
ATOM     22  O   LIG A   1      -7.759   0.128 126.751  0.00  0.00    -0.503 OA
ATOM     23  H   LIG A   1      -8.638   0.500 126.510  0.00  0.00    +0.292 HD
ENDBRANCH   5  22
BRANCH   7  24
ATOM     24  O   LIG A   1      -3.730   2.535 128.128  0.00  0.00    -0.491 OA
ATOM     25  C   LIG A   1      -2.625   3.221 127.548  0.00  0.00    +0.277 C 
ENDBRANCH   7  24
BRANCH   6  26
ATOM     26  O   LIG A   1      -5.837   0.677 128.789  0.00  0.00    -0.454 OA
BRANCH  26  27
ATOM     27  C   LIG A   1      -5.716  -0.755 128.822  0.00  0.00    +0.340 C 
ATOM     28  C   LIG A   1      -4.685  -1.120 129.929  0.00  0.00    +0.214 C 
ATOM     29  C   LIG A   1      -5.369  -1.920 131.051  0.00  0.00    +0.180 C 
ATOM     30  C   LIG A   1      -6.059  -3.162 130.454  0.00  0.00    +0.177 C 
ATOM     31  C   LIG A   1      -6.877  -2.783 129.196  0.00  0.00    +0.179 C 
ATOM     32  O   LIG A   1      -6.995  -1.358 129.094  0.00  0.00    -0.331 OA
BRANCH  28  33
ATOM     33  O   LIG A   1      -3.598  -1.891 129.371  0.00  0.00    -0.383 OA
ATOM     34  H   LIG A   1      -2.784  -1.343 129.415  0.00  0.00    +0.210 HD
ENDBRANCH  28  33
BRANCH  29  35
ATOM     35  O   LIG A   1      -6.308  -1.114 131.769  0.00  0.00    -0.386 OA
ATOM     36  H   LIG A   1      -6.927  -0.735 131.113  0.00  0.00    +0.210 HD
ENDBRANCH  29  35
BRANCH  30  37
ATOM     37  O   LIG A   1      -5.040  -4.100 130.066  0.00  0.00    -0.387 OA
ATOM     38  H   LIG A   1      -5.489  -4.816 129.576  0.00  0.00    +0.210 HD
ENDBRANCH  30  37
BRANCH  31  39
ATOM     39  C   LIG A   1      -8.290  -3.376 129.234  0.00  0.00    +0.190 C 
BRANCH  39  40
ATOM     40  O   LIG A   1      -8.627  -3.969 127.987  0.00  0.00    -0.392 OA
ATOM     41  H   LIG A   1      -8.139  -4.807 127.926  0.00  0.00    +0.209 HD
ENDBRANCH  39  40
ENDBRANCH  31  39
ENDBRANCH  26  27
ENDBRANCH   6  26
TORSDOF 12
ENDMDL
MODEL 7
REMARK VINA RESULT:      -7.4      9.149     11.227
REMARK  Name = NuBBE_129
REMARK  13 active torsions:
REMARK  status: ('A' for Active; 'I' for Inactive)
REMARK    1  A    between atoms: O_1  and  C_2
REMARK    2  A    between atoms: C_5  and  C_6
REMARK    3  A    between atoms: C_10  and  O_11
REMARK    4  A    between atoms: C_12  and  O_13
REMARK    5  A    between atoms: O_13  and  C_14
REMARK    6  A    between atoms: C_16  and  O_18
REMARK    7  A    between atoms: C_19  and  O_21
REMARK    8  A    between atoms: C_22  and  O_24
REMARK    9  A    between atoms: C_25  and  C_27
REMARK   10  A    between atoms: C_27  and  O_28
REMARK   11  A    between atoms: C_30  and  O_31
REMARK   12  A    between atoms: O_31  and  C_32
REMARK   13  A    between atoms: C_38  and  O_39
REMARK                            x       y       z     vdW  Elec       q    Type
REMARK                         _______ _______ _______ _____ _____    ______ ____
ROOT
ATOM      1  C   LIG A   1      -8.638   6.722 131.270  0.00  0.00    +0.139 A 
ATOM      2  O   LIG A   1      -7.466   7.185 130.678  0.00  0.00    -0.454 OA
ATOM      3  C   LIG A   1      -6.263   6.816 131.239  0.00  0.00    +0.146 A 
ATOM      4  C   LIG A   1      -6.173   6.066 132.399  0.00  0.00    +0.109 A 
ATOM      5  C   LIG A   1      -4.930   5.690 132.926  0.00  0.00    +0.177 A 
ATOM      6  C   LIG A   1      -3.739   6.097 132.299  0.00  0.00    +0.207 A 
ATOM      7  C   LIG A   1      -3.832   6.828 131.095  0.00  0.00    +0.169 A 
ATOM      8  C   LIG A   1      -5.092   7.202 130.587  0.00  0.00    +0.096 A 
ATOM      9  C   LIG A   1      -8.670   5.975 132.383  0.00  0.00    +0.098 A 
ATOM     10  C   LIG A   1      -7.417   5.642 133.053  0.00  0.00    +0.197 A 
ATOM     11  O   LIG A   1      -7.409   5.032 134.110  0.00  0.00    -0.287 OA
ENDROOT
BRANCH   1  15
ATOM     12  C   LIG A   1     -12.278   7.809 129.283  0.00  0.00    +0.158 A 
ATOM     13  C   LIG A   1     -12.335   7.140 130.498  0.00  0.00    +0.050 A 
ATOM     14  C   LIG A   1     -11.143   6.786 131.143  0.00  0.00    +0.015 A 
ATOM     15  C   LIG A   1      -9.892   7.096 130.579  0.00  0.00    +0.021 A 
ATOM     16  C   LIG A   1      -9.866   7.763 129.342  0.00  0.00    +0.060 A 
ATOM     17  C   LIG A   1     -11.050   8.119 128.713  0.00  0.00    +0.159 A 
BRANCH  12  18
ATOM     18  O   LIG A   1     -13.403   8.183 128.604  0.00  0.00    -0.503 OA
ATOM     19  H   LIG A   1     -13.983   7.406 128.528  0.00  0.00    +0.292 HD
ENDBRANCH  12  18
BRANCH  17  20
ATOM     20  O   LIG A   1     -10.991   8.781 127.521  0.00  0.00    -0.503 OA
ATOM     21  H   LIG A   1     -10.043   8.774 127.281  0.00  0.00    +0.292 HD
ENDBRANCH  17  20
ENDBRANCH   1  15
BRANCH   5  22
ATOM     22  O   LIG A   1      -4.880   4.876 134.029  0.00  0.00    -0.503 OA
ATOM     23  H   LIG A   1      -5.793   4.634 134.304  0.00  0.00    +0.292 HD
ENDBRANCH   5  22
BRANCH   7  24
ATOM     24  O   LIG A   1      -2.793   7.294 130.325  0.00  0.00    -0.491 OA
ATOM     25  C   LIG A   1      -2.288   6.425 129.315  0.00  0.00    +0.277 C 
ENDBRANCH   7  24
BRANCH   6  26
ATOM     26  O   LIG A   1      -2.487   5.791 132.770  0.00  0.00    -0.454 OA
BRANCH  26  27
ATOM     27  C   LIG A   1      -1.944   6.584 133.838  0.00  0.00    +0.340 C 
ATOM     28  C   LIG A   1      -0.841   7.502 133.238  0.00  0.00    +0.214 C 
ATOM     29  C   LIG A   1      -1.245   8.980 133.375  0.00  0.00    +0.180 C 
ATOM     30  C   LIG A   1      -1.539   9.300 134.854  0.00  0.00    +0.177 C 
ATOM     31  C   LIG A   1      -2.444   8.213 135.481  0.00  0.00    +0.179 C 
ATOM     32  O   LIG A   1      -2.983   7.367 134.457  0.00  0.00    -0.331 OA
BRANCH  28  33
ATOM     33  O   LIG A   1       0.421   7.276 133.902  0.00  0.00    -0.383 OA
ATOM     34  H   LIG A   1       0.247   6.755 134.716  0.00  0.00    +0.210 HD
ENDBRANCH  28  33
BRANCH  29  35
ATOM     35  O   LIG A   1      -2.375   9.292 132.555  0.00  0.00    -0.386 OA
ATOM     36  H   LIG A   1      -2.842  10.041 132.976  0.00  0.00    +0.210 HD
ENDBRANCH  29  35
BRANCH  30  37
ATOM     37  O   LIG A   1      -0.290   9.317 135.568  0.00  0.00    -0.387 OA
ATOM     38  H   LIG A   1      -0.212  10.199 135.979  0.00  0.00    +0.210 HD
ENDBRANCH  30  37
BRANCH  31  39
ATOM     39  C   LIG A   1      -3.616   8.824 136.258  0.00  0.00    +0.190 C 
BRANCH  39  40
ATOM     40  O   LIG A   1      -4.640   7.863 136.474  0.00  0.00    -0.392 OA
ATOM     41  H   LIG A   1      -4.750   7.770 137.436  0.00  0.00    +0.209 HD
ENDBRANCH  39  40
ENDBRANCH  31  39
ENDBRANCH  26  27
ENDBRANCH   6  26
TORSDOF 12
ENDMDL
MODEL 8
REMARK VINA RESULT:      -7.3      5.447      7.913
REMARK  Name = NuBBE_129
REMARK  13 active torsions:
REMARK  status: ('A' for Active; 'I' for Inactive)
REMARK    1  A    between atoms: O_1  and  C_2
REMARK    2  A    between atoms: C_5  and  C_6
REMARK    3  A    between atoms: C_10  and  O_11
REMARK    4  A    between atoms: C_12  and  O_13
REMARK    5  A    between atoms: O_13  and  C_14
REMARK    6  A    between atoms: C_16  and  O_18
REMARK    7  A    between atoms: C_19  and  O_21
REMARK    8  A    between atoms: C_22  and  O_24
REMARK    9  A    between atoms: C_25  and  C_27
REMARK   10  A    between atoms: C_27  and  O_28
REMARK   11  A    between atoms: C_30  and  O_31
REMARK   12  A    between atoms: O_31  and  C_32
REMARK   13  A    between atoms: C_38  and  O_39
REMARK                            x       y       z     vdW  Elec       q    Type
REMARK                         _______ _______ _______ _____ _____    ______ ____
ROOT
ATOM      1  C   LIG A   1     -10.256   5.333 130.722  0.00  0.00    +0.139 A 
ATOM      2  O   LIG A   1      -9.810   4.412 129.777  0.00  0.00    -0.454 OA
ATOM      3  C   LIG A   1      -9.203   3.260 130.228  0.00  0.00    +0.146 A 
ATOM      4  C   LIG A   1      -8.960   3.012 131.568  0.00  0.00    +0.109 A 
ATOM      5  C   LIG A   1      -8.361   1.817 131.989  0.00  0.00    +0.177 A 
ATOM      6  C   LIG A   1      -7.966   0.850 131.048  0.00  0.00    +0.207 A 
ATOM      7  C   LIG A   1      -8.250   1.085 129.685  0.00  0.00    +0.169 A 
ATOM      8  C   LIG A   1      -8.845   2.298 129.284  0.00  0.00    +0.096 A 
ATOM      9  C   LIG A   1     -10.091   5.189 132.044  0.00  0.00    +0.098 A 
ATOM     10  C   LIG A   1      -9.373   4.023 132.550  0.00  0.00    +0.197 A 
ATOM     11  O   LIG A   1      -9.133   3.896 133.739  0.00  0.00    -0.287 OA
ENDROOT
BRANCH   1  15
ATOM     12  C   LIG A   1     -12.297   8.762 129.155  0.00  0.00    +0.158 A 
ATOM     13  C   LIG A   1     -12.710   8.212 130.361  0.00  0.00    +0.050 A 
ATOM     14  C   LIG A   1     -12.040   7.091 130.869  0.00  0.00    +0.015 A 
ATOM     15  C   LIG A   1     -10.960   6.515 130.175  0.00  0.00    +0.021 A 
ATOM     16  C   LIG A   1     -10.572   7.087 128.951  0.00  0.00    +0.060 A 
ATOM     17  C   LIG A   1     -11.233   8.202 128.460  0.00  0.00    +0.159 A 
BRANCH  12  18
ATOM     18  O   LIG A   1     -12.906   9.856 128.607  0.00  0.00    -0.503 OA
ATOM     19  H   LIG A   1     -12.225  10.392 128.165  0.00  0.00    +0.292 HD
ENDBRANCH  12  18
BRANCH  17  20
ATOM     20  O   LIG A   1     -10.822   8.745 127.277  0.00  0.00    -0.503 OA
ATOM     21  H   LIG A   1     -11.148   9.666 127.301  0.00  0.00    +0.292 HD
ENDBRANCH  17  20
ENDBRANCH   1  15
BRANCH   5  22
ATOM     22  O   LIG A   1      -8.213   1.569 133.330  0.00  0.00    -0.503 OA
ATOM     23  H   LIG A   1      -8.953   1.985 133.828  0.00  0.00    +0.292 HD
ENDBRANCH   5  22
BRANCH   7  24
ATOM     24  O   LIG A   1      -7.967   0.259 128.624  0.00  0.00    -0.491 OA
ATOM     25  C   LIG A   1      -6.743   0.482 127.931  0.00  0.00    +0.277 C 
ENDBRANCH   7  24
BRANCH   6  26
ATOM     26  O   LIG A   1      -7.352  -0.331 131.382  0.00  0.00    -0.454 OA
BRANCH  26  27
ATOM     27  C   LIG A   1      -5.919  -0.352 131.486  0.00  0.00    +0.340 C 
ATOM     28  C   LIG A   1      -5.552  -0.459 132.994  0.00  0.00    +0.214 C 
ATOM     29  C   LIG A   1      -4.826  -1.786 133.274  0.00  0.00    +0.180 C 
ATOM     30  C   LIG A   1      -3.592  -1.902 132.358  0.00  0.00    +0.177 C 
ATOM     31  C   LIG A   1      -3.958  -1.540 130.898  0.00  0.00    +0.179 C 
ATOM     32  O   LIG A   1      -5.381  -1.467 130.748  0.00  0.00    -0.331 OA
BRANCH  28  33
ATOM     33  O   LIG A   1      -4.715   0.650 133.390  0.00  0.00    -0.383 OA
ATOM     34  H   LIG A   1      -4.037   0.311 134.013  0.00  0.00    +0.210 HD
ENDBRANCH  28  33
BRANCH  29  35
ATOM     35  O   LIG A   1      -5.697  -2.906 133.097  0.00  0.00    -0.386 OA
ATOM     36  H   LIG A   1      -6.199  -2.756 132.271  0.00  0.00    +0.210 HD
ENDBRANCH  29  35
BRANCH  30  37
ATOM     37  O   LIG A   1      -2.597  -0.972 132.820  0.00  0.00    -0.387 OA
ATOM     38  H   LIG A   1      -2.760  -0.836 133.773  0.00  0.00    +0.210 HD
ENDBRANCH  30  37
BRANCH  31  39
ATOM     39  C   LIG A   1      -3.427  -2.577 129.902  0.00  0.00    +0.190 C 
BRANCH  39  40
ATOM     40  O   LIG A   1      -2.094  -2.274 129.512  0.00  0.00    -0.392 OA
ATOM     41  H   LIG A   1      -2.002  -2.530 128.579  0.00  0.00    +0.209 HD
ENDBRANCH  39  40
ENDBRANCH  31  39
ENDBRANCH  26  27
ENDBRANCH   6  26
TORSDOF 12
ENDMDL
MODEL 9
REMARK VINA RESULT:      -7.3      2.730      4.067
REMARK  Name = NuBBE_129
REMARK  13 active torsions:
REMARK  status: ('A' for Active; 'I' for Inactive)
REMARK    1  A    between atoms: O_1  and  C_2
REMARK    2  A    between atoms: C_5  and  C_6
REMARK    3  A    between atoms: C_10  and  O_11
REMARK    4  A    between atoms: C_12  and  O_13
REMARK    5  A    between atoms: O_13  and  C_14
REMARK    6  A    between atoms: C_16  and  O_18
REMARK    7  A    between atoms: C_19  and  O_21
REMARK    8  A    between atoms: C_22  and  O_24
REMARK    9  A    between atoms: C_25  and  C_27
REMARK   10  A    between atoms: C_27  and  O_28
REMARK   11  A    between atoms: C_30  and  O_31
REMARK   12  A    between atoms: O_31  and  C_32
REMARK   13  A    between atoms: C_38  and  O_39
REMARK                            x       y       z     vdW  Elec       q    Type
REMARK                         _______ _______ _______ _____ _____    ______ ____
ROOT
ATOM      1  C   LIG A   1      -6.410   3.265 123.877  0.00  0.00    +0.139 A 
ATOM      2  O   LIG A   1      -6.931   2.049 124.309  0.00  0.00    -0.454 OA
ATOM      3  C   LIG A   1      -6.804   1.722 125.641  0.00  0.00    +0.146 A 
ATOM      4  C   LIG A   1      -6.124   2.517 126.549  0.00  0.00    +0.109 A 
ATOM      5  C   LIG A   1      -6.036   2.163 127.902  0.00  0.00    +0.177 A 
ATOM      6  C   LIG A   1      -6.615   0.967 128.363  0.00  0.00    +0.207 A 
ATOM      7  C   LIG A   1      -7.342   0.177 127.445  0.00  0.00    +0.169 A 
ATOM      8  C   LIG A   1      -7.410   0.549 126.088  0.00  0.00    +0.096 A 
ATOM      9  C   LIG A   1      -5.750   4.122 124.670  0.00  0.00    +0.098 A 
ATOM     10  C   LIG A   1      -5.519   3.765 126.066  0.00  0.00    +0.197 A 
ATOM     11  O   LIG A   1      -4.855   4.480 126.798  0.00  0.00    -0.287 OA
ENDROOT
BRANCH   1  15
ATOM     12  C   LIG A   1      -7.064   4.189 119.742  0.00  0.00    +0.158 A 
ATOM     13  C   LIG A   1      -5.788   4.309 120.276  0.00  0.00    +0.050 A 
ATOM     14  C   LIG A   1      -5.580   4.006 121.628  0.00  0.00    +0.015 A 
ATOM     15  C   LIG A   1      -6.641   3.587 122.450  0.00  0.00    +0.021 A 
ATOM     16  C   LIG A   1      -7.924   3.487 121.884  0.00  0.00    +0.060 A 
ATOM     17  C   LIG A   1      -8.121   3.778 120.543  0.00  0.00    +0.159 A 
BRANCH  12  18
ATOM     18  O   LIG A   1      -7.334   4.467 118.431  0.00  0.00    -0.503 OA
ATOM     19  H   LIG A   1      -6.487   4.560 117.961  0.00  0.00    +0.292 HD
ENDBRANCH  12  18
BRANCH  17  20
ATOM     20  O   LIG A   1      -9.376   3.654 120.019  0.00  0.00    -0.503 OA
ATOM     21  H   LIG A   1      -9.243   3.686 119.051  0.00  0.00    +0.292 HD
ENDBRANCH  17  20
ENDBRANCH   1  15
BRANCH   5  22
ATOM     22  O   LIG A   1      -5.428   3.016 128.788  0.00  0.00    -0.503 OA
ATOM     23  H   LIG A   1      -6.063   3.263 129.498  0.00  0.00    +0.292 HD
ENDBRANCH   5  22
BRANCH   7  24
ATOM     24  O   LIG A   1      -7.995  -1.004 127.703  0.00  0.00    -0.491 OA
ATOM     25  C   LIG A   1      -7.270  -2.211 127.492  0.00  0.00    +0.277 C 
ENDBRANCH   7  24
BRANCH   6  26
ATOM     26  O   LIG A   1      -6.548   0.541 129.665  0.00  0.00    -0.454 OA
BRANCH  26  27
ATOM     27  C   LIG A   1      -7.570   0.970 130.580  0.00  0.00    +0.340 C 
ATOM     28  C   LIG A   1      -6.896   1.245 131.955  0.00  0.00    +0.214 C 
ATOM     29  C   LIG A   1      -7.018   2.734 132.321  0.00  0.00    +0.180 C 
ATOM     30  C   LIG A   1      -8.502   3.150 132.298  0.00  0.00    +0.177 C 
ATOM     31  C   LIG A   1      -9.197   2.633 131.016  0.00  0.00    +0.179 C 
ATOM     32  O   LIG A   1      -8.220   2.155 130.082  0.00  0.00    -0.331 OA
BRANCH  28  33
ATOM     33  O   LIG A   1      -7.503   0.435 132.986  0.00  0.00    -0.383 OA
ATOM     34  H   LIG A   1      -7.295   0.843 133.854  0.00  0.00    +0.210 HD
ENDBRANCH  28  33
BRANCH  29  35
ATOM     35  O   LIG A   1      -6.248   3.554 131.438  0.00  0.00    -0.386 OA
ATOM     36  H   LIG A   1      -5.881   2.970 130.744  0.00  0.00    +0.210 HD
ENDBRANCH  29  35
BRANCH  30  37
ATOM     37  O   LIG A   1      -9.154   2.560 133.437  0.00  0.00    -0.387 OA
ATOM     38  H   LIG A   1      -8.858   3.060 134.221  0.00  0.00    +0.210 HD
ENDBRANCH  30  37
BRANCH  31  39
ATOM     39  C   LIG A   1     -10.017   3.730 130.328  0.00  0.00    +0.190 C 
BRANCH  39  40
ATOM     40  O   LIG A   1     -10.942   4.318 131.232  0.00  0.00    -0.392 OA
ATOM     41  H   LIG A   1     -10.433   4.888 131.834  0.00  0.00    +0.209 HD
ENDBRANCH  39  40
ENDBRANCH  31  39
ENDBRANCH  26  27
ENDBRANCH   6  26
TORSDOF 12
ENDMDL
