MODEL 1
REMARK VINA RESULT:      -7.7      0.000      0.000
REMARK  Name = NuBBE_2317
REMARK  5 active torsions:
REMARK  status: ('A' for Active; 'I' for Inactive)
REMARK    1  A    between atoms: C_3  and  O_26
REMARK    2  A    between atoms: C_4  and  C_23
REMARK    3  A    between atoms: C_8  and  C_22
REMARK    4  A    between atoms: C_10  and  C_13
REMARK    5  A    between atoms: C_23  and  C_24
REMARK                            x       y       z     vdW  Elec       q    Type
REMARK                         _______ _______ _______ _____ _____    ______ ____
ROOT
ATOM      1  C   LIG A   1      -9.125  -2.355 124.198  0.00  0.00    +0.215 C 
ATOM      2  O   LIG A   1      -9.838  -2.790 123.295  0.00  0.00    -0.287 OA
ATOM      3  C   LIG A   1      -8.519  -0.921 124.165  0.00  0.00    +0.239 C 
ATOM      4  C   LIG A   1      -7.731  -0.503 125.435  0.00  0.00    +0.044 C 
ATOM      5  C   LIG A   1      -8.258  -1.275 126.671  0.00  0.00    +0.040 C 
ATOM      6  C   LIG A   1      -8.312  -2.754 126.452  0.00  0.00    -0.022 C 
ATOM      7  C   LIG A   1      -8.739  -3.270 125.299  0.00  0.00    +0.048 C 
ATOM      8  C   LIG A   1      -8.006   1.026 125.533  0.00  0.00    +0.032 C 
ATOM      9  C   LIG A   1      -8.995   1.347 124.393  0.00  0.00    +0.156 C 
ATOM     10  O   LIG A   1      -9.512   0.079 123.960  0.00  0.00    -0.334 OA
ATOM     11  C   LIG A   1      -8.563   1.555 126.861  0.00  0.00    +0.011 C 
ENDROOT
BRANCH   9  12
ATOM     12  C   LIG A   1      -8.425   2.171 123.238  0.00  0.00    -0.015 A 
ATOM     13  C   LIG A   1      -9.258   2.592 122.172  0.00  0.00    +0.010 A 
ATOM     14  C   LIG A   1      -8.758   3.352 121.104  0.00  0.00    +0.050 A 
ATOM     15  C   LIG A   1      -7.423   3.692 121.124  0.00  0.00    +0.166 A 
ATOM     16  C   LIG A   1      -6.610   3.326 122.166  0.00  0.00    +0.167 A 
ATOM     17  C   LIG A   1      -7.082   2.596 123.236  0.00  0.00    +0.055 A 
ATOM     18  O   LIG A   1      -5.332   3.764 122.013  0.00  0.00    -0.453 OA
ATOM     19  C   LIG A   1      -5.433   4.443 120.745  0.00  0.00    +0.466 C 
ATOM     20  O   LIG A   1      -6.759   4.408 120.179  0.00  0.00    -0.453 OA
ENDBRANCH   9  12
BRANCH   3  21
ATOM     21  O   LIG A   1      -7.693  -0.906 123.001  0.00  0.00    -0.358 OA
ATOM     22  H   LIG A   1      -8.079  -1.594 122.425  0.00  0.00    +0.213 HD
ENDBRANCH   3  21
BRANCH   4  23
ATOM     23  C   LIG A   1      -6.200  -0.770 125.236  0.00  0.00    +0.040 C 
BRANCH  23  24
ATOM     24  C   LIG A   1      -5.302  -0.235 126.322  0.00  0.00    -0.034 C 
ATOM     25  C   LIG A   1      -4.798   1.006 126.329  0.00  0.00    +0.004 C 
ENDBRANCH  23  24
ENDBRANCH   4  23
TORSDOF 4
ENDMDL
MODEL 2
REMARK VINA RESULT:      -7.6      3.083      6.812
REMARK  Name = NuBBE_2317
REMARK  5 active torsions:
REMARK  status: ('A' for Active; 'I' for Inactive)
REMARK    1  A    between atoms: C_3  and  O_26
REMARK    2  A    between atoms: C_4  and  C_23
REMARK    3  A    between atoms: C_8  and  C_22
REMARK    4  A    between atoms: C_10  and  C_13
REMARK    5  A    between atoms: C_23  and  C_24
REMARK                            x       y       z     vdW  Elec       q    Type
REMARK                         _______ _______ _______ _____ _____    ______ ____
ROOT
ATOM      1  C   LIG A   1      -9.620   1.144 124.462  0.00  0.00    +0.215 C 
ATOM      2  O   LIG A   1     -10.008   1.973 125.283  0.00  0.00    -0.287 OA
ATOM      3  C   LIG A   1      -8.831  -0.133 124.874  0.00  0.00    +0.239 C 
ATOM      4  C   LIG A   1      -8.512  -1.119 123.720  0.00  0.00    +0.044 C 
ATOM      5  C   LIG A   1      -9.569  -0.987 122.595  0.00  0.00    +0.040 C 
ATOM      6  C   LIG A   1      -9.766   0.425 122.146  0.00  0.00    -0.022 C 
ATOM      7  C   LIG A   1      -9.814   1.432 123.020  0.00  0.00    +0.048 C 
ATOM      8  C   LIG A   1      -8.562  -2.509 124.419  0.00  0.00    +0.032 C 
ATOM      9  C   LIG A   1      -9.000  -2.230 125.872  0.00  0.00    +0.156 C 
ATOM     10  O   LIG A   1      -9.511  -0.887 125.872  0.00  0.00    -0.334 OA
ATOM     11  C   LIG A   1      -9.481  -3.572 123.801  0.00  0.00    +0.011 C 
ENDROOT
BRANCH   9  12
ATOM     12  C   LIG A   1      -7.925  -2.446 126.937  0.00  0.00    -0.015 A 
ATOM     13  C   LIG A   1      -6.556  -2.232 126.635  0.00  0.00    +0.010 A 
ATOM     14  C   LIG A   1      -5.553  -2.421 127.597  0.00  0.00    +0.050 A 
ATOM     15  C   LIG A   1      -5.937  -2.814 128.860  0.00  0.00    +0.166 A 
ATOM     16  C   LIG A   1      -7.258  -2.988 129.182  0.00  0.00    +0.167 A 
ATOM     17  C   LIG A   1      -8.264  -2.790 128.260  0.00  0.00    +0.055 A 
ATOM     18  O   LIG A   1      -7.439  -3.362 130.477  0.00  0.00    -0.453 OA
ATOM     19  C   LIG A   1      -6.072  -3.411 130.933  0.00  0.00    +0.466 C 
ATOM     20  O   LIG A   1      -5.113  -3.057 129.914  0.00  0.00    -0.453 OA
ENDBRANCH   9  12
BRANCH   3  21
ATOM     21  O   LIG A   1      -7.642   0.363 125.491  0.00  0.00    -0.358 OA
ATOM     22  H   LIG A   1      -7.076   0.627 124.740  0.00  0.00    +0.213 HD
ENDBRANCH   3  21
BRANCH   4  23
ATOM     23  C   LIG A   1      -7.076  -0.847 123.154  0.00  0.00    +0.040 C 
BRANCH  23  24
ATOM     24  C   LIG A   1      -6.360  -2.049 122.592  0.00  0.00    -0.034 C 
ATOM     25  C   LIG A   1      -5.309  -2.634 123.180  0.00  0.00    +0.004 C 
ENDBRANCH  23  24
ENDBRANCH   4  23
TORSDOF 4
ENDMDL
MODEL 3
REMARK VINA RESULT:      -7.6      2.972      3.932
REMARK  Name = NuBBE_2317
REMARK  5 active torsions:
REMARK  status: ('A' for Active; 'I' for Inactive)
REMARK    1  A    between atoms: C_3  and  O_26
REMARK    2  A    between atoms: C_4  and  C_23
REMARK    3  A    between atoms: C_8  and  C_22
REMARK    4  A    between atoms: C_10  and  C_13
REMARK    5  A    between atoms: C_23  and  C_24
REMARK                            x       y       z     vdW  Elec       q    Type
REMARK                         _______ _______ _______ _____ _____    ______ ____
ROOT
ATOM      1  C   LIG A   1      -9.185  -1.230 123.381  0.00  0.00    +0.215 C 
ATOM      2  O   LIG A   1      -9.985  -0.434 122.892  0.00  0.00    -0.287 OA
ATOM      3  C   LIG A   1      -8.005  -0.775 124.290  0.00  0.00    +0.239 C 
ATOM      4  C   LIG A   1      -7.157  -1.921 124.902  0.00  0.00    +0.044 C 
ATOM      5  C   LIG A   1      -8.013  -3.205 125.041  0.00  0.00    +0.040 C 
ATOM      6  C   LIG A   1      -8.708  -3.580 123.771  0.00  0.00    -0.022 C 
ATOM      7  C   LIG A   1      -9.282  -2.659 122.995  0.00  0.00    +0.048 C 
ATOM      8  C   LIG A   1      -6.729  -1.344 126.283  0.00  0.00    +0.032 C 
ATOM      9  C   LIG A   1      -7.435   0.023 126.401  0.00  0.00    +0.156 C 
ATOM     10  O   LIG A   1      -8.446   0.028 125.380  0.00  0.00    -0.334 OA
ATOM     11  C   LIG A   1      -7.039  -2.191 127.524  0.00  0.00    +0.011 C 
ENDROOT
BRANCH   9  12
ATOM     12  C   LIG A   1      -6.520   1.246 126.324  0.00  0.00    -0.015 A 
ATOM     13  C   LIG A   1      -7.060   2.538 126.106  0.00  0.00    +0.010 A 
ATOM     14  C   LIG A   1      -6.240   3.675 126.036  0.00  0.00    +0.050 A 
ATOM     15  C   LIG A   1      -4.883   3.502 126.196  0.00  0.00    +0.166 A 
ATOM     16  C   LIG A   1      -4.347   2.265 126.446  0.00  0.00    +0.167 A 
ATOM     17  C   LIG A   1      -5.133   1.136 126.539  0.00  0.00    +0.055 A 
ATOM     18  O   LIG A   1      -2.995   2.298 126.589  0.00  0.00    -0.453 OA
ATOM     19  C   LIG A   1      -2.740   3.703 126.390  0.00  0.00    +0.466 C 
ATOM     20  O   LIG A   1      -3.935   4.475 126.148  0.00  0.00    -0.453 OA
ENDBRANCH   9  12
BRANCH   3  21
ATOM     21  O   LIG A   1      -7.219   0.079 123.458  0.00  0.00    -0.358 OA
ATOM     22  H   LIG A   1      -7.689   0.078 122.602  0.00  0.00    +0.213 HD
ENDBRANCH   3  21
BRANCH   4  23
ATOM     23  C   LIG A   1      -5.897  -2.198 124.013  0.00  0.00    +0.040 C 
BRANCH  23  24
ATOM     24  C   LIG A   1      -5.073  -3.396 124.411  0.00  0.00    -0.034 C 
ATOM     25  C   LIG A   1      -4.422  -4.176 123.538  0.00  0.00    +0.004 C 
ENDBRANCH  23  24
ENDBRANCH   4  23
TORSDOF 4
ENDMDL
MODEL 4
REMARK VINA RESULT:      -7.3      7.474      9.267
REMARK  Name = NuBBE_2317
REMARK  5 active torsions:
REMARK  status: ('A' for Active; 'I' for Inactive)
REMARK    1  A    between atoms: C_3  and  O_26
REMARK    2  A    between atoms: C_4  and  C_23
REMARK    3  A    between atoms: C_8  and  C_22
REMARK    4  A    between atoms: C_10  and  C_13
REMARK    5  A    between atoms: C_23  and  C_24
REMARK                            x       y       z     vdW  Elec       q    Type
REMARK                         _______ _______ _______ _____ _____    ______ ____
ROOT
ATOM      1  C   LIG A   1     -10.624   7.597 129.438  0.00  0.00    +0.215 C 
ATOM      2  O   LIG A   1     -10.420   8.474 128.601  0.00  0.00    -0.287 OA
ATOM      3  C   LIG A   1      -9.484   6.696 129.997  0.00  0.00    +0.239 C 
ATOM      4  C   LIG A   1      -9.904   5.712 131.121  0.00  0.00    +0.044 C 
ATOM      5  C   LIG A   1     -11.127   6.270 131.892  0.00  0.00    +0.040 C 
ATOM      6  C   LIG A   1     -12.249   6.670 130.988  0.00  0.00    -0.022 C 
ATOM      7  C   LIG A   1     -12.023   7.314 129.842  0.00  0.00    +0.048 C 
ATOM      8  C   LIG A   1      -8.630   5.632 132.013  0.00  0.00    +0.032 C 
ATOM      9  C   LIG A   1      -7.629   6.635 131.403  0.00  0.00    +0.156 C 
ATOM     10  O   LIG A   1      -8.399   7.459 130.514  0.00  0.00    -0.334 OA
ATOM     11  C   LIG A   1      -8.802   5.923 133.510  0.00  0.00    +0.011 C 
ENDROOT
BRANCH   9  12
ATOM     12  C   LIG A   1      -6.411   6.015 130.718  0.00  0.00    -0.015 A 
ATOM     13  C   LIG A   1      -6.354   4.621 130.469  0.00  0.00    +0.010 A 
ATOM     14  C   LIG A   1      -5.248   4.032 129.838  0.00  0.00    +0.050 A 
ATOM     15  C   LIG A   1      -4.211   4.852 129.453  0.00  0.00    +0.166 A 
ATOM     16  C   LIG A   1      -4.266   6.208 129.650  0.00  0.00    +0.167 A 
ATOM     17  C   LIG A   1      -5.349   6.814 130.250  0.00  0.00    +0.055 A 
ATOM     18  O   LIG A   1      -3.158   6.851 129.192  0.00  0.00    -0.453 OA
ATOM     19  C   LIG A   1      -2.393   5.736 128.689  0.00  0.00    +0.466 C 
ATOM     20  O   LIG A   1      -3.059   4.466 128.844  0.00  0.00    -0.453 OA
ENDBRANCH   9  12
BRANCH   3  21
ATOM     21  O   LIG A   1      -8.977   6.007 128.853  0.00  0.00    -0.358 OA
ATOM     22  H   LIG A   1      -9.731   5.985 128.234  0.00  0.00    +0.213 HD
ENDBRANCH   3  21
BRANCH   4  23
ATOM     23  C   LIG A   1     -10.235   4.305 130.517  0.00  0.00    +0.040 C 
BRANCH  23  24
ATOM     24  C   LIG A   1      -9.733   3.124 131.307  0.00  0.00    -0.034 C 
ATOM     25  C   LIG A   1      -9.030   2.115 130.777  0.00  0.00    +0.004 C 
ENDBRANCH  23  24
ENDBRANCH   4  23
TORSDOF 4
ENDMDL
MODEL 5
REMARK VINA RESULT:      -7.2      6.973      9.124
REMARK  Name = NuBBE_2317
REMARK  5 active torsions:
REMARK  status: ('A' for Active; 'I' for Inactive)
REMARK    1  A    between atoms: C_3  and  O_26
REMARK    2  A    between atoms: C_4  and  C_23
REMARK    3  A    between atoms: C_8  and  C_22
REMARK    4  A    between atoms: C_10  and  C_13
REMARK    5  A    between atoms: C_23  and  C_24
REMARK                            x       y       z     vdW  Elec       q    Type
REMARK                         _______ _______ _______ _____ _____    ______ ____
ROOT
ATOM      1  C   LIG A   1      -6.625   4.325 129.058  0.00  0.00    +0.215 C 
ATOM      2  O   LIG A   1      -6.437   4.736 127.915  0.00  0.00    -0.287 OA
ATOM      3  C   LIG A   1      -7.900   4.686 129.876  0.00  0.00    +0.239 C 
ATOM      4  C   LIG A   1      -8.020   3.996 131.261  0.00  0.00    +0.044 C 
ATOM      5  C   LIG A   1      -7.254   2.649 131.256  0.00  0.00    +0.040 C 
ATOM      6  C   LIG A   1      -5.847   2.782 130.767  0.00  0.00    -0.022 C 
ATOM      7  C   LIG A   1      -5.546   3.552 129.719  0.00  0.00    +0.048 C 
ATOM      8  C   LIG A   1      -9.555   3.802 131.426  0.00  0.00    +0.032 C 
ATOM      9  C   LIG A   1     -10.183   4.293 130.105  0.00  0.00    +0.156 C 
ATOM     10  O   LIG A   1      -9.097   4.381 129.169  0.00  0.00    -0.334 OA
ATOM     11  C   LIG A   1     -10.054   2.385 131.738  0.00  0.00    +0.011 C 
ENDROOT
BRANCH   9  12
ATOM     12  C   LIG A   1     -10.982   5.593 130.198  0.00  0.00    -0.015 A 
ATOM     13  C   LIG A   1     -11.528   6.018 131.435  0.00  0.00    +0.010 A 
ATOM     14  C   LIG A   1     -12.261   7.209 131.545  0.00  0.00    +0.050 A 
ATOM     15  C   LIG A   1     -12.430   7.969 130.409  0.00  0.00    +0.166 A 
ATOM     16  C   LIG A   1     -11.877   7.594 129.212  0.00  0.00    +0.167 A 
ATOM     17  C   LIG A   1     -11.136   6.438 129.082  0.00  0.00    +0.055 A 
ATOM     18  O   LIG A   1     -12.141   8.477 128.211  0.00  0.00    -0.453 OA
ATOM     19  C   LIG A   1     -12.935   9.451 128.919  0.00  0.00    +0.466 C 
ATOM     20  O   LIG A   1     -13.116   9.139 130.316  0.00  0.00    -0.453 OA
ENDBRANCH   9  12
BRANCH   3  21
ATOM     21  O   LIG A   1      -7.859   6.109 129.995  0.00  0.00    -0.358 OA
ATOM     22  H   LIG A   1      -7.794   6.266 130.957  0.00  0.00    +0.213 HD
ENDBRANCH   3  21
BRANCH   4  23
ATOM     23  C   LIG A   1      -7.465   4.935 132.385  0.00  0.00    +0.040 C 
BRANCH  23  24
ATOM     24  C   LIG A   1      -8.353   5.098 133.592  0.00  0.00    -0.034 C 
ATOM     25  C   LIG A   1      -8.074   4.587 134.799  0.00  0.00    +0.004 C 
ENDBRANCH  23  24
ENDBRANCH   4  23
TORSDOF 4
ENDMDL
MODEL 6
REMARK VINA RESULT:      -7.0      7.399      8.791
REMARK  Name = NuBBE_2317
REMARK  5 active torsions:
REMARK  status: ('A' for Active; 'I' for Inactive)
REMARK    1  A    between atoms: C_3  and  O_26
REMARK    2  A    between atoms: C_4  and  C_23
REMARK    3  A    between atoms: C_8  and  C_22
REMARK    4  A    between atoms: C_10  and  C_13
REMARK    5  A    between atoms: C_23  and  C_24
REMARK                            x       y       z     vdW  Elec       q    Type
REMARK                         _______ _______ _______ _____ _____    ______ ____
ROOT
ATOM      1  C   LIG A   1      -7.784   2.255 130.655  0.00  0.00    +0.215 C 
ATOM      2  O   LIG A   1      -8.437   1.395 130.067  0.00  0.00    -0.287 OA
ATOM      3  C   LIG A   1      -8.232   3.745 130.717  0.00  0.00    +0.239 C 
ATOM      4  C   LIG A   1      -7.342   4.670 131.588  0.00  0.00    +0.044 C 
ATOM      5  C   LIG A   1      -6.643   3.850 132.701  0.00  0.00    +0.040 C 
ATOM      6  C   LIG A   1      -5.929   2.647 132.174  0.00  0.00    -0.022 C 
ATOM      7  C   LIG A   1      -6.469   1.878 131.226  0.00  0.00    +0.048 C 
ATOM      8  C   LIG A   1      -8.360   5.699 132.163  0.00  0.00    +0.032 C 
ATOM      9  C   LIG A   1      -9.746   5.234 131.671  0.00  0.00    +0.156 C 
ATOM     10  O   LIG A   1      -9.562   3.887 131.206  0.00  0.00    -0.334 OA
ATOM     11  C   LIG A   1      -8.389   5.880 133.686  0.00  0.00    +0.011 C 
ENDROOT
BRANCH   9  12
ATOM     12  C   LIG A   1     -10.407   6.129 130.622  0.00  0.00    -0.015 A 
ATOM     13  C   LIG A   1      -9.696   7.211 130.045  0.00  0.00    +0.010 A 
ATOM     14  C   LIG A   1     -10.282   8.042 129.079  0.00  0.00    +0.050 A 
ATOM     15  C   LIG A   1     -11.576   7.772 128.693  0.00  0.00    +0.166 A 
ATOM     16  C   LIG A   1     -12.266   6.707 129.212  0.00  0.00    +0.167 A 
ATOM     17  C   LIG A   1     -11.707   5.863 130.149  0.00  0.00    +0.055 A 
ATOM     18  O   LIG A   1     -13.521   6.595 128.700  0.00  0.00    -0.453 OA
ATOM     19  C   LIG A   1     -13.543   7.722 127.802  0.00  0.00    +0.466 C 
ATOM     20  O   LIG A   1     -12.309   8.469 127.786  0.00  0.00    -0.453 OA
ENDBRANCH   9  12
BRANCH   3  21
ATOM     21  O   LIG A   1      -8.261   4.168 129.354  0.00  0.00    -0.358 OA
ATOM     22  H   LIG A   1      -7.350   4.017 129.037  0.00  0.00    +0.213 HD
ENDBRANCH   3  21
BRANCH   4  23
ATOM     23  C   LIG A   1      -6.278   5.398 130.697  0.00  0.00    +0.040 C 
BRANCH  23  24
ATOM     24  C   LIG A   1      -5.933   6.804 131.114  0.00  0.00    -0.034 C 
ATOM     25  C   LIG A   1      -4.951   7.527 130.562  0.00  0.00    +0.004 C 
ENDBRANCH  23  24
ENDBRANCH   4  23
TORSDOF 4
ENDMDL
MODEL 7
REMARK VINA RESULT:      -7.0      7.933     10.029
REMARK  Name = NuBBE_2317
REMARK  5 active torsions:
REMARK  status: ('A' for Active; 'I' for Inactive)
REMARK    1  A    between atoms: C_3  and  O_26
REMARK    2  A    between atoms: C_4  and  C_23
REMARK    3  A    between atoms: C_8  and  C_22
REMARK    4  A    between atoms: C_10  and  C_13
REMARK    5  A    between atoms: C_23  and  C_24
REMARK                            x       y       z     vdW  Elec       q    Type
REMARK                         _______ _______ _______ _____ _____    ______ ____
ROOT
ATOM      1  C   LIG A   1      -3.977   6.613 129.410  0.00  0.00    +0.215 C 
ATOM      2  O   LIG A   1      -4.125   7.169 128.323  0.00  0.00    -0.287 OA
ATOM      3  C   LIG A   1      -5.181   6.118 130.265  0.00  0.00    +0.239 C 
ATOM      4  C   LIG A   1      -4.806   5.347 131.558  0.00  0.00    +0.044 C 
ATOM      5  C   LIG A   1      -3.424   4.666 131.394  0.00  0.00    +0.040 C 
ATOM      6  C   LIG A   1      -2.363   5.610 130.924  0.00  0.00    -0.022 C 
ATOM      7  C   LIG A   1      -2.609   6.515 129.975  0.00  0.00    +0.048 C 
ATOM      8  C   LIG A   1      -5.961   4.313 131.699  0.00  0.00    +0.032 C 
ATOM      9  C   LIG A   1      -6.841   4.496 130.445  0.00  0.00    +0.156 C 
ATOM     10  O   LIG A   1      -6.051   5.267 129.526  0.00  0.00    -0.334 OA
ATOM     11  C   LIG A   1      -5.567   2.836 131.840  0.00  0.00    +0.011 C 
ENDROOT
BRANCH   9  12
ATOM     12  C   LIG A   1      -8.219   5.110 130.691  0.00  0.00    -0.015 A 
ATOM     13  C   LIG A   1      -8.586   5.566 131.982  0.00  0.00    +0.010 A 
ATOM     14  C   LIG A   1      -9.843   6.137 132.230  0.00  0.00    +0.050 A 
ATOM     15  C   LIG A   1     -10.718   6.254 131.173  0.00  0.00    +0.166 A 
ATOM     16  C   LIG A   1     -10.366   5.855 129.909  0.00  0.00    +0.167 A 
ATOM     17  C   LIG A   1      -9.130   5.309 129.635  0.00  0.00    +0.055 A 
ATOM     18  O   LIG A   1     -11.355   6.063 128.998  0.00  0.00    -0.453 OA
ATOM     19  C   LIG A   1     -12.376   6.634 129.840  0.00  0.00    +0.466 C 
ATOM     20  O   LIG A   1     -11.976   6.766 131.220  0.00  0.00    -0.453 OA
ENDBRANCH   9  12
BRANCH   3  21
ATOM     21  O   LIG A   1      -5.929   7.300 130.551  0.00  0.00    -0.358 OA
ATOM     22  H   LIG A   1      -5.252   7.950 130.822  0.00  0.00    +0.213 HD
ENDBRANCH   3  21
BRANCH   4  23
ATOM     23  C   LIG A   1      -4.793   6.319 132.786  0.00  0.00    +0.040 C 
BRANCH  23  24
ATOM     24  C   LIG A   1      -5.551   5.844 133.999  0.00  0.00    -0.034 C 
ATOM     25  C   LIG A   1      -5.221   6.163 135.257  0.00  0.00    +0.004 C 
ENDBRANCH  23  24
ENDBRANCH   4  23
TORSDOF 4
ENDMDL
MODEL 8
REMARK VINA RESULT:      -6.9      7.958      9.843
REMARK  Name = NuBBE_2317
REMARK  5 active torsions:
REMARK  status: ('A' for Active; 'I' for Inactive)
REMARK    1  A    between atoms: C_3  and  O_26
REMARK    2  A    between atoms: C_4  and  C_23
REMARK    3  A    between atoms: C_8  and  C_22
REMARK    4  A    between atoms: C_10  and  C_13
REMARK    5  A    between atoms: C_23  and  C_24
REMARK                            x       y       z     vdW  Elec       q    Type
REMARK                         _______ _______ _______ _____ _____    ______ ____
ROOT
ATOM      1  C   LIG A   1      -4.977   6.194 130.133  0.00  0.00    +0.215 C 
ATOM      2  O   LIG A   1      -4.720   6.901 129.159  0.00  0.00    -0.287 OA
ATOM      3  C   LIG A   1      -6.433   5.955 130.628  0.00  0.00    +0.239 C 
ATOM      4  C   LIG A   1      -6.578   4.954 131.806  0.00  0.00    +0.044 C 
ATOM      5  C   LIG A   1      -5.408   3.939 131.794  0.00  0.00    +0.040 C 
ATOM      6  C   LIG A   1      -4.068   4.599 131.723  0.00  0.00    -0.022 C 
ATOM      7  C   LIG A   1      -3.850   5.647 130.927  0.00  0.00    +0.048 C 
ATOM      8  C   LIG A   1      -7.951   4.277 131.525  0.00  0.00    +0.032 C 
ATOM      9  C   LIG A   1      -8.434   4.854 130.178  0.00  0.00    +0.156 C 
ATOM     10  O   LIG A   1      -7.284   5.481 129.590  0.00  0.00    -0.334 OA
ATOM     11  C   LIG A   1      -7.978   2.744 131.467  0.00  0.00    +0.011 C 
ENDROOT
BRANCH   9  12
ATOM     12  C   LIG A   1      -9.637   5.795 130.258  0.00  0.00    -0.015 A 
ATOM     13  C   LIG A   1     -10.490   5.781 131.390  0.00  0.00    +0.010 A 
ATOM     14  C   LIG A   1     -11.596   6.639 131.486  0.00  0.00    +0.050 A 
ATOM     15  C   LIG A   1     -11.829   7.510 130.446  0.00  0.00    +0.166 A 
ATOM     16  C   LIG A   1     -10.993   7.565 129.361  0.00  0.00    +0.167 A 
ATOM     17  C   LIG A   1      -9.888   6.747 129.251  0.00  0.00    +0.055 A 
ATOM     18  O   LIG A   1     -11.378   8.495 128.446  0.00  0.00    -0.453 OA
ATOM     19  C   LIG A   1     -12.563   9.016 129.081  0.00  0.00    +0.466 C 
ATOM     20  O   LIG A   1     -12.851   8.402 130.354  0.00  0.00    -0.453 OA
ENDBRANCH   9  12
BRANCH   3  21
ATOM     21  O   LIG A   1      -6.913   7.254 130.975  0.00  0.00    -0.358 OA
ATOM     22  H   LIG A   1      -6.183   7.649 131.488  0.00  0.00    +0.213 HD
ENDBRANCH   3  21
BRANCH   4  23
ATOM     23  C   LIG A   1      -6.620   5.724 133.170  0.00  0.00    +0.040 C 
BRANCH  23  24
ATOM     24  C   LIG A   1      -7.758   5.358 134.088  0.00  0.00    -0.034 C 
ATOM     25  C   LIG A   1      -7.757   5.590 135.407  0.00  0.00    +0.004 C 
ENDBRANCH  23  24
ENDBRANCH   4  23
TORSDOF 4
ENDMDL
MODEL 9
REMARK VINA RESULT:      -6.9      3.359      4.439
REMARK  Name = NuBBE_2317
REMARK  5 active torsions:
REMARK  status: ('A' for Active; 'I' for Inactive)
REMARK    1  A    between atoms: C_3  and  O_26
REMARK    2  A    between atoms: C_4  and  C_23
REMARK    3  A    between atoms: C_8  and  C_22
REMARK    4  A    between atoms: C_10  and  C_13
REMARK    5  A    between atoms: C_23  and  C_24
REMARK                            x       y       z     vdW  Elec       q    Type
REMARK                         _______ _______ _______ _____ _____    ______ ____
ROOT
ATOM      1  C   LIG A   1      -8.833  -2.246 126.246  0.00  0.00    +0.215 C 
ATOM      2  O   LIG A   1      -9.434  -1.942 125.217  0.00  0.00    -0.287 OA
ATOM      3  C   LIG A   1      -7.767  -1.316 126.895  0.00  0.00    +0.239 C 
ATOM      4  C   LIG A   1      -7.186  -1.812 128.246  0.00  0.00    +0.044 C 
ATOM      5  C   LIG A   1      -8.213  -2.717 128.971  0.00  0.00    +0.040 C 
ATOM      6  C   LIG A   1      -8.738  -3.813 128.100  0.00  0.00    -0.022 C 
ATOM      7  C   LIG A   1      -9.053  -3.595 126.822  0.00  0.00    +0.048 C 
ATOM      8  C   LIG A   1      -6.914  -0.489 129.020  0.00  0.00    +0.032 C 
ATOM      9  C   LIG A   1      -7.445   0.642 128.114  0.00  0.00    +0.156 C 
ATOM     10  O   LIG A   1      -8.268  -0.004 127.130  0.00  0.00    -0.334 OA
ATOM     11  C   LIG A   1      -7.528  -0.356 130.420  0.00  0.00    +0.011 C 
ENDROOT
BRANCH   9  12
ATOM     12  C   LIG A   1      -6.378   1.539 127.486  0.00  0.00    -0.015 A 
ATOM     13  C   LIG A   1      -6.657   2.275 126.307  0.00  0.00    +0.010 A 
ATOM     14  C   LIG A   1      -5.694   3.107 125.716  0.00  0.00    +0.050 A 
ATOM     15  C   LIG A   1      -4.461   3.200 126.322  0.00  0.00    +0.166 A 
ATOM     16  C   LIG A   1      -4.187   2.526 127.484  0.00  0.00    +0.167 A 
ATOM     17  C   LIG A   1      -5.121   1.717 128.096  0.00  0.00    +0.055 A 
ATOM     18  O   LIG A   1      -2.925   2.754 127.938  0.00  0.00    -0.453 OA
ATOM     19  C   LIG A   1      -2.433   3.647 126.918  0.00  0.00    +0.466 C 
ATOM     20  O   LIG A   1      -3.405   3.941 125.894  0.00  0.00    -0.453 OA
ENDBRANCH   9  12
BRANCH   3  21
ATOM     21  O   LIG A   1      -6.752  -1.182 125.900  0.00  0.00    -0.358 OA
ATOM     22  H   LIG A   1      -6.949  -0.328 125.471  0.00  0.00    +0.213 HD
ENDBRANCH   3  21
BRANCH   4  23
ATOM     23  C   LIG A   1      -5.846  -2.588 128.008  0.00  0.00    +0.040 C 
BRANCH  23  24
ATOM     24  C   LIG A   1      -4.819  -2.463 129.105  0.00  0.00    -0.034 C 
ATOM     25  C   LIG A   1      -3.715  -3.216 129.183  0.00  0.00    +0.004 C 
ENDBRANCH  23  24
ENDBRANCH   4  23
TORSDOF 4
ENDMDL
