MODEL 1
REMARK VINA RESULT:      -7.3      0.000      0.000
REMARK  Name = NuBBE_290
REMARK  13 active torsions:
REMARK  status: ('A' for Active; 'I' for Inactive)
REMARK    1  A    between atoms: O_1  and  C_2
REMARK    2  A    between atoms: C_3  and  C_4
REMARK    3  A    between atoms: C_4  and  C_5
REMARK    4  A    between atoms: C_5  and  C_6
REMARK    5  A    between atoms: C_6  and  C_7
REMARK    6  A    between atoms: C_6  and  O_8
REMARK    7  A    between atoms: C_6  and  C_9
REMARK    8  A    between atoms: C_9  and  C_10
REMARK    9  A    between atoms: C_10  and  C_11
REMARK   10  A    between atoms: C_12  and  C_13
REMARK   11  A    between atoms: C_12  and  C_14
REMARK   12  A    between atoms: C_17  and  C_18
REMARK   13  A    between atoms: C_18  and  O_19
REMARK                            x       y       z     vdW  Elec       q    Type
REMARK                         _______ _______ _______ _____ _____    ______ ____
ROOT
ATOM      1  C   LIG A   1     -10.233   6.219 131.534  0.00  0.00    +0.169 C 
ATOM      2  O   LIG A   1     -10.547   6.489 132.684  0.00  0.00    -0.292 OA
ENDROOT
BRANCH   1   4
ATOM      3  C   LIG A   1     -12.237   7.527 130.501  0.00  0.00    +0.127 A 
ATOM      4  C   LIG A   1     -10.998   6.884 130.391  0.00  0.00    +0.060 A 
ATOM      5  C   LIG A   1     -10.421   6.866 129.115  0.00  0.00    +0.030 A 
ATOM      6  C   LIG A   1     -11.082   7.496 128.034  0.00  0.00    +0.060 A 
ATOM      7  C   LIG A   1     -12.254   8.232 128.236  0.00  0.00    +0.018 A 
ATOM      8  C   LIG A   1     -12.805   8.292 129.491  0.00  0.00    +0.047 A 
BRANCH   3   9
ATOM      9  O   LIG A   1     -13.090   7.288 131.521  0.00  0.00    -0.506 OA
ATOM     10  H   LIG A   1     -12.773   7.719 132.336  0.00  0.00    +0.292 HD
ENDBRANCH   3   9
BRANCH   6  11
ATOM     11  C   LIG A   1     -10.604   7.323 126.664  0.00  0.00    +0.337 C 
ATOM     12  O   LIG A   1     -10.923   8.028 125.695  0.00  0.00    -0.245 OA
BRANCH  11  13
ATOM     13  O   LIG A   1      -9.743   6.320 126.525  0.00  0.00    -0.477 OA
ATOM     14  H   LIG A   1      -9.569   6.245 125.567  0.00  0.00    +0.295 HD
ENDBRANCH  11  13
ENDBRANCH   6  11
ENDBRANCH   1   4
BRANCH   1  15
ATOM     15  C   LIG A   1      -9.052   5.278 131.254  0.00  0.00    +0.114 C 
BRANCH  15  16
ATOM     16  C   LIG A   1      -9.279   3.750 131.375  0.00  0.00    +0.071 C 
ATOM     17  C   LIG A   1     -10.492   3.328 130.583  0.00  0.00    +0.041 C 
BRANCH  16  18
ATOM     18  O   LIG A   1      -8.164   3.143 130.696  0.00  0.00    -0.388 OA
ATOM     19  H   LIG A   1      -7.357   3.638 130.906  0.00  0.00    +0.210 HD
ENDBRANCH  16  18
BRANCH  16  20
ATOM     20  C   LIG A   1      -9.366   3.246 132.829  0.00  0.00    +0.039 C 
BRANCH  20  21
ATOM     21  C   LIG A   1      -8.128   3.501 133.723  0.00  0.00    +0.030 C 
BRANCH  21  22
ATOM     22  C   LIG A   1      -8.292   4.589 134.755  0.00  0.00    -0.028 C 
ATOM     23  C   LIG A   1      -7.347   5.147 135.542  0.00  0.00    -0.080 C 
ATOM     24  C   LIG A   1      -5.896   4.775 135.581  0.00  0.00    +0.038 C 
ATOM     25  C   LIG A   1      -7.673   6.284 136.465  0.00  0.00    +0.038 C 
ENDBRANCH  21  22
ENDBRANCH  20  21
ENDBRANCH  16  20
ENDBRANCH  15  16
ENDBRANCH   1  15
TORSDOF 10
ENDMDL
MODEL 2
REMARK VINA RESULT:      -7.2      2.167      3.348
REMARK  Name = NuBBE_290
REMARK  13 active torsions:
REMARK  status: ('A' for Active; 'I' for Inactive)
REMARK    1  A    between atoms: O_1  and  C_2
REMARK    2  A    between atoms: C_3  and  C_4
REMARK    3  A    between atoms: C_4  and  C_5
REMARK    4  A    between atoms: C_5  and  C_6
REMARK    5  A    between atoms: C_6  and  C_7
REMARK    6  A    between atoms: C_6  and  O_8
REMARK    7  A    between atoms: C_6  and  C_9
REMARK    8  A    between atoms: C_9  and  C_10
REMARK    9  A    between atoms: C_10  and  C_11
REMARK   10  A    between atoms: C_12  and  C_13
REMARK   11  A    between atoms: C_12  and  C_14
REMARK   12  A    between atoms: C_17  and  C_18
REMARK   13  A    between atoms: C_18  and  O_19
REMARK                            x       y       z     vdW  Elec       q    Type
REMARK                         _______ _______ _______ _____ _____    ______ ____
ROOT
ATOM      1  C   LIG A   1      -9.170   6.634 131.493  0.00  0.00    +0.169 C 
ATOM      2  O   LIG A   1      -9.472   6.297 132.629  0.00  0.00    -0.292 OA
ENDROOT
BRANCH   1   4
ATOM      3  C   LIG A   1     -11.657   6.807 130.732  0.00  0.00    +0.127 A 
ATOM      4  C   LIG A   1     -10.283   6.811 130.461  0.00  0.00    +0.060 A 
ATOM      5  C   LIG A   1      -9.916   7.002 129.124  0.00  0.00    +0.030 A 
ATOM      6  C   LIG A   1     -10.914   7.199 128.140  0.00  0.00    +0.060 A 
ATOM      7  C   LIG A   1     -12.263   7.314 128.495  0.00  0.00    +0.018 A 
ATOM      8  C   LIG A   1     -12.628   7.170 129.809  0.00  0.00    +0.047 A 
BRANCH   3   9
ATOM      9  O   LIG A   1     -12.175   6.247 131.847  0.00  0.00    -0.506 OA
ATOM     10  H   LIG A   1     -13.132   6.096 131.737  0.00  0.00    +0.292 HD
ENDBRANCH   3   9
BRANCH   6  11
ATOM     11  C   LIG A   1     -10.571   7.204 126.720  0.00  0.00    +0.337 C 
ATOM     12  O   LIG A   1     -10.997   8.010 125.879  0.00  0.00    -0.245 OA
BRANCH  11  13
ATOM     13  O   LIG A   1      -9.713   6.248 126.378  0.00  0.00    -0.477 OA
ATOM     14  H   LIG A   1      -8.990   6.696 125.896  0.00  0.00    +0.295 HD
ENDBRANCH  11  13
ENDBRANCH   6  11
ENDBRANCH   1   4
BRANCH   1  15
ATOM     15  C   LIG A   1      -7.705   6.929 131.136  0.00  0.00    +0.114 C 
BRANCH  15  16
ATOM     16  C   LIG A   1      -6.669   5.783 131.257  0.00  0.00    +0.071 C 
ATOM     17  C   LIG A   1      -5.303   6.334 131.586  0.00  0.00    +0.041 C 
BRANCH  16  18
ATOM     18  O   LIG A   1      -7.059   5.037 132.424  0.00  0.00    -0.388 OA
ATOM     19  H   LIG A   1      -6.268   4.819 132.941  0.00  0.00    +0.210 HD
ENDBRANCH  16  18
BRANCH  16  20
ATOM     20  C   LIG A   1      -6.611   4.862 130.021  0.00  0.00    +0.039 C 
BRANCH  20  21
ATOM     21  C   LIG A   1      -7.284   3.475 130.162  0.00  0.00    +0.030 C 
BRANCH  21  22
ATOM     22  C   LIG A   1      -8.773   3.455 129.924  0.00  0.00    -0.028 C 
ATOM     23  C   LIG A   1      -9.754   3.091 130.779  0.00  0.00    -0.080 C 
ATOM     24  C   LIG A   1      -9.565   2.589 132.179  0.00  0.00    +0.038 C 
ATOM     25  C   LIG A   1     -11.201   3.208 130.400  0.00  0.00    +0.038 C 
ENDBRANCH  21  22
ENDBRANCH  20  21
ENDBRANCH  16  20
ENDBRANCH  15  16
ENDBRANCH   1  15
TORSDOF 10
ENDMDL
MODEL 3
REMARK VINA RESULT:      -7.2      1.892      3.513
REMARK  Name = NuBBE_290
REMARK  13 active torsions:
REMARK  status: ('A' for Active; 'I' for Inactive)
REMARK    1  A    between atoms: O_1  and  C_2
REMARK    2  A    between atoms: C_3  and  C_4
REMARK    3  A    between atoms: C_4  and  C_5
REMARK    4  A    between atoms: C_5  and  C_6
REMARK    5  A    between atoms: C_6  and  C_7
REMARK    6  A    between atoms: C_6  and  O_8
REMARK    7  A    between atoms: C_6  and  C_9
REMARK    8  A    between atoms: C_9  and  C_10
REMARK    9  A    between atoms: C_10  and  C_11
REMARK   10  A    between atoms: C_12  and  C_13
REMARK   11  A    between atoms: C_12  and  C_14
REMARK   12  A    between atoms: C_17  and  C_18
REMARK   13  A    between atoms: C_18  and  O_19
REMARK                            x       y       z     vdW  Elec       q    Type
REMARK                         _______ _______ _______ _____ _____    ______ ____
ROOT
ATOM      1  C   LIG A   1     -10.286   6.386 131.513  0.00  0.00    +0.169 C 
ATOM      2  O   LIG A   1     -10.760   6.489 132.635  0.00  0.00    -0.292 OA
ENDROOT
BRANCH   1   4
ATOM      3  C   LIG A   1     -12.327   7.566 130.400  0.00  0.00    +0.127 A 
ATOM      4  C   LIG A   1     -11.056   6.982 130.335  0.00  0.00    +0.060 A 
ATOM      5  C   LIG A   1     -10.450   6.956 129.073  0.00  0.00    +0.030 A 
ATOM      6  C   LIG A   1     -11.116   7.524 127.960  0.00  0.00    +0.060 A 
ATOM      7  C   LIG A   1     -12.326   8.208 128.116  0.00  0.00    +0.018 A 
ATOM      8  C   LIG A   1     -12.907   8.275 129.357  0.00  0.00    +0.047 A 
BRANCH   3   9
ATOM      9  O   LIG A   1     -13.190   7.314 131.408  0.00  0.00    -0.506 OA
ATOM     10  H   LIG A   1     -12.771   7.500 132.268  0.00  0.00    +0.292 HD
ENDBRANCH   3   9
BRANCH   6  11
ATOM     11  C   LIG A   1     -10.598   7.337 126.606  0.00  0.00    +0.337 C 
ATOM     12  O   LIG A   1     -10.869   8.049 125.628  0.00  0.00    -0.245 OA
BRANCH  11  13
ATOM     13  O   LIG A   1      -9.759   6.313 126.496  0.00  0.00    -0.477 OA
ATOM     14  H   LIG A   1      -9.278   6.266 127.345  0.00  0.00    +0.295 HD
ENDBRANCH  11  13
ENDBRANCH   6  11
ENDBRANCH   1   4
BRANCH   1  15
ATOM     15  C   LIG A   1      -8.916   5.722 131.308  0.00  0.00    +0.114 C 
BRANCH  15  16
ATOM     16  C   LIG A   1      -8.811   4.183 131.448  0.00  0.00    +0.071 C 
ATOM     17  C   LIG A   1      -8.238   3.809 132.793  0.00  0.00    +0.041 C 
BRANCH  16  18
ATOM     18  O   LIG A   1     -10.170   3.709 131.480  0.00  0.00    -0.388 OA
ATOM     19  H   LIG A   1     -10.197   2.799 131.146  0.00  0.00    +0.210 HD
ENDBRANCH  16  18
BRANCH  16  20
ATOM     20  C   LIG A   1      -8.029   3.505 130.305  0.00  0.00    +0.039 C 
BRANCH  20  21
ATOM     21  C   LIG A   1      -8.782   2.414 129.506  0.00  0.00    +0.030 C 
BRANCH  21  22
ATOM     22  C   LIG A   1      -8.193   1.029 129.593  0.00  0.00    -0.028 C 
ATOM     23  C   LIG A   1      -8.346   0.113 130.575  0.00  0.00    -0.080 C 
ATOM     24  C   LIG A   1      -9.134   0.293 131.837  0.00  0.00    +0.038 C 
ATOM     25  C   LIG A   1      -7.747  -1.258 130.462  0.00  0.00    +0.038 C 
ENDBRANCH  21  22
ENDBRANCH  20  21
ENDBRANCH  16  20
ENDBRANCH  15  16
ENDBRANCH   1  15
TORSDOF 10
ENDMDL
MODEL 4
REMARK VINA RESULT:      -7.2      2.198      3.864
REMARK  Name = NuBBE_290
REMARK  13 active torsions:
REMARK  status: ('A' for Active; 'I' for Inactive)
REMARK    1  A    between atoms: O_1  and  C_2
REMARK    2  A    between atoms: C_3  and  C_4
REMARK    3  A    between atoms: C_4  and  C_5
REMARK    4  A    between atoms: C_5  and  C_6
REMARK    5  A    between atoms: C_6  and  C_7
REMARK    6  A    between atoms: C_6  and  O_8
REMARK    7  A    between atoms: C_6  and  C_9
REMARK    8  A    between atoms: C_9  and  C_10
REMARK    9  A    between atoms: C_10  and  C_11
REMARK   10  A    between atoms: C_12  and  C_13
REMARK   11  A    between atoms: C_12  and  C_14
REMARK   12  A    between atoms: C_17  and  C_18
REMARK   13  A    between atoms: C_18  and  O_19
REMARK                            x       y       z     vdW  Elec       q    Type
REMARK                         _______ _______ _______ _____ _____    ______ ____
ROOT
ATOM      1  C   LIG A   1     -10.156   6.699 128.871  0.00  0.00    +0.169 C 
ATOM      2  O   LIG A   1      -9.622   6.041 127.990  0.00  0.00    -0.292 OA
ENDROOT
BRANCH   1   4
ATOM      3  C   LIG A   1     -12.277   7.238 127.454  0.00  0.00    +0.127 A 
ATOM      4  C   LIG A   1     -11.418   7.491 128.531  0.00  0.00    +0.060 A 
ATOM      5  C   LIG A   1     -11.765   8.564 129.361  0.00  0.00    +0.030 A 
ATOM      6  C   LIG A   1     -12.942   9.305 129.099  0.00  0.00    +0.060 A 
ATOM      7  C   LIG A   1     -13.826   8.920 128.085  0.00  0.00    +0.018 A 
ATOM      8  C   LIG A   1     -13.515   7.845 127.292  0.00  0.00    +0.047 A 
BRANCH   3   9
ATOM      9  O   LIG A   1     -11.888   6.539 126.364  0.00  0.00    -0.506 OA
ATOM     10  H   LIG A   1     -11.057   6.064 126.546  0.00  0.00    +0.292 HD
ENDBRANCH   3   9
BRANCH   6  11
ATOM     11  C   LIG A   1     -13.222  10.542 129.826  0.00  0.00    +0.337 C 
ATOM     12  O   LIG A   1     -13.337  10.643 131.056  0.00  0.00    -0.245 OA
BRANCH  11  13
ATOM     13  O   LIG A   1     -13.331  11.607 129.038  0.00  0.00    -0.477 OA
ATOM     14  H   LIG A   1     -12.487  12.091 129.123  0.00  0.00    +0.295 HD
ENDBRANCH  11  13
ENDBRANCH   6  11
ENDBRANCH   1   4
BRANCH   1  15
ATOM     15  C   LIG A   1      -9.599   6.676 130.302  0.00  0.00    +0.114 C 
BRANCH  15  16
ATOM     16  C   LIG A   1      -9.999   5.504 131.233  0.00  0.00    +0.071 C 
ATOM     17  C   LIG A   1      -9.928   5.925 132.679  0.00  0.00    +0.041 C 
BRANCH  16  18
ATOM     18  O   LIG A   1     -11.397   5.276 130.980  0.00  0.00    -0.388 OA
ATOM     19  H   LIG A   1     -11.865   5.201 131.827  0.00  0.00    +0.210 HD
ENDBRANCH  16  18
BRANCH  16  20
ATOM     20  C   LIG A   1      -9.189   4.213 130.992  0.00  0.00    +0.039 C 
BRANCH  20  21
ATOM     21  C   LIG A   1      -7.715   4.393 130.559  0.00  0.00    +0.030 C 
BRANCH  21  22
ATOM     22  C   LIG A   1      -6.745   4.679 131.677  0.00  0.00    -0.028 C 
ATOM     23  C   LIG A   1      -6.032   5.805 131.902  0.00  0.00    -0.080 C 
ATOM     24  C   LIG A   1      -6.033   7.037 131.049  0.00  0.00    +0.038 C 
ATOM     25  C   LIG A   1      -5.167   5.949 133.119  0.00  0.00    +0.038 C 
ENDBRANCH  21  22
ENDBRANCH  20  21
ENDBRANCH  16  20
ENDBRANCH  15  16
ENDBRANCH   1  15
TORSDOF 10
ENDMDL
MODEL 5
REMARK VINA RESULT:      -7.2      2.248      3.996
REMARK  Name = NuBBE_290
REMARK  13 active torsions:
REMARK  status: ('A' for Active; 'I' for Inactive)
REMARK    1  A    between atoms: O_1  and  C_2
REMARK    2  A    between atoms: C_3  and  C_4
REMARK    3  A    between atoms: C_4  and  C_5
REMARK    4  A    between atoms: C_5  and  C_6
REMARK    5  A    between atoms: C_6  and  C_7
REMARK    6  A    between atoms: C_6  and  O_8
REMARK    7  A    between atoms: C_6  and  C_9
REMARK    8  A    between atoms: C_9  and  C_10
REMARK    9  A    between atoms: C_10  and  C_11
REMARK   10  A    between atoms: C_12  and  C_13
REMARK   11  A    between atoms: C_12  and  C_14
REMARK   12  A    between atoms: C_17  and  C_18
REMARK   13  A    between atoms: C_18  and  O_19
REMARK                            x       y       z     vdW  Elec       q    Type
REMARK                         _______ _______ _______ _____ _____    ______ ____
ROOT
ATOM      1  C   LIG A   1     -10.238   6.461 128.759  0.00  0.00    +0.169 C 
ATOM      2  O   LIG A   1      -9.462   6.237 127.842  0.00  0.00    -0.292 OA
ENDROOT
BRANCH   1   4
ATOM      3  C   LIG A   1     -12.367   7.145 127.419  0.00  0.00    +0.127 A 
ATOM      4  C   LIG A   1     -11.472   7.319 128.483  0.00  0.00    +0.060 A 
ATOM      5  C   LIG A   1     -11.753   8.370 129.363  0.00  0.00    +0.030 A 
ATOM      6  C   LIG A   1     -12.903   9.171 129.160  0.00  0.00    +0.060 A 
ATOM      7  C   LIG A   1     -13.826   8.864 128.155  0.00  0.00    +0.018 A 
ATOM      8  C   LIG A   1     -13.581   7.810 127.313  0.00  0.00    +0.047 A 
BRANCH   3   9
ATOM      9  O   LIG A   1     -12.035   6.475 126.294  0.00  0.00    -0.506 OA
ATOM     10  H   LIG A   1     -11.079   6.282 126.284  0.00  0.00    +0.292 HD
ENDBRANCH   3   9
BRANCH   6  11
ATOM     11  C   LIG A   1     -13.111  10.388 129.942  0.00  0.00    +0.337 C 
ATOM     12  O   LIG A   1     -13.219  10.441 131.176  0.00  0.00    -0.245 OA
BRANCH  11  13
ATOM     13  O   LIG A   1     -13.161  11.491 129.203  0.00  0.00    -0.477 OA
ATOM     14  H   LIG A   1     -14.021  11.910 129.401  0.00  0.00    +0.295 HD
ENDBRANCH  11  13
ENDBRANCH   6  11
ENDBRANCH   1   4
BRANCH   1  15
ATOM     15  C   LIG A   1     -10.001   5.838 130.144  0.00  0.00    +0.114 C 
BRANCH  15  16
ATOM     16  C   LIG A   1      -8.686   6.173 130.890  0.00  0.00    +0.071 C 
ATOM     17  C   LIG A   1      -7.578   5.245 130.459  0.00  0.00    +0.041 C 
BRANCH  16  18
ATOM     18  O   LIG A   1      -8.292   7.470 130.406  0.00  0.00    -0.388 OA
ATOM     19  H   LIG A   1      -7.804   7.936 131.104  0.00  0.00    +0.210 HD
ENDBRANCH  16  18
BRANCH  16  20
ATOM     20  C   LIG A   1      -8.828   6.190 132.426  0.00  0.00    +0.039 C 
BRANCH  20  21
ATOM     21  C   LIG A   1      -9.492   4.950 133.071  0.00  0.00    +0.030 C 
BRANCH  21  22
ATOM     22  C   LIG A   1      -8.577   3.774 133.300  0.00  0.00    -0.028 C 
ATOM     23  C   LIG A   1      -8.706   2.510 132.842  0.00  0.00    -0.080 C 
ATOM     24  C   LIG A   1      -9.835   1.982 132.009  0.00  0.00    +0.038 C 
ATOM     25  C   LIG A   1      -7.651   1.475 133.101  0.00  0.00    +0.038 C 
ENDBRANCH  21  22
ENDBRANCH  20  21
ENDBRANCH  16  20
ENDBRANCH  15  16
ENDBRANCH   1  15
TORSDOF 10
ENDMDL
MODEL 6
REMARK VINA RESULT:      -7.1      1.778      2.974
REMARK  Name = NuBBE_290
REMARK  13 active torsions:
REMARK  status: ('A' for Active; 'I' for Inactive)
REMARK    1  A    between atoms: O_1  and  C_2
REMARK    2  A    between atoms: C_3  and  C_4
REMARK    3  A    between atoms: C_4  and  C_5
REMARK    4  A    between atoms: C_5  and  C_6
REMARK    5  A    between atoms: C_6  and  C_7
REMARK    6  A    between atoms: C_6  and  O_8
REMARK    7  A    between atoms: C_6  and  C_9
REMARK    8  A    between atoms: C_9  and  C_10
REMARK    9  A    between atoms: C_10  and  C_11
REMARK   10  A    between atoms: C_12  and  C_13
REMARK   11  A    between atoms: C_12  and  C_14
REMARK   12  A    between atoms: C_17  and  C_18
REMARK   13  A    between atoms: C_18  and  O_19
REMARK                            x       y       z     vdW  Elec       q    Type
REMARK                         _______ _______ _______ _____ _____    ______ ____
ROOT
ATOM      1  C   LIG A   1     -10.413   6.241 131.497  0.00  0.00    +0.169 C 
ATOM      2  O   LIG A   1     -10.769   6.498 132.637  0.00  0.00    -0.292 OA
ENDROOT
BRANCH   1   4
ATOM      3  C   LIG A   1     -12.311   7.663 130.416  0.00  0.00    +0.127 A 
ATOM      4  C   LIG A   1     -11.110   6.947 130.335  0.00  0.00    +0.060 A 
ATOM      5  C   LIG A   1     -10.507   6.891 129.073  0.00  0.00    +0.030 A 
ATOM      6  C   LIG A   1     -11.104   7.557 127.976  0.00  0.00    +0.060 A 
ATOM      7  C   LIG A   1     -12.234   8.363 128.151  0.00  0.00    +0.018 A 
ATOM      8  C   LIG A   1     -12.809   8.458 129.392  0.00  0.00    +0.047 A 
BRANCH   3   9
ATOM      9  O   LIG A   1     -13.201   7.478 131.417  0.00  0.00    -0.506 OA
ATOM     10  H   LIG A   1     -12.798   7.707 132.274  0.00  0.00    +0.292 HD
ENDBRANCH   3   9
BRANCH   6  11
ATOM     11  C   LIG A   1     -10.605   7.352 126.618  0.00  0.00    +0.337 C 
ATOM     12  O   LIG A   1     -10.888   8.052 125.634  0.00  0.00    -0.245 OA
BRANCH  11  13
ATOM     13  O   LIG A   1      -9.769   6.325 126.509  0.00  0.00    -0.477 OA
ATOM     14  H   LIG A   1      -8.906   6.706 126.257  0.00  0.00    +0.295 HD
ENDBRANCH  11  13
ENDBRANCH   6  11
ENDBRANCH   1   4
BRANCH   1  15
ATOM     15  C   LIG A   1      -9.247   5.272 131.248  0.00  0.00    +0.114 C 
BRANCH  15  16
ATOM     16  C   LIG A   1      -7.919   5.500 132.013  0.00  0.00    +0.071 C 
ATOM     17  C   LIG A   1      -7.137   6.633 131.395  0.00  0.00    +0.041 C 
BRANCH  16  18
ATOM     18  O   LIG A   1      -8.305   5.983 133.313  0.00  0.00    -0.388 OA
ATOM     19  H   LIG A   1      -9.258   5.846 133.432  0.00  0.00    +0.210 HD
ENDBRANCH  16  18
BRANCH  16  20
ATOM     20  C   LIG A   1      -7.049   4.234 132.143  0.00  0.00    +0.039 C 
BRANCH  20  21
ATOM     21  C   LIG A   1      -7.443   3.237 133.260  0.00  0.00    +0.030 C 
BRANCH  21  22
ATOM     22  C   LIG A   1      -7.560   1.798 132.826  0.00  0.00    -0.028 C 
ATOM     23  C   LIG A   1      -8.623   1.173 132.273  0.00  0.00    -0.080 C 
ATOM     24  C   LIG A   1      -9.960   1.786 131.989  0.00  0.00    +0.038 C 
ATOM     25  C   LIG A   1      -8.540  -0.257 131.825  0.00  0.00    +0.038 C 
ENDBRANCH  21  22
ENDBRANCH  20  21
ENDBRANCH  16  20
ENDBRANCH  15  16
ENDBRANCH   1  15
TORSDOF 10
ENDMDL
MODEL 7
REMARK VINA RESULT:      -7.0      2.799      3.580
REMARK  Name = NuBBE_290
REMARK  13 active torsions:
REMARK  status: ('A' for Active; 'I' for Inactive)
REMARK    1  A    between atoms: O_1  and  C_2
REMARK    2  A    between atoms: C_3  and  C_4
REMARK    3  A    between atoms: C_4  and  C_5
REMARK    4  A    between atoms: C_5  and  C_6
REMARK    5  A    between atoms: C_6  and  C_7
REMARK    6  A    between atoms: C_6  and  O_8
REMARK    7  A    between atoms: C_6  and  C_9
REMARK    8  A    between atoms: C_9  and  C_10
REMARK    9  A    between atoms: C_10  and  C_11
REMARK   10  A    between atoms: C_12  and  C_13
REMARK   11  A    between atoms: C_12  and  C_14
REMARK   12  A    between atoms: C_17  and  C_18
REMARK   13  A    between atoms: C_18  and  O_19
REMARK                            x       y       z     vdW  Elec       q    Type
REMARK                         _______ _______ _______ _____ _____    ______ ____
ROOT
ATOM      1  C   LIG A   1      -9.958   6.072 131.412  0.00  0.00    +0.169 C 
ATOM      2  O   LIG A   1     -10.017   6.498 132.555  0.00  0.00    -0.292 OA
ENDROOT
BRANCH   1   4
ATOM      3  C   LIG A   1     -12.036   7.373 130.524  0.00  0.00    +0.127 A 
ATOM      4  C   LIG A   1     -10.792   6.759 130.330  0.00  0.00    +0.060 A 
ATOM      5  C   LIG A   1     -10.279   6.794 129.028  0.00  0.00    +0.030 A 
ATOM      6  C   LIG A   1     -11.005   7.447 128.003  0.00  0.00    +0.060 A 
ATOM      7  C   LIG A   1     -12.179   8.153 128.288  0.00  0.00    +0.018 A 
ATOM      8  C   LIG A   1     -12.667   8.159 129.569  0.00  0.00    +0.047 A 
BRANCH   3   9
ATOM      9  O   LIG A   1     -12.832   7.083 131.576  0.00  0.00    -0.506 OA
ATOM     10  H   LIG A   1     -12.892   7.849 132.176  0.00  0.00    +0.292 HD
ENDBRANCH   3   9
BRANCH   6  11
ATOM     11  C   LIG A   1     -10.593   7.329 126.606  0.00  0.00    +0.337 C 
ATOM     12  O   LIG A   1     -10.958   8.071 125.682  0.00  0.00    -0.245 OA
BRANCH  11  13
ATOM     13  O   LIG A   1      -9.739   6.333 126.387  0.00  0.00    -0.477 OA
ATOM     14  H   LIG A   1      -8.849   6.703 126.542  0.00  0.00    +0.295 HD
ENDBRANCH  11  13
ENDBRANCH   6  11
ENDBRANCH   1   4
BRANCH   1  15
ATOM     15  C   LIG A   1      -9.018   4.907 131.065  0.00  0.00    +0.114 C 
BRANCH  15  16
ATOM     16  C   LIG A   1      -7.530   5.221 130.769  0.00  0.00    +0.071 C 
ATOM     17  C   LIG A   1      -6.632   4.196 131.416  0.00  0.00    +0.041 C 
BRANCH  16  18
ATOM     18  O   LIG A   1      -7.370   5.014 129.354  0.00  0.00    -0.388 OA
ATOM     19  H   LIG A   1      -8.204   4.683 128.985  0.00  0.00    +0.210 HD
ENDBRANCH  16  18
BRANCH  16  20
ATOM     20  C   LIG A   1      -7.106   6.652 131.157  0.00  0.00    +0.039 C 
BRANCH  20  21
ATOM     21  C   LIG A   1      -5.609   6.861 131.493  0.00  0.00    +0.030 C 
BRANCH  21  22
ATOM     22  C   LIG A   1      -4.742   7.282 130.334  0.00  0.00    -0.028 C 
ATOM     23  C   LIG A   1      -3.792   6.566 129.694  0.00  0.00    -0.080 C 
ATOM     24  C   LIG A   1      -3.365   5.168 130.026  0.00  0.00    +0.038 C 
ATOM     25  C   LIG A   1      -3.073   7.118 128.498  0.00  0.00    +0.038 C 
ENDBRANCH  21  22
ENDBRANCH  20  21
ENDBRANCH  16  20
ENDBRANCH  15  16
ENDBRANCH   1  15
TORSDOF 10
ENDMDL
MODEL 8
REMARK VINA RESULT:      -7.0      8.504     10.421
REMARK  Name = NuBBE_290
REMARK  13 active torsions:
REMARK  status: ('A' for Active; 'I' for Inactive)
REMARK    1  A    between atoms: O_1  and  C_2
REMARK    2  A    between atoms: C_3  and  C_4
REMARK    3  A    between atoms: C_4  and  C_5
REMARK    4  A    between atoms: C_5  and  C_6
REMARK    5  A    between atoms: C_6  and  C_7
REMARK    6  A    between atoms: C_6  and  O_8
REMARK    7  A    between atoms: C_6  and  C_9
REMARK    8  A    between atoms: C_9  and  C_10
REMARK    9  A    between atoms: C_10  and  C_11
REMARK   10  A    between atoms: C_12  and  C_13
REMARK   11  A    between atoms: C_12  and  C_14
REMARK   12  A    between atoms: C_17  and  C_18
REMARK   13  A    between atoms: C_18  and  O_19
REMARK                            x       y       z     vdW  Elec       q    Type
REMARK                         _______ _______ _______ _____ _____    ______ ____
ROOT
ATOM      1  C   LIG A   1      -8.935   2.670 123.892  0.00  0.00    +0.169 C 
ATOM      2  O   LIG A   1      -9.036   3.325 124.919  0.00  0.00    -0.292 OA
ENDROOT
BRANCH   1   4
ATOM      3  C   LIG A   1      -6.625   3.418 122.942  0.00  0.00    +0.127 A 
ATOM      4  C   LIG A   1      -7.996   3.169 122.794  0.00  0.00    +0.060 A 
ATOM      5  C   LIG A   1      -8.532   3.395 121.521  0.00  0.00    +0.030 A 
ATOM      6  C   LIG A   1      -7.691   3.828 120.469  0.00  0.00    +0.060 A 
ATOM      7  C   LIG A   1      -6.308   3.934 120.649  0.00  0.00    +0.018 A 
ATOM      8  C   LIG A   1      -5.767   3.674 121.882  0.00  0.00    +0.047 A 
BRANCH   3   9
ATOM      9  O   LIG A   1      -6.054   3.642 124.146  0.00  0.00    -0.506 OA
ATOM     10  H   LIG A   1      -5.175   3.224 124.187  0.00  0.00    +0.292 HD
ENDBRANCH   3   9
BRANCH   6  11
ATOM     11  C   LIG A   1      -8.255   4.257 119.191  0.00  0.00    +0.337 C 
ATOM     12  O   LIG A   1      -9.464   4.309 118.919  0.00  0.00    -0.245 OA
BRANCH  11  13
ATOM     13  O   LIG A   1      -7.338   4.626 118.302  0.00  0.00    -0.477 OA
ATOM     14  H   LIG A   1      -6.962   3.799 117.944  0.00  0.00    +0.295 HD
ENDBRANCH  11  13
ENDBRANCH   6  11
ENDBRANCH   1   4
BRANCH   1  15
ATOM     15  C   LIG A   1      -9.695   1.344 123.740  0.00  0.00    +0.114 C 
BRANCH  15  16
ATOM     16  C   LIG A   1      -9.012   0.041 124.228  0.00  0.00    +0.071 C 
ATOM     17  C   LIG A   1      -7.669   0.343 124.846  0.00  0.00    +0.041 C 
BRANCH  16  18
ATOM     18  O   LIG A   1      -9.825  -0.430 125.319  0.00  0.00    -0.388 OA
ATOM     19  H   LIG A   1     -10.759  -0.273 125.110  0.00  0.00    +0.210 HD
ENDBRANCH  16  18
BRANCH  16  20
ATOM     20  C   LIG A   1      -8.889  -1.043 123.138  0.00  0.00    +0.039 C 
BRANCH  20  21
ATOM     21  C   LIG A   1      -8.953  -2.514 123.618  0.00  0.00    +0.030 C 
BRANCH  21  22
ATOM     22  C   LIG A   1      -7.645  -3.094 124.093  0.00  0.00    -0.028 C 
ATOM     23  C   LIG A   1      -6.407  -2.894 123.590  0.00  0.00    -0.080 C 
ATOM     24  C   LIG A   1      -6.062  -2.049 122.401  0.00  0.00    +0.038 C 
ATOM     25  C   LIG A   1      -5.195  -3.493 124.241  0.00  0.00    +0.038 C 
ENDBRANCH  21  22
ENDBRANCH  20  21
ENDBRANCH  16  20
ENDBRANCH  15  16
ENDBRANCH   1  15
TORSDOF 10
ENDMDL
MODEL 9
REMARK VINA RESULT:      -6.9      2.225      4.749
REMARK  Name = NuBBE_290
REMARK  13 active torsions:
REMARK  status: ('A' for Active; 'I' for Inactive)
REMARK    1  A    between atoms: O_1  and  C_2
REMARK    2  A    between atoms: C_3  and  C_4
REMARK    3  A    between atoms: C_4  and  C_5
REMARK    4  A    between atoms: C_5  and  C_6
REMARK    5  A    between atoms: C_6  and  C_7
REMARK    6  A    between atoms: C_6  and  O_8
REMARK    7  A    between atoms: C_6  and  C_9
REMARK    8  A    between atoms: C_9  and  C_10
REMARK    9  A    between atoms: C_10  and  C_11
REMARK   10  A    between atoms: C_12  and  C_13
REMARK   11  A    between atoms: C_12  and  C_14
REMARK   12  A    between atoms: C_17  and  C_18
REMARK   13  A    between atoms: C_18  and  O_19
REMARK                            x       y       z     vdW  Elec       q    Type
REMARK                         _______ _______ _______ _____ _____    ______ ____
ROOT
ATOM      1  C   LIG A   1     -10.035   6.830 128.988  0.00  0.00    +0.169 C 
ATOM      2  O   LIG A   1      -9.507   6.055 128.204  0.00  0.00    -0.292 OA
ENDROOT
BRANCH   1   4
ATOM      3  C   LIG A   1     -12.121   7.185 127.464  0.00  0.00    +0.127 A 
ATOM      4  C   LIG A   1     -11.331   7.524 128.571  0.00  0.00    +0.060 A 
ATOM      5  C   LIG A   1     -11.790   8.589 129.355  0.00  0.00    +0.030 A 
ATOM      6  C   LIG A   1     -13.001   9.240 129.021  0.00  0.00    +0.060 A 
ATOM      7  C   LIG A   1     -13.809   8.769 127.980  0.00  0.00    +0.018 A 
ATOM      8  C   LIG A   1     -13.389   7.699 127.232  0.00  0.00    +0.047 A 
BRANCH   3   9
ATOM      9  O   LIG A   1     -11.635   6.489 126.413  0.00  0.00    -0.506 OA
ATOM     10  H   LIG A   1     -11.702   7.018 125.597  0.00  0.00    +0.292 HD
ENDBRANCH   3   9
BRANCH   6  11
ATOM     11  C   LIG A   1     -13.399  10.471 129.701  0.00  0.00    +0.337 C 
ATOM     12  O   LIG A   1     -13.887  11.470 129.153  0.00  0.00    -0.245 OA
BRANCH  11  13
ATOM     13  O   LIG A   1     -13.211  10.435 131.016  0.00  0.00    -0.477 OA
ATOM     14  H   LIG A   1     -13.829  11.090 131.395  0.00  0.00    +0.295 HD
ENDBRANCH  11  13
ENDBRANCH   6  11
ENDBRANCH   1   4
BRANCH   1  15
ATOM     15  C   LIG A   1      -9.433   7.052 130.384  0.00  0.00    +0.114 C 
BRANCH  15  16
ATOM     16  C   LIG A   1      -9.846   6.091 131.528  0.00  0.00    +0.071 C 
ATOM     17  C   LIG A   1      -8.750   5.991 132.560  0.00  0.00    +0.041 C 
BRANCH  16  18
ATOM     18  O   LIG A   1     -10.933   6.748 132.204  0.00  0.00    -0.388 OA
ATOM     19  H   LIG A   1     -10.592   7.525 132.675  0.00  0.00    +0.210 HD
ENDBRANCH  16  18
BRANCH  16  20
ATOM     20  C   LIG A   1     -10.278   4.693 131.042  0.00  0.00    +0.039 C 
BRANCH  20  21
ATOM     21  C   LIG A   1      -9.171   3.612 130.978  0.00  0.00    +0.030 C 
BRANCH  21  22
ATOM     22  C   LIG A   1      -9.217   2.714 129.768  0.00  0.00    -0.028 C 
ATOM     23  C   LIG A   1      -8.324   2.622 128.758  0.00  0.00    -0.080 C 
ATOM     24  C   LIG A   1      -7.074   3.435 128.606  0.00  0.00    +0.038 C 
ATOM     25  C   LIG A   1      -8.487   1.609 127.664  0.00  0.00    +0.038 C 
ENDBRANCH  21  22
ENDBRANCH  20  21
ENDBRANCH  16  20
ENDBRANCH  15  16
ENDBRANCH   1  15
TORSDOF 10
ENDMDL
