MODEL 1
REMARK VINA RESULT:      -8.3      0.000      0.000
REMARK  Name = NuBBE_1579
REMARK  3 active torsions:
REMARK  status: ('A' for Active; 'I' for Inactive)
REMARK    1  A    between atoms: C_2  and  C_24
REMARK    2  A    between atoms: C_15  and  C_16
REMARK    3  A    between atoms: C_21  and  O_22
REMARK                            x       y       z     vdW  Elec       q    Type
REMARK                         _______ _______ _______ _____ _____    ______ ____
ROOT
ATOM      1  O   LIG A   1      -9.124   3.279 124.546  0.00  0.00    -0.276 OA
ATOM      2  C   LIG A   1      -9.329   2.065 124.500  0.00  0.00    +0.217 C 
ATOM      3  N   LIG A   1      -8.389   1.105 124.822  0.00  0.00    -0.264 N 
ATOM      4  C   LIG A   1      -8.548  -0.373 124.660  0.00  0.00    +0.095 C 
ATOM      5  C   LIG A   1      -7.471  -1.013 125.591  0.00  0.00    +0.037 C 
ATOM      6  C   LIG A   1      -6.931  -2.383 125.136  0.00  0.00    +0.095 C 
ATOM      7  C   LIG A   1      -6.750  -2.468 123.645  0.00  0.00    -0.053 C 
ATOM      8  C   LIG A   1      -8.061  -2.235 122.943  0.00  0.00    +0.019 C 
ATOM      9  C   LIG A   1      -9.146  -3.193 123.477  0.00  0.00    +0.023 C 
ATOM     10  C   LIG A   1      -8.650  -4.091 124.619  0.00  0.00    +0.085 C 
ATOM     11  N   LIG A   1      -7.906  -3.372 125.655  0.00  0.00    -0.295 NA
ATOM     12  C   LIG A   1      -8.755  -2.719 126.657  0.00  0.00    +0.086 C 
ATOM     13  C   LIG A   1      -8.086  -1.383 126.947  0.00  0.00    +0.030 C 
ATOM     14  C   LIG A   1      -8.414  -0.759 123.168  0.00  0.00    +0.031 C 
ATOM     15  C   LIG A   1      -5.609  -2.707 122.970  0.00  0.00    -0.029 C 
ATOM     16  C   LIG A   1      -4.244  -2.946 123.532  0.00  0.00    +0.035 C 
ATOM     17  C   LIG A   1      -6.495   0.126 125.717  0.00  0.00    -0.013 A 
ATOM     18  C   LIG A   1      -5.202   0.068 126.232  0.00  0.00    +0.006 A 
ATOM     19  C   LIG A   1      -4.466   1.246 126.334  0.00  0.00    +0.004 A 
ATOM     20  C   LIG A   1      -5.029   2.461 125.937  0.00  0.00    +0.047 A 
ATOM     21  C   LIG A   1      -6.332   2.518 125.433  0.00  0.00    +0.139 A 
ATOM     22  C   LIG A   1      -7.071   1.344 125.308  0.00  0.00    +0.082 A 
ATOM     23  C   LIG A   1     -10.698   1.577 124.089  0.00  0.00    +0.110 C 
ENDROOT
BRANCH  21  24
ATOM     24  O   LIG A   1      -6.752   3.764 125.078  0.00  0.00    -0.505 OA
ATOM     25  H   LIG A   1      -6.692   4.346 125.867  0.00  0.00    +0.292 HD
ENDBRANCH  21  24
TORSDOF 1
ENDMDL
MODEL 2
REMARK VINA RESULT:      -8.0      2.142      2.836
REMARK  Name = NuBBE_1579
REMARK  3 active torsions:
REMARK  status: ('A' for Active; 'I' for Inactive)
REMARK    1  A    between atoms: C_2  and  C_24
REMARK    2  A    between atoms: C_15  and  C_16
REMARK    3  A    between atoms: C_21  and  O_22
REMARK                            x       y       z     vdW  Elec       q    Type
REMARK                         _______ _______ _______ _____ _____    ______ ____
ROOT
ATOM      1  O   LIG A   1      -6.708   2.270 127.944  0.00  0.00    -0.276 OA
ATOM      2  C   LIG A   1      -7.251   1.597 127.066  0.00  0.00    +0.217 C 
ATOM      3  N   LIG A   1      -6.989   0.260 126.839  0.00  0.00    -0.264 N 
ATOM      4  C   LIG A   1      -7.524  -0.563 125.710  0.00  0.00    +0.095 C 
ATOM      5  C   LIG A   1      -7.359  -2.048 126.161  0.00  0.00    +0.037 C 
ATOM      6  C   LIG A   1      -7.154  -3.068 125.024  0.00  0.00    +0.095 C 
ATOM      7  C   LIG A   1      -6.276  -2.538 123.923  0.00  0.00    -0.053 C 
ATOM      8  C   LIG A   1      -6.878  -1.296 123.322  0.00  0.00    +0.019 C 
ATOM      9  C   LIG A   1      -8.330  -1.556 122.869  0.00  0.00    +0.023 C 
ATOM     10  C   LIG A   1      -8.819  -2.975 123.192  0.00  0.00    +0.085 C 
ATOM     11  N   LIG A   1      -8.521  -3.405 124.559  0.00  0.00    -0.295 NA
ATOM     12  C   LIG A   1      -9.488  -2.940 125.557  0.00  0.00    +0.086 C 
ATOM     13  C   LIG A   1      -8.662  -2.568 126.781  0.00  0.00    +0.030 C 
ATOM     14  C   LIG A   1      -6.783  -0.207 124.398  0.00  0.00    +0.031 C 
ATOM     15  C   LIG A   1      -5.106  -3.047 123.490  0.00  0.00    -0.029 C 
ATOM     16  C   LIG A   1      -4.391  -4.260 123.996  0.00  0.00    +0.035 C 
ATOM     17  C   LIG A   1      -6.271  -1.910 127.193  0.00  0.00    -0.013 A 
ATOM     18  C   LIG A   1      -5.529  -2.937 127.771  0.00  0.00    +0.006 A 
ATOM     19  C   LIG A   1      -4.606  -2.623 128.765  0.00  0.00    +0.004 A 
ATOM     20  C   LIG A   1      -4.446  -1.298 129.179  0.00  0.00    +0.047 A 
ATOM     21  C   LIG A   1      -5.201  -0.271 128.606  0.00  0.00    +0.139 A 
ATOM     22  C   LIG A   1      -6.114  -0.571 127.597  0.00  0.00    +0.082 A 
ATOM     23  C   LIG A   1      -8.287   2.255 126.186  0.00  0.00    +0.110 C 
ENDROOT
BRANCH  21  24
ATOM     24  O   LIG A   1      -4.939   0.972 129.098  0.00  0.00    -0.505 OA
ATOM     25  H   LIG A   1      -5.180   1.632 128.413  0.00  0.00    +0.292 HD
ENDBRANCH  21  24
TORSDOF 1
ENDMDL
MODEL 3
REMARK VINA RESULT:      -7.5      2.612      4.021
REMARK  Name = NuBBE_1579
REMARK  3 active torsions:
REMARK  status: ('A' for Active; 'I' for Inactive)
REMARK    1  A    between atoms: C_2  and  C_24
REMARK    2  A    between atoms: C_15  and  C_16
REMARK    3  A    between atoms: C_21  and  O_22
REMARK                            x       y       z     vdW  Elec       q    Type
REMARK                         _______ _______ _______ _____ _____    ______ ____
ROOT
ATOM      1  O   LIG A   1      -7.731  -2.297 129.661  0.00  0.00    -0.276 OA
ATOM      2  C   LIG A   1      -7.869  -2.536 128.460  0.00  0.00    +0.217 C 
ATOM      3  N   LIG A   1      -7.346  -1.753 127.448  0.00  0.00    -0.264 N 
ATOM      4  C   LIG A   1      -7.593  -1.929 125.983  0.00  0.00    +0.095 C 
ATOM      5  C   LIG A   1      -6.437  -1.160 125.270  0.00  0.00    +0.037 C 
ATOM      6  C   LIG A   1      -6.782  -0.579 123.885  0.00  0.00    +0.095 C 
ATOM      7  C   LIG A   1      -8.177  -0.019 123.823  0.00  0.00    -0.053 C 
ATOM      8  C   LIG A   1      -9.187  -1.090 124.136  0.00  0.00    +0.019 C 
ATOM      9  C   LIG A   1      -8.985  -2.318 123.222  0.00  0.00    +0.023 C 
ATOM     10  C   LIG A   1      -7.784  -2.175 122.277  0.00  0.00    +0.085 C 
ATOM     11  N   LIG A   1      -6.568  -1.697 122.935  0.00  0.00    -0.295 NA
ATOM     12  C   LIG A   1      -5.799  -2.748 123.608  0.00  0.00    +0.086 C 
ATOM     13  C   LIG A   1      -5.300  -2.122 124.903  0.00  0.00    +0.030 C 
ATOM     14  C   LIG A   1      -9.012  -1.427 125.622  0.00  0.00    +0.031 C 
ATOM     15  C   LIG A   1      -8.541   1.247 123.541  0.00  0.00    -0.029 C 
ATOM     16  C   LIG A   1      -7.652   2.406 123.223  0.00  0.00    +0.035 C 
ATOM     17  C   LIG A   1      -6.024  -0.202 126.356  0.00  0.00    -0.013 A 
ATOM     18  C   LIG A   1      -5.194   0.909 126.223  0.00  0.00    +0.006 A 
ATOM     19  C   LIG A   1      -4.865   1.642 127.360  0.00  0.00    +0.004 A 
ATOM     20  C   LIG A   1      -5.354   1.254 128.610  0.00  0.00    +0.047 A 
ATOM     21  C   LIG A   1      -6.176   0.132 128.742  0.00  0.00    +0.139 A 
ATOM     22  C   LIG A   1      -6.528  -0.599 127.610  0.00  0.00    +0.082 A 
ATOM     23  C   LIG A   1      -8.637  -3.769 128.050  0.00  0.00    +0.110 C 
ENDROOT
BRANCH  21  24
ATOM     24  O   LIG A   1      -6.586  -0.128 130.015  0.00  0.00    -0.505 OA
ATOM     25  H   LIG A   1      -7.466   0.287 130.147  0.00  0.00    +0.292 HD
ENDBRANCH  21  24
TORSDOF 1
ENDMDL
MODEL 4
REMARK VINA RESULT:      -7.4      2.796      5.650
REMARK  Name = NuBBE_1579
REMARK  3 active torsions:
REMARK  status: ('A' for Active; 'I' for Inactive)
REMARK    1  A    between atoms: C_2  and  C_24
REMARK    2  A    between atoms: C_15  and  C_16
REMARK    3  A    between atoms: C_21  and  O_22
REMARK                            x       y       z     vdW  Elec       q    Type
REMARK                         _______ _______ _______ _____ _____    ______ ____
ROOT
ATOM      1  O   LIG A   1      -9.761  -1.489 123.581  0.00  0.00    -0.276 OA
ATOM      2  C   LIG A   1      -9.085  -0.577 124.059  0.00  0.00    +0.217 C 
ATOM      3  N   LIG A   1      -8.512  -0.611 125.315  0.00  0.00    -0.264 N 
ATOM      4  C   LIG A   1      -7.794   0.517 125.986  0.00  0.00    +0.095 C 
ATOM      5  C   LIG A   1      -6.938  -0.145 127.112  0.00  0.00    +0.037 C 
ATOM      6  C   LIG A   1      -6.673   0.735 128.348  0.00  0.00    +0.095 C 
ATOM      7  C   LIG A   1      -7.867   1.566 128.734  0.00  0.00    -0.053 C 
ATOM      8  C   LIG A   1      -8.263   2.474 127.600  0.00  0.00    +0.019 C 
ATOM      9  C   LIG A   1      -7.060   3.321 127.131  0.00  0.00    +0.023 C 
ATOM     10  C   LIG A   1      -5.761   2.990 127.879  0.00  0.00    +0.085 C 
ATOM     11  N   LIG A   1      -5.492   1.557 127.990  0.00  0.00    -0.295 NA
ATOM     12  C   LIG A   1      -4.852   0.974 126.807  0.00  0.00    +0.086 C 
ATOM     13  C   LIG A   1      -5.505  -0.389 126.622  0.00  0.00    +0.030 C 
ATOM     14  C   LIG A   1      -8.812   1.567 126.492  0.00  0.00    +0.031 C 
ATOM     15  C   LIG A   1      -8.537   1.547 129.902  0.00  0.00    -0.029 C 
ATOM     16  C   LIG A   1      -8.263   0.698 131.101  0.00  0.00    +0.035 C 
ATOM     17  C   LIG A   1      -7.684  -1.438 127.310  0.00  0.00    -0.013 A 
ATOM     18  C   LIG A   1      -7.531  -2.341 128.359  0.00  0.00    +0.006 A 
ATOM     19  C   LIG A   1      -8.263  -3.525 128.338  0.00  0.00    +0.004 A 
ATOM     20  C   LIG A   1      -9.122  -3.800 127.271  0.00  0.00    +0.047 A 
ATOM     21  C   LIG A   1      -9.263  -2.897 126.213  0.00  0.00    +0.139 A 
ATOM     22  C   LIG A   1      -8.551  -1.701 126.232  0.00  0.00    +0.082 A 
ATOM     23  C   LIG A   1      -8.837   0.656 123.222  0.00  0.00    +0.110 C 
ENDROOT
BRANCH  21  24
ATOM     24  O   LIG A   1     -10.138  -3.287 125.244  0.00  0.00    -0.505 OA
ATOM     25  H   LIG A   1     -10.095  -4.265 125.166  0.00  0.00    +0.292 HD
ENDBRANCH  21  24
TORSDOF 1
ENDMDL
MODEL 5
REMARK VINA RESULT:      -7.3      6.750      8.855
REMARK  Name = NuBBE_1579
REMARK  3 active torsions:
REMARK  status: ('A' for Active; 'I' for Inactive)
REMARK    1  A    between atoms: C_2  and  C_24
REMARK    2  A    between atoms: C_15  and  C_16
REMARK    3  A    between atoms: C_21  and  O_22
REMARK                            x       y       z     vdW  Elec       q    Type
REMARK                         _______ _______ _______ _____ _____    ______ ____
ROOT
ATOM      1  O   LIG A   1      -8.445   5.119 127.177  0.00  0.00    -0.276 OA
ATOM      2  C   LIG A   1      -8.031   4.326 128.025  0.00  0.00    +0.217 C 
ATOM      3  N   LIG A   1      -8.405   4.345 129.354  0.00  0.00    -0.264 N 
ATOM      4  C   LIG A   1      -7.836   3.490 130.441  0.00  0.00    +0.095 C 
ATOM      5  C   LIG A   1      -8.887   3.525 131.594  0.00  0.00    +0.037 C 
ATOM      6  C   LIG A   1      -8.319   3.359 133.016  0.00  0.00    +0.095 C 
ATOM      7  C   LIG A   1      -7.008   4.074 133.203  0.00  0.00    -0.053 C 
ATOM      8  C   LIG A   1      -5.982   3.551 132.235  0.00  0.00    +0.019 C 
ATOM      9  C   LIG A   1      -5.856   2.017 132.345  0.00  0.00    +0.023 C 
ATOM     10  C   LIG A   1      -6.838   1.402 133.353  0.00  0.00    +0.085 C 
ATOM     11  N   LIG A   1      -8.209   1.894 133.218  0.00  0.00    -0.295 NA
ATOM     12  C   LIG A   1      -8.989   1.214 132.180  0.00  0.00    +0.086 C 
ATOM     13  C   LIG A   1      -9.814   2.305 131.511  0.00  0.00    +0.030 C 
ATOM     14  C   LIG A   1      -6.433   4.007 130.841  0.00  0.00    +0.031 C 
ATOM     15  C   LIG A   1      -6.727   5.054 134.085  0.00  0.00    -0.029 C 
ATOM     16  C   LIG A   1      -7.644   5.672 135.091  0.00  0.00    +0.035 C 
ATOM     17  C   LIG A   1      -9.620   4.800 131.269  0.00  0.00    -0.013 A 
ATOM     18  C   LIG A   1     -10.514   5.485 132.088  0.00  0.00    +0.006 A 
ATOM     19  C   LIG A   1     -11.151   6.617 131.588  0.00  0.00    +0.004 A 
ATOM     20  C   LIG A   1     -10.902   7.042 130.281  0.00  0.00    +0.047 A 
ATOM     21  C   LIG A   1     -10.014   6.345 129.456  0.00  0.00    +0.139 A 
ATOM     22  C   LIG A   1      -9.355   5.222 129.952  0.00  0.00    +0.082 A 
ATOM     23  C   LIG A   1      -7.069   3.244 127.595  0.00  0.00    +0.110 C 
ENDROOT
BRANCH  21  24
ATOM     24  O   LIG A   1      -9.859   6.873 128.210  0.00  0.00    -0.505 OA
ATOM     25  H   LIG A   1     -10.748   7.097 127.858  0.00  0.00    +0.292 HD
ENDBRANCH  21  24
TORSDOF 1
ENDMDL
MODEL 6
REMARK VINA RESULT:      -7.3      2.886      4.844
REMARK  Name = NuBBE_1579
REMARK  3 active torsions:
REMARK  status: ('A' for Active; 'I' for Inactive)
REMARK    1  A    between atoms: C_2  and  C_24
REMARK    2  A    between atoms: C_15  and  C_16
REMARK    3  A    between atoms: C_21  and  O_22
REMARK                            x       y       z     vdW  Elec       q    Type
REMARK                         _______ _______ _______ _____ _____    ______ ____
ROOT
ATOM      1  O   LIG A   1      -7.307   0.522 130.783  0.00  0.00    -0.276 OA
ATOM      2  C   LIG A   1      -7.309   0.925 129.618  0.00  0.00    +0.217 C 
ATOM      3  N   LIG A   1      -7.551   0.123 128.520  0.00  0.00    -0.264 N 
ATOM      4  C   LIG A   1      -7.439   0.536 127.087  0.00  0.00    +0.095 C 
ATOM      5  C   LIG A   1      -8.264  -0.518 126.283  0.00  0.00    +0.037 C 
ATOM      6  C   LIG A   1      -7.785  -0.777 124.842  0.00  0.00    +0.095 C 
ATOM      7  C   LIG A   1      -6.284  -0.780 124.722  0.00  0.00    -0.053 C 
ATOM      8  C   LIG A   1      -5.720   0.544 125.163  0.00  0.00    +0.019 C 
ATOM      9  C   LIG A   1      -6.387   1.706 124.397  0.00  0.00    +0.023 C 
ATOM     10  C   LIG A   1      -7.490   1.241 123.435  0.00  0.00    +0.085 C 
ATOM     11  N   LIG A   1      -8.425   0.284 124.027  0.00  0.00    -0.295 NA
ATOM     12  C   LIG A   1      -9.496   0.902 124.814  0.00  0.00    +0.086 C 
ATOM     13  C   LIG A   1      -9.685  -0.002 126.024  0.00  0.00    +0.030 C 
ATOM     14  C   LIG A   1      -5.949   0.628 126.677  0.00  0.00    +0.031 C 
ATOM     15  C   LIG A   1      -5.498  -1.788 124.297  0.00  0.00    -0.029 C 
ATOM     16  C   LIG A   1      -5.918  -3.148 123.842  0.00  0.00    +0.035 C 
ATOM     17  C   LIG A   1      -8.261  -1.674 127.249  0.00  0.00    -0.013 A 
ATOM     18  C   LIG A   1      -8.637  -2.988 126.983  0.00  0.00    +0.006 A 
ATOM     19  C   LIG A   1      -8.635  -3.911 128.025  0.00  0.00    +0.004 A 
ATOM     20  C   LIG A   1      -8.274  -3.512 129.314  0.00  0.00    +0.047 A 
ATOM     21  C   LIG A   1      -7.909  -2.189 129.581  0.00  0.00    +0.139 A 
ATOM     22  C   LIG A   1      -7.889  -1.261 128.542  0.00  0.00    +0.082 A 
ATOM     23  C   LIG A   1      -7.056   2.391 129.358  0.00  0.00    +0.110 C 
ENDROOT
BRANCH  21  24
ATOM     24  O   LIG A   1      -7.574  -1.940 130.877  0.00  0.00    -0.505 OA
ATOM     25  H   LIG A   1      -8.356  -1.557 131.330  0.00  0.00    +0.292 HD
ENDBRANCH  21  24
TORSDOF 1
ENDMDL
MODEL 7
REMARK VINA RESULT:      -7.2      4.028      6.002
REMARK  Name = NuBBE_1579
REMARK  3 active torsions:
REMARK  status: ('A' for Active; 'I' for Inactive)
REMARK    1  A    between atoms: C_2  and  C_24
REMARK    2  A    between atoms: C_15  and  C_16
REMARK    3  A    between atoms: C_21  and  O_22
REMARK                            x       y       z     vdW  Elec       q    Type
REMARK                         _______ _______ _______ _____ _____    ______ ____
ROOT
ATOM      1  O   LIG A   1      -4.588   2.547 129.698  0.00  0.00    -0.276 OA
ATOM      2  C   LIG A   1      -4.719   1.466 130.276  0.00  0.00    +0.217 C 
ATOM      3  N   LIG A   1      -5.052   0.283 129.644  0.00  0.00    -0.264 N 
ATOM      4  C   LIG A   1      -5.346  -1.021 130.316  0.00  0.00    +0.095 C 
ATOM      5  C   LIG A   1      -5.174  -2.108 129.210  0.00  0.00    +0.037 C 
ATOM      6  C   LIG A   1      -6.044  -3.369 129.378  0.00  0.00    +0.095 C 
ATOM      7  C   LIG A   1      -7.426  -3.056 129.884  0.00  0.00    -0.053 C 
ATOM      8  C   LIG A   1      -7.352  -2.367 131.220  0.00  0.00    +0.019 C 
ATOM      9  C   LIG A   1      -6.514  -3.195 132.217  0.00  0.00    +0.023 C 
ATOM     10  C   LIG A   1      -5.917  -4.466 131.596  0.00  0.00    +0.085 C 
ATOM     11  N   LIG A   1      -5.278  -4.244 130.298  0.00  0.00    -0.295 NA
ATOM     12  C   LIG A   1      -3.901  -3.748 130.386  0.00  0.00    +0.086 C 
ATOM     13  C   LIG A   1      -3.768  -2.719 129.272  0.00  0.00    +0.030 C 
ATOM     14  C   LIG A   1      -6.754  -0.979 130.958  0.00  0.00    +0.031 C 
ATOM     15  C   LIG A   1      -8.600  -3.319 129.278  0.00  0.00    -0.029 C 
ATOM     16  C   LIG A   1      -8.821  -3.983 127.957  0.00  0.00    +0.035 C 
ATOM     17  C   LIG A   1      -5.363  -1.278 127.967  0.00  0.00    -0.013 A 
ATOM     18  C   LIG A   1      -5.561  -1.745 126.670  0.00  0.00    +0.006 A 
ATOM     19  C   LIG A   1      -5.647  -0.824 125.630  0.00  0.00    +0.004 A 
ATOM     20  C   LIG A   1      -5.522   0.543 125.892  0.00  0.00    +0.047 A 
ATOM     21  C   LIG A   1      -5.310   1.008 127.193  0.00  0.00    +0.139 A 
ATOM     22  C   LIG A   1      -5.241   0.096 128.245  0.00  0.00    +0.082 A 
ATOM     23  C   LIG A   1      -4.481   1.408 131.766  0.00  0.00    +0.110 C 
ENDROOT
BRANCH  21  24
ATOM     24  O   LIG A   1      -5.213   2.361 127.306  0.00  0.00    -0.505 OA
ATOM     25  H   LIG A   1      -5.392   2.758 126.426  0.00  0.00    +0.292 HD
ENDBRANCH  21  24
TORSDOF 1
ENDMDL
MODEL 8
REMARK VINA RESULT:      -7.0      4.862      6.574
REMARK  Name = NuBBE_1579
REMARK  3 active torsions:
REMARK  status: ('A' for Active; 'I' for Inactive)
REMARK    1  A    between atoms: C_2  and  C_24
REMARK    2  A    between atoms: C_15  and  C_16
REMARK    3  A    between atoms: C_21  and  O_22
REMARK                            x       y       z     vdW  Elec       q    Type
REMARK                         _______ _______ _______ _____ _____    ______ ____
ROOT
ATOM      1  O   LIG A   1      -7.736   1.893 133.315  0.00  0.00    -0.276 OA
ATOM      2  C   LIG A   1      -7.133   0.859 133.022  0.00  0.00    +0.217 C 
ATOM      3  N   LIG A   1      -7.073   0.330 131.748  0.00  0.00    -0.264 N 
ATOM      4  C   LIG A   1      -6.465  -0.983 131.368  0.00  0.00    +0.095 C 
ATOM      5  C   LIG A   1      -6.207  -0.894 129.831  0.00  0.00    +0.037 C 
ATOM      6  C   LIG A   1      -6.263  -2.233 129.070  0.00  0.00    +0.095 C 
ATOM      7  C   LIG A   1      -7.352  -3.140 129.575  0.00  0.00    -0.053 C 
ATOM      8  C   LIG A   1      -7.144  -3.450 131.033  0.00  0.00    +0.019 C 
ATOM      9  C   LIG A   1      -5.726  -4.009 131.277  0.00  0.00    +0.023 C 
ATOM     10  C   LIG A   1      -4.867  -4.053 130.006  0.00  0.00    +0.085 C 
ATOM     11  N   LIG A   1      -4.910  -2.819 129.221  0.00  0.00    -0.295 NA
ATOM     12  C   LIG A   1      -3.994  -1.776 129.696  0.00  0.00    +0.086 C 
ATOM     13  C   LIG A   1      -4.759  -0.468 129.554  0.00  0.00    +0.030 C 
ATOM     14  C   LIG A   1      -7.400  -2.142 131.792  0.00  0.00    +0.031 C 
ATOM     15  C   LIG A   1      -8.395  -3.636 128.880  0.00  0.00    -0.029 C 
ATOM     16  C   LIG A   1      -8.728  -3.407 127.441  0.00  0.00    +0.035 C 
ATOM     17  C   LIG A   1      -7.186   0.183 129.443  0.00  0.00    -0.013 A 
ATOM     18  C   LIG A   1      -7.585   0.527 128.153  0.00  0.00    +0.006 A 
ATOM     19  C   LIG A   1      -8.452   1.603 127.983  0.00  0.00    +0.004 A 
ATOM     20  C   LIG A   1      -8.896   2.327 129.092  0.00  0.00    +0.047 A 
ATOM     21  C   LIG A   1      -8.484   1.987 130.384  0.00  0.00    +0.139 A 
ATOM     22  C   LIG A   1      -7.632   0.901 130.568  0.00  0.00    +0.082 A 
ATOM     23  C   LIG A   1      -6.389   0.123 134.110  0.00  0.00    +0.110 C 
ENDROOT
BRANCH  21  24
ATOM     24  O   LIG A   1      -8.998   2.772 131.371  0.00  0.00    -0.505 OA
ATOM     25  H   LIG A   1      -9.741   3.292 130.996  0.00  0.00    +0.292 HD
ENDBRANCH  21  24
TORSDOF 1
ENDMDL
MODEL 9
REMARK VINA RESULT:      -6.9      7.883     10.055
REMARK  Name = NuBBE_1579
REMARK  3 active torsions:
REMARK  status: ('A' for Active; 'I' for Inactive)
REMARK    1  A    between atoms: C_2  and  C_24
REMARK    2  A    between atoms: C_15  and  C_16
REMARK    3  A    between atoms: C_21  and  O_22
REMARK                            x       y       z     vdW  Elec       q    Type
REMARK                         _______ _______ _______ _____ _____    ______ ____
ROOT
ATOM      1  O   LIG A   1      -8.189   4.267 132.301  0.00  0.00    -0.276 OA
ATOM      2  C   LIG A   1      -7.459   4.815 131.473  0.00  0.00    +0.217 C 
ATOM      3  N   LIG A   1      -6.080   4.726 131.475  0.00  0.00    -0.264 N 
ATOM      4  C   LIG A   1      -5.149   5.472 130.573  0.00  0.00    +0.095 C 
ATOM      5  C   LIG A   1      -3.802   4.685 130.620  0.00  0.00    +0.037 C 
ATOM      6  C   LIG A   1      -2.532   5.528 130.399  0.00  0.00    +0.095 C 
ATOM      7  C   LIG A   1      -2.610   6.877 131.061  0.00  0.00    -0.053 C 
ATOM      8  C   LIG A   1      -3.779   7.658 130.524  0.00  0.00    +0.019 C 
ATOM      9  C   LIG A   1      -3.722   7.741 128.984  0.00  0.00    +0.023 C 
ATOM     10  C   LIG A   1      -2.541   6.966 128.381  0.00  0.00    +0.085 C 
ATOM     11  N   LIG A   1      -2.380   5.618 128.926  0.00  0.00    -0.295 NA
ATOM     12  C   LIG A   1      -3.244   4.612 128.301  0.00  0.00    +0.086 C 
ATOM     13  C   LIG A   1      -3.709   3.711 129.437  0.00  0.00    +0.030 C 
ATOM     14  C   LIG A   1      -5.041   6.948 131.029  0.00  0.00    +0.031 C 
ATOM     15  C   LIG A   1      -1.791   7.375 132.008  0.00  0.00    -0.029 C 
ATOM     16  C   LIG A   1      -0.607   6.713 132.635  0.00  0.00    +0.035 C 
ATOM     17  C   LIG A   1      -3.948   3.954 131.928  0.00  0.00    -0.013 A 
ATOM     18  C   LIG A   1      -2.950   3.277 132.626  0.00  0.00    +0.006 A 
ATOM     19  C   LIG A   1      -3.288   2.597 133.793  0.00  0.00    +0.004 A 
ATOM     20  C   LIG A   1      -4.612   2.588 134.239  0.00  0.00    +0.047 A 
ATOM     21  C   LIG A   1      -5.614   3.257 133.530  0.00  0.00    +0.139 A 
ATOM     22  C   LIG A   1      -5.284   3.956 132.371  0.00  0.00    +0.082 A 
ATOM     23  C   LIG A   1      -8.095   5.622 130.367  0.00  0.00    +0.110 C 
ENDROOT
BRANCH  21  24
ATOM     24  O   LIG A   1      -6.857   3.171 134.080  0.00  0.00    -0.505 OA
ATOM     25  H   LIG A   1      -7.144   2.232 134.050  0.00  0.00    +0.292 HD
ENDBRANCH  21  24
TORSDOF 1
ENDMDL
