MODEL 1
REMARK VINA RESULT:      -8.3      0.000      0.000
REMARK  Name = NuBBE_2157
REMARK  11 active torsions:
REMARK  status: ('A' for Active; 'I' for Inactive)
REMARK    1  A    between atoms: C_1  and  C_2
REMARK    2  A    between atoms: C_2  and  C_4
REMARK    3  A    between atoms: C_2  and  C_7
REMARK    4  A    between atoms: C_4  and  C_5
REMARK    5  A    between atoms: C_4  and  C_6
REMARK    6  A    between atoms: C_8  and  C_9
REMARK    7  A    between atoms: C_9  and  C_11
REMARK    8  A    between atoms: C_9  and  C_12
REMARK    9  A    between atoms: C_24  and  O_26
REMARK   10  A    between atoms: C_29  and  C_30
REMARK   11  A    between atoms: C_35  and  C_36
REMARK                            x       y       z     vdW  Elec       q    Type
REMARK                         _______ _______ _______ _____ _____    ______ ____
ROOT
ATOM      1  C   LIG A   1      -4.330   5.251 132.585  0.00  0.00    +0.002 C 
ATOM      2  C   LIG A   1      -4.550   6.685 132.074  0.00  0.00    +0.005 C 
ATOM      3  C   LIG A   1      -5.517   6.572 130.901  0.00  0.00    +0.004 C 
ATOM      4  C   LIG A   1      -6.140   5.153 130.957  0.00  0.00    -0.001 C 
ATOM      5  C   LIG A   1      -7.640   5.206 130.633  0.00  0.00    +0.000 C 
ATOM      6  C   LIG A   1      -8.264   3.826 130.343  0.00  0.00    +0.031 C 
ATOM      7  C   LIG A   1      -9.753   3.902 130.162  0.00  0.00    -0.027 C 
ATOM      8  C   LIG A   1     -10.498   4.956 130.542  0.00  0.00    -0.065 C 
ATOM      9  C   LIG A   1     -11.919   5.108 130.060  0.00  0.00    +0.062 C 
ATOM     10  C   LIG A   1     -11.978   6.269 129.057  0.00  0.00    +0.119 C 
ATOM     11  C   LIG A   1     -11.365   7.558 129.617  0.00  0.00    +0.032 C 
ATOM     12  C   LIG A   1      -9.978   7.340 130.240  0.00  0.00    +0.013 C 
ATOM     13  C   LIG A   1      -9.922   6.168 131.276  0.00  0.00    -0.008 C 
ATOM     14  C   LIG A   1     -10.772   6.560 132.506  0.00  0.00    +0.016 C 
ATOM     15  C   LIG A   1      -8.433   5.931 131.737  0.00  0.00    +0.003 C 
ATOM     16  C   LIG A   1      -8.225   5.161 133.063  0.00  0.00    +0.005 C 
ATOM     17  C   LIG A   1      -6.741   5.039 133.457  0.00  0.00    +0.007 C 
ATOM     18  C   LIG A   1      -5.740   4.588 132.341  0.00  0.00    -0.026 C 
ATOM     19  C   LIG A   1      -5.636   3.054 132.370  0.00  0.00    +0.012 C 
ENDROOT
BRANCH   1  20
ATOM     20  C   LIG A   1      -3.052   4.562 131.968  0.00  0.00    +0.012 C 
ATOM     21  C   LIG A   1      -1.841   4.761 132.896  0.00  0.00    +0.012 C 
BRANCH  20  23
ATOM     22  C   LIG A   1      -2.931   4.323 129.434  0.00  0.00    -0.027 C 
ATOM     23  C   LIG A   1      -2.658   4.986 130.563  0.00  0.00    -0.027 C 
BRANCH  22  25
ATOM     24  C   LIG A   1      -3.371   6.186 127.861  0.00  0.00    +0.012 C 
ATOM     25  C   LIG A   1      -2.614   4.863 128.043  0.00  0.00    +0.011 C 
BRANCH  25  26
ATOM     26  C   LIG A   1      -2.870   3.843 126.892  0.00  0.00    -0.011 C 
ATOM     27  C   LIG A   1      -1.628   3.049 126.473  0.00  0.00    +0.008 C 
ATOM     28  C   LIG A   1      -4.002   2.859 127.232  0.00  0.00    +0.008 C 
ENDBRANCH  25  26
ENDBRANCH  22  25
ENDBRANCH  20  23
ENDBRANCH   1  20
BRANCH  10  29
ATOM     29  O   LIG A   1     -13.329   6.532 128.689  0.00  0.00    -0.392 OA
ATOM     30  H   LIG A   1     -13.422   7.496 128.596  0.00  0.00    +0.210 HD
ENDBRANCH  10  29
TORSDOF 5
ENDMDL
MODEL 2
REMARK VINA RESULT:      -8.1      6.429      9.329
REMARK  Name = NuBBE_2157
REMARK  11 active torsions:
REMARK  status: ('A' for Active; 'I' for Inactive)
REMARK    1  A    between atoms: C_1  and  C_2
REMARK    2  A    between atoms: C_2  and  C_4
REMARK    3  A    between atoms: C_2  and  C_7
REMARK    4  A    between atoms: C_4  and  C_5
REMARK    5  A    between atoms: C_4  and  C_6
REMARK    6  A    between atoms: C_8  and  C_9
REMARK    7  A    between atoms: C_9  and  C_11
REMARK    8  A    between atoms: C_9  and  C_12
REMARK    9  A    between atoms: C_24  and  O_26
REMARK   10  A    between atoms: C_29  and  C_30
REMARK   11  A    between atoms: C_35  and  C_36
REMARK                            x       y       z     vdW  Elec       q    Type
REMARK                         _______ _______ _______ _____ _____    ______ ____
ROOT
ATOM      1  C   LIG A   1      -7.951   0.392 124.748  0.00  0.00    +0.002 C 
ATOM      2  C   LIG A   1      -6.635  -0.308 124.367  0.00  0.00    +0.005 C 
ATOM      3  C   LIG A   1      -5.687  -0.094 125.542  0.00  0.00    +0.004 C 
ATOM      4  C   LIG A   1      -6.543   0.399 126.737  0.00  0.00    -0.001 C 
ATOM      5  C   LIG A   1      -6.086  -0.266 128.043  0.00  0.00    +0.000 C 
ATOM      6  C   LIG A   1      -6.651   0.401 129.314  0.00  0.00    +0.031 C 
ATOM      7  C   LIG A   1      -6.290  -0.355 130.560  0.00  0.00    -0.027 C 
ATOM      8  C   LIG A   1      -5.839  -1.622 130.561  0.00  0.00    -0.065 C 
ATOM      9  C   LIG A   1      -5.207  -2.213 131.796  0.00  0.00    +0.062 C 
ATOM     10  C   LIG A   1      -3.700  -2.377 131.548  0.00  0.00    +0.119 C 
ATOM     11  C   LIG A   1      -3.399  -3.150 130.258  0.00  0.00    +0.032 C 
ATOM     12  C   LIG A   1      -4.178  -2.618 129.046  0.00  0.00    +0.013 C 
ATOM     13  C   LIG A   1      -5.716  -2.468 129.293  0.00  0.00    -0.008 C 
ATOM     14  C   LIG A   1      -6.323  -3.878 129.474  0.00  0.00    +0.016 C 
ATOM     15  C   LIG A   1      -6.394  -1.776 128.048  0.00  0.00    +0.003 C 
ATOM     16  C   LIG A   1      -7.923  -1.954 127.894  0.00  0.00    +0.005 C 
ATOM     17  C   LIG A   1      -8.476  -1.297 126.617  0.00  0.00    +0.007 C 
ATOM     18  C   LIG A   1      -8.012   0.166 126.307  0.00  0.00    -0.026 C 
ATOM     19  C   LIG A   1      -9.004   1.142 126.964  0.00  0.00    +0.012 C 
ENDROOT
BRANCH   1  20
ATOM     20  C   LIG A   1      -8.053   1.864 124.191  0.00  0.00    +0.012 C 
ATOM     21  C   LIG A   1      -9.329   2.027 123.347  0.00  0.00    +0.012 C 
BRANCH  20  23
ATOM     22  C   LIG A   1      -6.919   2.861 122.138  0.00  0.00    -0.027 C 
ATOM     23  C   LIG A   1      -6.871   2.372 123.381  0.00  0.00    -0.027 C 
BRANCH  22  25
ATOM     24  C   LIG A   1      -5.069   4.494 122.367  0.00  0.00    +0.012 C 
ATOM     25  C   LIG A   1      -5.715   3.468 121.425  0.00  0.00    +0.011 C 
BRANCH  25  26
ATOM     26  C   LIG A   1      -6.036   4.046 120.013  0.00  0.00    -0.011 C 
ATOM     27  C   LIG A   1      -7.533   4.227 119.739  0.00  0.00    +0.008 C 
ATOM     28  C   LIG A   1      -5.316   5.381 119.757  0.00  0.00    +0.008 C 
ENDBRANCH  25  26
ENDBRANCH  22  25
ENDBRANCH  20  23
ENDBRANCH   1  20
BRANCH  10  29
ATOM     29  O   LIG A   1      -3.094  -3.064 132.640  0.00  0.00    -0.392 OA
ATOM     30  H   LIG A   1      -3.024  -4.001 132.390  0.00  0.00    +0.210 HD
ENDBRANCH  10  29
TORSDOF 5
ENDMDL
MODEL 3
REMARK VINA RESULT:      -8.0      6.954      9.999
REMARK  Name = NuBBE_2157
REMARK  11 active torsions:
REMARK  status: ('A' for Active; 'I' for Inactive)
REMARK    1  A    between atoms: C_1  and  C_2
REMARK    2  A    between atoms: C_2  and  C_4
REMARK    3  A    between atoms: C_2  and  C_7
REMARK    4  A    between atoms: C_4  and  C_5
REMARK    5  A    between atoms: C_4  and  C_6
REMARK    6  A    between atoms: C_8  and  C_9
REMARK    7  A    between atoms: C_9  and  C_11
REMARK    8  A    between atoms: C_9  and  C_12
REMARK    9  A    between atoms: C_24  and  O_26
REMARK   10  A    between atoms: C_29  and  C_30
REMARK   11  A    between atoms: C_35  and  C_36
REMARK                            x       y       z     vdW  Elec       q    Type
REMARK                         _______ _______ _______ _____ _____    ______ ____
ROOT
ATOM      1  C   LIG A   1      -8.480  -2.550 124.529  0.00  0.00    +0.002 C 
ATOM      2  C   LIG A   1      -7.214  -3.413 124.390  0.00  0.00    +0.005 C 
ATOM      3  C   LIG A   1      -6.124  -2.694 125.178  0.00  0.00    +0.004 C 
ATOM      4  C   LIG A   1      -6.825  -1.633 126.065  0.00  0.00    -0.001 C 
ATOM      5  C   LIG A   1      -6.191  -1.589 127.462  0.00  0.00    +0.000 C 
ATOM      6  C   LIG A   1      -6.596  -0.354 128.292  0.00  0.00    +0.031 C 
ATOM      7  C   LIG A   1      -6.064  -0.412 129.695  0.00  0.00    -0.027 C 
ATOM      8  C   LIG A   1      -5.596  -1.536 130.270  0.00  0.00    -0.065 C 
ATOM      9  C   LIG A   1      -4.799  -1.471 131.548  0.00  0.00    +0.062 C 
ATOM     10  C   LIG A   1      -3.335  -1.811 131.234  0.00  0.00    +0.119 C 
ATOM     11  C   LIG A   1      -3.192  -3.135 130.472  0.00  0.00    +0.032 C 
ATOM     12  C   LIG A   1      -4.130  -3.232 129.260  0.00  0.00    +0.013 C 
ATOM     13  C   LIG A   1      -5.626  -2.902 129.584  0.00  0.00    -0.008 C 
ATOM     14  C   LIG A   1      -6.181  -4.006 130.514  0.00  0.00    +0.016 C 
ATOM     15  C   LIG A   1      -6.471  -2.881 128.253  0.00  0.00    +0.003 C 
ATOM     16  C   LIG A   1      -8.004  -3.035 128.394  0.00  0.00    +0.005 C 
ATOM     17  C   LIG A   1      -8.730  -3.067 127.037  0.00  0.00    +0.007 C 
ATOM     18  C   LIG A   1      -8.334  -1.973 125.989  0.00  0.00    -0.026 C 
ATOM     19  C   LIG A   1      -9.247  -0.752 126.189  0.00  0.00    +0.012 C 
ENDROOT
BRANCH   1  20
ATOM     20  C   LIG A   1      -8.677  -1.542 123.331  0.00  0.00    +0.012 C 
ATOM     21  C   LIG A   1      -8.727  -2.306 121.996  0.00  0.00    +0.012 C 
BRANCH  20  23
ATOM     22  C   LIG A   1      -7.899   0.883 123.391  0.00  0.00    -0.027 C 
ATOM     23  C   LIG A   1      -7.660  -0.419 123.208  0.00  0.00    -0.027 C 
BRANCH  22  25
ATOM     24  C   LIG A   1      -6.479   2.321 124.825  0.00  0.00    +0.012 C 
ATOM     25  C   LIG A   1      -6.809   1.950 123.372  0.00  0.00    +0.011 C 
BRANCH  25  26
ATOM     26  C   LIG A   1      -7.143   3.186 122.482  0.00  0.00    -0.011 C 
ATOM     27  C   LIG A   1      -6.186   3.382 121.302  0.00  0.00    +0.008 C 
ATOM     28  C   LIG A   1      -8.587   3.144 121.954  0.00  0.00    +0.008 C 
ENDBRANCH  25  26
ENDBRANCH  22  25
ENDBRANCH  20  23
ENDBRANCH   1  20
BRANCH  10  29
ATOM     29  O   LIG A   1      -2.581  -1.899 132.440  0.00  0.00    -0.392 OA
ATOM     30  H   LIG A   1      -2.937  -1.233 133.053  0.00  0.00    +0.210 HD
ENDBRANCH  10  29
TORSDOF 5
ENDMDL
MODEL 4
REMARK VINA RESULT:      -7.9      7.400     10.060
REMARK  Name = NuBBE_2157
REMARK  11 active torsions:
REMARK  status: ('A' for Active; 'I' for Inactive)
REMARK    1  A    between atoms: C_1  and  C_2
REMARK    2  A    between atoms: C_2  and  C_4
REMARK    3  A    between atoms: C_2  and  C_7
REMARK    4  A    between atoms: C_4  and  C_5
REMARK    5  A    between atoms: C_4  and  C_6
REMARK    6  A    between atoms: C_8  and  C_9
REMARK    7  A    between atoms: C_9  and  C_11
REMARK    8  A    between atoms: C_9  and  C_12
REMARK    9  A    between atoms: C_24  and  O_26
REMARK   10  A    between atoms: C_29  and  C_30
REMARK   11  A    between atoms: C_35  and  C_36
REMARK                            x       y       z     vdW  Elec       q    Type
REMARK                         _______ _______ _______ _____ _____    ______ ____
ROOT
ATOM      1  C   LIG A   1      -5.559  -0.973 128.817  0.00  0.00    +0.002 C 
ATOM      2  C   LIG A   1      -6.974  -0.663 129.334  0.00  0.00    +0.005 C 
ATOM      3  C   LIG A   1      -7.491  -1.958 129.951  0.00  0.00    +0.004 C 
ATOM      4  C   LIG A   1      -6.272  -2.900 130.127  0.00  0.00    -0.001 C 
ATOM      5  C   LIG A   1      -6.346  -3.638 131.470  0.00  0.00    +0.000 C 
ATOM      6  C   LIG A   1      -5.367  -4.825 131.585  0.00  0.00    +0.031 C 
ATOM      7  C   LIG A   1      -5.375  -5.437 132.955  0.00  0.00    -0.027 C 
ATOM      8  C   LIG A   1      -5.893  -4.834 134.041  0.00  0.00    -0.065 C 
ATOM      9  C   LIG A   1      -6.150  -5.613 135.306  0.00  0.00    +0.062 C 
ATOM     10  C   LIG A   1      -7.666  -5.772 135.488  0.00  0.00    +0.119 C 
ATOM     11  C   LIG A   1      -8.408  -4.432 135.415  0.00  0.00    +0.032 C 
ATOM     12  C   LIG A   1      -8.010  -3.593 134.192  0.00  0.00    +0.013 C 
ATOM     13  C   LIG A   1      -6.464  -3.416 134.016  0.00  0.00    -0.008 C 
ATOM     14  C   LIG A   1      -5.934  -2.556 135.187  0.00  0.00    +0.016 C 
ATOM     15  C   LIG A   1      -6.160  -2.675 132.658  0.00  0.00    +0.003 C 
ATOM     16  C   LIG A   1      -4.773  -2.005 132.521  0.00  0.00    +0.005 C 
ATOM     17  C   LIG A   1      -4.599  -1.256 131.187  0.00  0.00    +0.007 C 
ATOM     18  C   LIG A   1      -5.031  -2.007 129.883  0.00  0.00    -0.026 C 
ATOM     19  C   LIG A   1      -3.817  -2.781 129.342  0.00  0.00    +0.012 C 
ENDROOT
BRANCH   1  20
ATOM     20  C   LIG A   1      -5.531  -1.376 127.292  0.00  0.00    +0.012 C 
ATOM     21  C   LIG A   1      -5.278  -0.134 126.418  0.00  0.00    +0.012 C 
BRANCH  20  23
ATOM     22  C   LIG A   1      -7.746  -1.560 126.046  0.00  0.00    -0.027 C 
ATOM     23  C   LIG A   1      -6.751  -2.105 126.755  0.00  0.00    -0.027 C 
BRANCH  22  25
ATOM     24  C   LIG A   1      -9.370  -3.380 126.480  0.00  0.00    +0.012 C 
ATOM     25  C   LIG A   1      -8.883  -2.371 125.432  0.00  0.00    +0.011 C 
BRANCH  25  26
ATOM     26  C   LIG A   1      -8.528  -3.028 124.063  0.00  0.00    -0.011 C 
ATOM     27  C   LIG A   1      -9.748  -3.465 123.246  0.00  0.00    +0.008 C 
ATOM     28  C   LIG A   1      -7.645  -2.115 123.195  0.00  0.00    +0.008 C 
ENDBRANCH  25  26
ENDBRANCH  22  25
ENDBRANCH  20  23
ENDBRANCH   1  20
BRANCH  10  29
ATOM     29  O   LIG A   1      -7.949  -6.379 136.746  0.00  0.00    -0.392 OA
ATOM     30  H   LIG A   1      -8.759  -6.907 136.638  0.00  0.00    +0.210 HD
ENDBRANCH  10  29
TORSDOF 5
ENDMDL
MODEL 5
REMARK VINA RESULT:      -7.9      4.336      6.081
REMARK  Name = NuBBE_2157
REMARK  11 active torsions:
REMARK  status: ('A' for Active; 'I' for Inactive)
REMARK    1  A    between atoms: C_1  and  C_2
REMARK    2  A    between atoms: C_2  and  C_4
REMARK    3  A    between atoms: C_2  and  C_7
REMARK    4  A    between atoms: C_4  and  C_5
REMARK    5  A    between atoms: C_4  and  C_6
REMARK    6  A    between atoms: C_8  and  C_9
REMARK    7  A    between atoms: C_9  and  C_11
REMARK    8  A    between atoms: C_9  and  C_12
REMARK    9  A    between atoms: C_24  and  O_26
REMARK   10  A    between atoms: C_29  and  C_30
REMARK   11  A    between atoms: C_35  and  C_36
REMARK                            x       y       z     vdW  Elec       q    Type
REMARK                         _______ _______ _______ _____ _____    ______ ____
ROOT
ATOM      1  C   LIG A   1      -4.994  -1.623 130.523  0.00  0.00    +0.002 C 
ATOM      2  C   LIG A   1      -4.352  -0.328 129.996  0.00  0.00    +0.005 C 
ATOM      3  C   LIG A   1      -5.498   0.654 129.778  0.00  0.00    +0.004 C 
ATOM      4  C   LIG A   1      -6.738   0.079 130.509  0.00  0.00    -0.001 C 
ATOM      5  C   LIG A   1      -7.511   1.195 131.226  0.00  0.00    +0.000 C 
ATOM      6  C   LIG A   1      -8.920   0.776 131.695  0.00  0.00    +0.031 C 
ATOM      7  C   LIG A   1      -9.591   1.847 132.505  0.00  0.00    -0.027 C 
ATOM      8  C   LIG A   1      -8.938   2.890 133.051  0.00  0.00    -0.065 C 
ATOM      9  C   LIG A   1      -9.696   4.081 133.580  0.00  0.00    +0.062 C 
ATOM     10  C   LIG A   1      -9.458   5.273 132.643  0.00  0.00    +0.119 C 
ATOM     11  C   LIG A   1      -7.967   5.538 132.399  0.00  0.00    +0.032 C 
ATOM     12  C   LIG A   1      -7.191   4.271 132.009  0.00  0.00    +0.013 C 
ATOM     13  C   LIG A   1      -7.420   3.060 132.974  0.00  0.00    -0.008 C 
ATOM     14  C   LIG A   1      -6.805   3.407 134.350  0.00  0.00    +0.016 C 
ATOM     15  C   LIG A   1      -6.706   1.775 132.403  0.00  0.00    +0.003 C 
ATOM     16  C   LIG A   1      -6.422   0.630 133.403  0.00  0.00    +0.005 C 
ATOM     17  C   LIG A   1      -5.665  -0.549 132.763  0.00  0.00    +0.007 C 
ATOM     18  C   LIG A   1      -6.195  -1.075 131.386  0.00  0.00    -0.026 C 
ATOM     19  C   LIG A   1      -7.229  -2.182 131.652  0.00  0.00    +0.012 C 
ENDROOT
BRANCH   1  20
ATOM     20  C   LIG A   1      -5.297  -2.672 129.384  0.00  0.00    +0.012 C 
ATOM     21  C   LIG A   1      -4.572  -3.997 129.676  0.00  0.00    +0.012 C 
BRANCH  20  23
ATOM     22  C   LIG A   1      -5.848  -2.134 126.955  0.00  0.00    -0.027 C 
ATOM     23  C   LIG A   1      -4.974  -2.248 127.961  0.00  0.00    -0.027 C 
BRANCH  22  25
ATOM     24  C   LIG A   1      -5.955  -0.128 125.504  0.00  0.00    +0.012 C 
ATOM     25  C   LIG A   1      -5.481  -1.586 125.579  0.00  0.00    +0.011 C 
BRANCH  25  26
ATOM     26  C   LIG A   1      -5.988  -2.460 124.392  0.00  0.00    -0.011 C 
ATOM     27  C   LIG A   1      -6.430  -1.652 123.167  0.00  0.00    +0.008 C 
ATOM     28  C   LIG A   1      -4.944  -3.501 123.954  0.00  0.00    +0.008 C 
ENDBRANCH  25  26
ENDBRANCH  22  25
ENDBRANCH  20  23
ENDBRANCH   1  20
BRANCH  10  29
ATOM     29  O   LIG A   1     -10.044   6.452 133.189  0.00  0.00    -0.392 OA
ATOM     30  H   LIG A   1     -10.947   6.519 132.834  0.00  0.00    +0.210 HD
ENDBRANCH  10  29
TORSDOF 5
ENDMDL
MODEL 6
REMARK VINA RESULT:      -7.9      4.542      8.066
REMARK  Name = NuBBE_2157
REMARK  11 active torsions:
REMARK  status: ('A' for Active; 'I' for Inactive)
REMARK    1  A    between atoms: C_1  and  C_2
REMARK    2  A    between atoms: C_2  and  C_4
REMARK    3  A    between atoms: C_2  and  C_7
REMARK    4  A    between atoms: C_4  and  C_5
REMARK    5  A    between atoms: C_4  and  C_6
REMARK    6  A    between atoms: C_8  and  C_9
REMARK    7  A    between atoms: C_9  and  C_11
REMARK    8  A    between atoms: C_9  and  C_12
REMARK    9  A    between atoms: C_24  and  O_26
REMARK   10  A    between atoms: C_29  and  C_30
REMARK   11  A    between atoms: C_35  and  C_36
REMARK                            x       y       z     vdW  Elec       q    Type
REMARK                         _______ _______ _______ _____ _____    ______ ____
ROOT
ATOM      1  C   LIG A   1      -6.205   1.909 126.841  0.00  0.00    +0.002 C 
ATOM      2  C   LIG A   1      -5.906   1.052 128.083  0.00  0.00    +0.005 C 
ATOM      3  C   LIG A   1      -4.515   1.461 128.554  0.00  0.00    +0.004 C 
ATOM      4  C   LIG A   1      -4.158   2.786 127.831  0.00  0.00    -0.001 C 
ATOM      5  C   LIG A   1      -3.457   3.756 128.792  0.00  0.00    +0.000 C 
ATOM      6  C   LIG A   1      -2.779   4.949 128.088  0.00  0.00    +0.031 C 
ATOM      7  C   LIG A   1      -2.220   5.942 129.066  0.00  0.00    -0.027 C 
ATOM      8  C   LIG A   1      -2.559   5.982 130.367  0.00  0.00    -0.065 C 
ATOM      9  C   LIG A   1      -1.746   6.785 131.351  0.00  0.00    +0.062 C 
ATOM     10  C   LIG A   1      -0.977   5.817 132.262  0.00  0.00    +0.119 C 
ATOM     11  C   LIG A   1      -1.893   4.772 132.911  0.00  0.00    +0.032 C 
ATOM     12  C   LIG A   1      -2.820   4.078 131.901  0.00  0.00    +0.013 C 
ATOM     13  C   LIG A   1      -3.616   5.066 130.984  0.00  0.00    -0.008 C 
ATOM     14  C   LIG A   1      -4.621   5.847 131.862  0.00  0.00    +0.016 C 
ATOM     15  C   LIG A   1      -4.414   4.257 129.891  0.00  0.00    +0.003 C 
ATOM     16  C   LIG A   1      -5.595   4.983 129.205  0.00  0.00    +0.005 C 
ATOM     17  C   LIG A   1      -6.347   4.089 128.202  0.00  0.00    +0.007 C 
ATOM     18  C   LIG A   1      -5.482   3.267 127.189  0.00  0.00    -0.026 C 
ATOM     19  C   LIG A   1      -5.275   4.117 125.924  0.00  0.00    +0.012 C 
ENDROOT
BRANCH   1  20
ATOM     20  C   LIG A   1      -5.847   1.184 125.487  0.00  0.00    +0.012 C 
ATOM     21  C   LIG A   1      -6.792   1.651 124.367  0.00  0.00    +0.012 C 
BRANCH  20  23
ATOM     22  C   LIG A   1      -6.405  -1.140 124.605  0.00  0.00    -0.027 C 
ATOM     23  C   LIG A   1      -5.834  -0.336 125.508  0.00  0.00    -0.027 C 
BRANCH  22  25
ATOM     24  C   LIG A   1      -5.144  -3.034 123.624  0.00  0.00    +0.012 C 
ATOM     25  C   LIG A   1      -6.253  -2.658 124.617  0.00  0.00    +0.011 C 
BRANCH  25  26
ATOM     26  C   LIG A   1      -7.585  -3.432 124.373  0.00  0.00    -0.011 C 
ATOM     27  C   LIG A   1      -8.423  -3.645 125.638  0.00  0.00    +0.008 C 
ATOM     28  C   LIG A   1      -8.458  -2.757 123.302  0.00  0.00    +0.008 C 
ENDBRANCH  25  26
ENDBRANCH  22  25
ENDBRANCH  20  23
ENDBRANCH   1  20
BRANCH  10  29
ATOM     29  O   LIG A   1      -0.310   6.539 133.294  0.00  0.00    -0.392 OA
ATOM     30  H   LIG A   1      -0.768   6.341 134.128  0.00  0.00    +0.210 HD
ENDBRANCH  10  29
TORSDOF 5
ENDMDL
MODEL 7
REMARK VINA RESULT:      -7.9      5.417      8.413
REMARK  Name = NuBBE_2157
REMARK  11 active torsions:
REMARK  status: ('A' for Active; 'I' for Inactive)
REMARK    1  A    between atoms: C_1  and  C_2
REMARK    2  A    between atoms: C_2  and  C_4
REMARK    3  A    between atoms: C_2  and  C_7
REMARK    4  A    between atoms: C_4  and  C_5
REMARK    5  A    between atoms: C_4  and  C_6
REMARK    6  A    between atoms: C_8  and  C_9
REMARK    7  A    between atoms: C_9  and  C_11
REMARK    8  A    between atoms: C_9  and  C_12
REMARK    9  A    between atoms: C_24  and  O_26
REMARK   10  A    between atoms: C_29  and  C_30
REMARK   11  A    between atoms: C_35  and  C_36
REMARK                            x       y       z     vdW  Elec       q    Type
REMARK                         _______ _______ _______ _____ _____    ______ ____
ROOT
ATOM      1  C   LIG A   1      -7.250  -1.004 132.327  0.00  0.00    +0.002 C 
ATOM      2  C   LIG A   1      -8.415  -0.199 131.727  0.00  0.00    +0.005 C 
ATOM      3  C   LIG A   1      -7.961   0.231 130.336  0.00  0.00    +0.004 C 
ATOM      4  C   LIG A   1      -6.709  -0.613 129.983  0.00  0.00    -0.001 C 
ATOM      5  C   LIG A   1      -6.756  -1.064 128.516  0.00  0.00    +0.000 C 
ATOM      6  C   LIG A   1      -5.416  -1.619 127.991  0.00  0.00    +0.031 C 
ATOM      7  C   LIG A   1      -5.535  -2.170 126.600  0.00  0.00    -0.027 C 
ATOM      8  C   LIG A   1      -6.709  -2.467 126.012  0.00  0.00    -0.065 C 
ATOM      9  C   LIG A   1      -6.784  -2.717 124.527  0.00  0.00    +0.062 C 
ATOM     10  C   LIG A   1      -7.506  -1.535 123.863  0.00  0.00    +0.119 C 
ATOM     11  C   LIG A   1      -8.859  -1.234 124.517  0.00  0.00    +0.032 C 
ATOM     12  C   LIG A   1      -8.776  -1.136 126.048  0.00  0.00    +0.013 C 
ATOM     13  C   LIG A   1      -8.055  -2.349 126.726  0.00  0.00    -0.008 C 
ATOM     14  C   LIG A   1      -8.929  -3.610 126.529  0.00  0.00    +0.016 C 
ATOM     15  C   LIG A   1      -7.889  -2.079 128.271  0.00  0.00    +0.003 C 
ATOM     16  C   LIG A   1      -7.635  -3.309 129.173  0.00  0.00    +0.005 C 
ATOM     17  C   LIG A   1      -7.551  -2.948 130.667  0.00  0.00    +0.007 C 
ATOM     18  C   LIG A   1      -6.653  -1.726 131.058  0.00  0.00    -0.026 C 
ATOM     19  C   LIG A   1      -5.229  -2.236 131.337  0.00  0.00    +0.012 C 
ENDROOT
BRANCH   1  20
ATOM     20  C   LIG A   1      -6.290  -0.131 133.223  0.00  0.00    +0.012 C 
ATOM     21  C   LIG A   1      -6.027  -0.837 134.565  0.00  0.00    +0.012 C 
BRANCH  20  23
ATOM     22  C   LIG A   1      -6.248   2.399 132.921  0.00  0.00    -0.027 C 
ATOM     23  C   LIG A   1      -6.729   1.297 133.506  0.00  0.00    -0.027 C 
BRANCH  22  25
ATOM     24  C   LIG A   1      -5.640   4.762 133.351  0.00  0.00    +0.012 C 
ATOM     25  C   LIG A   1      -6.816   3.794 133.161  0.00  0.00    +0.011 C 
BRANCH  25  26
ATOM     26  C   LIG A   1      -7.863   3.865 134.314  0.00  0.00    -0.011 C 
ATOM     27  C   LIG A   1      -7.716   5.095 135.216  0.00  0.00    +0.008 C 
ATOM     28  C   LIG A   1      -9.308   3.800 133.789  0.00  0.00    +0.008 C 
ENDBRANCH  25  26
ENDBRANCH  22  25
ENDBRANCH  20  23
ENDBRANCH   1  20
BRANCH  10  29
ATOM     29  O   LIG A   1      -7.720  -1.805 122.480  0.00  0.00    -0.392 OA
ATOM     30  H   LIG A   1      -8.452  -2.442 122.419  0.00  0.00    +0.210 HD
ENDBRANCH  10  29
TORSDOF 5
ENDMDL
MODEL 8
REMARK VINA RESULT:      -7.9      4.235      7.857
REMARK  Name = NuBBE_2157
REMARK  11 active torsions:
REMARK  status: ('A' for Active; 'I' for Inactive)
REMARK    1  A    between atoms: C_1  and  C_2
REMARK    2  A    between atoms: C_2  and  C_4
REMARK    3  A    between atoms: C_2  and  C_7
REMARK    4  A    between atoms: C_4  and  C_5
REMARK    5  A    between atoms: C_4  and  C_6
REMARK    6  A    between atoms: C_8  and  C_9
REMARK    7  A    between atoms: C_9  and  C_11
REMARK    8  A    between atoms: C_9  and  C_12
REMARK    9  A    between atoms: C_24  and  O_26
REMARK   10  A    between atoms: C_29  and  C_30
REMARK   11  A    between atoms: C_35  and  C_36
REMARK                            x       y       z     vdW  Elec       q    Type
REMARK                         _______ _______ _______ _____ _____    ______ ____
ROOT
ATOM      1  C   LIG A   1      -9.132   2.568 132.518  0.00  0.00    +0.002 C 
ATOM      2  C   LIG A   1     -10.110   2.479 131.334  0.00  0.00    +0.005 C 
ATOM      3  C   LIG A   1      -9.248   2.342 130.083  0.00  0.00    +0.004 C 
ATOM      4  C   LIG A   1      -7.814   1.985 130.553  0.00  0.00    -0.001 C 
ATOM      5  C   LIG A   1      -7.193   0.920 129.638  0.00  0.00    +0.000 C 
ATOM      6  C   LIG A   1      -5.672   0.747 129.825  0.00  0.00    +0.031 C 
ATOM      7  C   LIG A   1      -5.125  -0.390 129.011  0.00  0.00    -0.027 C 
ATOM      8  C   LIG A   1      -5.889  -1.353 128.465  0.00  0.00    -0.065 C 
ATOM      9  C   LIG A   1      -5.328  -2.278 127.415  0.00  0.00    +0.062 C 
ATOM     10  C   LIG A   1      -5.959  -1.927 126.060  0.00  0.00    +0.119 C 
ATOM     11  C   LIG A   1      -7.491  -1.901 126.117  0.00  0.00    +0.032 C 
ATOM     12  C   LIG A   1      -8.032  -1.072 127.292  0.00  0.00    +0.013 C 
ATOM     13  C   LIG A   1      -7.401  -1.441 128.676  0.00  0.00    -0.008 C 
ATOM     14  C   LIG A   1      -7.851  -2.872 129.054  0.00  0.00    +0.016 C 
ATOM     15  C   LIG A   1      -7.907  -0.437 129.781  0.00  0.00    +0.003 C 
ATOM     16  C   LIG A   1      -7.780  -0.894 131.253  0.00  0.00    +0.005 C 
ATOM     17  C   LIG A   1      -8.360   0.128 132.249  0.00  0.00    +0.007 C 
ATOM     18  C   LIG A   1      -7.955   1.627 132.052  0.00  0.00    -0.026 C 
ATOM     19  C   LIG A   1      -6.680   1.899 132.869  0.00  0.00    +0.012 C 
ENDROOT
BRANCH   1  20
ATOM     20  C   LIG A   1      -8.797   4.052 132.934  0.00  0.00    +0.012 C 
ATOM     21  C   LIG A   1      -8.675   4.160 134.464  0.00  0.00    +0.012 C 
BRANCH  20  23
ATOM     22  C   LIG A   1      -9.552   5.945 131.406  0.00  0.00    -0.027 C 
ATOM     23  C   LIG A   1      -9.750   5.130 132.447  0.00  0.00    -0.027 C 
BRANCH  22  25
ATOM     24  C   LIG A   1     -11.880   6.735 131.724  0.00  0.00    +0.012 C 
ATOM     25  C   LIG A   1     -10.603   6.926 130.893  0.00  0.00    +0.011 C 
BRANCH  25  26
ATOM     26  C   LIG A   1     -10.851   6.847 129.356  0.00  0.00    -0.011 C 
ATOM     27  C   LIG A   1     -12.295   6.507 128.974  0.00  0.00    +0.008 C 
ATOM     28  C   LIG A   1     -10.433   8.140 128.635  0.00  0.00    +0.008 C 
ENDBRANCH  25  26
ENDBRANCH  22  25
ENDBRANCH  20  23
ENDBRANCH   1  20
BRANCH  10  29
ATOM     29  O   LIG A   1      -5.559  -2.874 125.072  0.00  0.00    -0.392 OA
ATOM     30  H   LIG A   1      -4.608  -2.744 124.915  0.00  0.00    +0.210 HD
ENDBRANCH  10  29
TORSDOF 5
ENDMDL
MODEL 9
REMARK VINA RESULT:      -7.7      4.433      8.180
REMARK  Name = NuBBE_2157
REMARK  11 active torsions:
REMARK  status: ('A' for Active; 'I' for Inactive)
REMARK    1  A    between atoms: C_1  and  C_2
REMARK    2  A    between atoms: C_2  and  C_4
REMARK    3  A    between atoms: C_2  and  C_7
REMARK    4  A    between atoms: C_4  and  C_5
REMARK    5  A    between atoms: C_4  and  C_6
REMARK    6  A    between atoms: C_8  and  C_9
REMARK    7  A    between atoms: C_9  and  C_11
REMARK    8  A    between atoms: C_9  and  C_12
REMARK    9  A    between atoms: C_24  and  O_26
REMARK   10  A    between atoms: C_29  and  C_30
REMARK   11  A    between atoms: C_35  and  C_36
REMARK                            x       y       z     vdW  Elec       q    Type
REMARK                         _______ _______ _______ _____ _____    ______ ____
ROOT
ATOM      1  C   LIG A   1      -2.643   5.248 130.518  0.00  0.00    +0.002 C 
ATOM      2  C   LIG A   1      -2.975   6.520 129.720  0.00  0.00    +0.005 C 
ATOM      3  C   LIG A   1      -3.572   7.503 130.721  0.00  0.00    +0.004 C 
ATOM      4  C   LIG A   1      -3.256   6.960 132.139  0.00  0.00    -0.001 C 
ATOM      5  C   LIG A   1      -2.852   8.104 133.080  0.00  0.00    +0.000 C 
ATOM      6  C   LIG A   1      -2.843   7.710 134.571  0.00  0.00    +0.031 C 
ATOM      7  C   LIG A   1      -2.317   8.811 135.446  0.00  0.00    -0.027 C 
ATOM      8  C   LIG A   1      -1.621   9.866 134.983  0.00  0.00    -0.065 C 
ATOM      9  C   LIG A   1      -1.392  11.078 135.849  0.00  0.00    +0.062 C 
ATOM     10  C   LIG A   1      -2.238  12.239 135.306  0.00  0.00    +0.119 C 
ATOM     11  C   LIG A   1      -2.004  12.485 133.811  0.00  0.00    +0.032 C 
ATOM     12  C   LIG A   1      -2.093  11.201 132.972  0.00  0.00    +0.013 C 
ATOM     13  C   LIG A   1      -1.217  10.022 133.516  0.00  0.00    -0.008 C 
ATOM     14  C   LIG A   1       0.273  10.408 133.362  0.00  0.00    +0.016 C 
ATOM     15  C   LIG A   1      -1.496   8.716 132.679  0.00  0.00    +0.003 C 
ATOM     16  C   LIG A   1      -0.428   7.600 132.745  0.00  0.00    +0.005 C 
ATOM     17  C   LIG A   1      -0.762   6.396 131.845  0.00  0.00    +0.007 C 
ATOM     18  C   LIG A   1      -2.221   5.831 131.920  0.00  0.00    -0.026 C 
ATOM     19  C   LIG A   1      -2.266   4.741 133.004  0.00  0.00    +0.012 C 
ENDROOT
BRANCH   1  20
ATOM     20  C   LIG A   1      -3.790   4.166 130.461  0.00  0.00    +0.012 C 
ATOM     21  C   LIG A   1      -3.812   3.485 129.082  0.00  0.00    +0.012 C 
BRANCH  20  23
ATOM     22  C   LIG A   1      -5.792   4.578 131.983  0.00  0.00    -0.027 C 
ATOM     23  C   LIG A   1      -5.196   4.642 130.788  0.00  0.00    -0.027 C 
BRANCH  22  25
ATOM     24  C   LIG A   1      -7.309   6.457 131.428  0.00  0.00    +0.012 C 
ATOM     25  C   LIG A   1      -7.161   5.184 132.274  0.00  0.00    +0.011 C 
BRANCH  25  26
ATOM     26  C   LIG A   1      -7.446   5.415 133.789  0.00  0.00    -0.011 C 
ATOM     27  C   LIG A   1      -8.199   4.265 134.465  0.00  0.00    +0.008 C 
ATOM     28  C   LIG A   1      -6.159   5.704 134.581  0.00  0.00    +0.008 C 
ENDBRANCH  25  26
ENDBRANCH  22  25
ENDBRANCH  20  23
ENDBRANCH   1  20
BRANCH  10  29
ATOM     29  O   LIG A   1      -1.938  13.439 136.015  0.00  0.00    -0.392 OA
ATOM     30  H   LIG A   1      -2.420  14.162 135.578  0.00  0.00    +0.210 HD
ENDBRANCH  10  29
TORSDOF 5
ENDMDL
