MODEL 1
REMARK VINA RESULT:      -8.9      0.000      0.000
REMARK  Name = NuBBE_495
REMARK  10 active torsions:
REMARK  status: ('A' for Active; 'I' for Inactive)
REMARK    1  A    between atoms: C_1  and  C_2
REMARK    2  A    between atoms: C_7  and  C_10
REMARK    3  A    between atoms: C_11  and  C_17
REMARK    4  A    between atoms: C_27  and  O_39
REMARK    5  A    between atoms: C_29  and  C_37
REMARK    6  A    between atoms: C_29  and  C_38
REMARK    7  A    between atoms: C_30  and  C_32
REMARK    8  A    between atoms: C_32  and  C_33
REMARK    9  A    between atoms: C_33  and  O_35
REMARK   10  A    between atoms: O_35  and  C_36
REMARK                            x       y       z     vdW  Elec       q    Type
REMARK                         _______ _______ _______ _____ _____    ______ ____
ROOT
ATOM      1  C   LIG A   1      -9.656  -3.108 125.917  0.00  0.00    +0.020 C 
ATOM      2  C   LIG A   1      -8.274  -2.426 126.055  0.00  0.00    +0.037 C 
ATOM      3  C   LIG A   1      -7.808  -2.342 127.562  0.00  0.00    +0.028 C 
ATOM      4  C   LIG A   1      -6.291  -2.215 127.764  0.00  0.00    -0.064 C 
ATOM      5  C   LIG A   1      -5.718  -2.435 128.972  0.00  0.00    -0.050 C 
ATOM      6  C   LIG A   1      -6.415  -3.172 130.128  0.00  0.00    +0.031 C 
ATOM      7  C   LIG A   1      -7.946  -3.157 129.936  0.00  0.00    +0.015 C 
ATOM      8  C   LIG A   1      -8.369  -3.434 128.491  0.00  0.00    +0.010 C 
ATOM      9  C   LIG A   1      -5.926  -4.645 130.077  0.00  0.00    +0.020 C 
ATOM     10  C   LIG A   1      -5.953  -2.558 131.501  0.00  0.00    +0.219 C 
ATOM     11  O   LIG A   1      -5.668  -1.148 131.367  0.00  0.00    -0.455 OA
ATOM     12  C   LIG A   1      -4.705  -0.804 130.466  0.00  0.00    +0.312 C 
ATOM     13  O   LIG A   1      -4.142   0.284 130.514  0.00  0.00    -0.251 OA
ATOM     14  C   LIG A   1      -4.388  -1.846 129.397  0.00  0.00    +0.152 C 
ATOM     15  C   LIG A   1      -5.515  -1.799 126.539  0.00  0.00    +0.044 C 
ATOM     16  C   LIG A   1      -5.879  -2.628 125.294  0.00  0.00    +0.089 C 
ATOM     17  C   LIG A   1      -7.223  -3.287 125.409  0.00  0.00    +0.146 C 
ATOM     18  O   LIG A   1      -7.452  -4.377 124.889  0.00  0.00    -0.296 OA
ATOM     19  C   LIG A   1      -6.024  -1.776 124.042  0.00  0.00    +0.131 C 
ATOM     20  C   LIG A   1      -7.219  -0.747 124.095  0.00  0.00    -0.004 C 
ATOM     21  C   LIG A   1      -8.339  -1.032 125.238  0.00  0.00    +0.021 C 
ATOM     22  C   LIG A   1      -7.968  -0.734 122.727  0.00  0.00    +0.014 C 
ATOM     23  C   LIG A   1      -6.566   0.661 124.176  0.00  0.00    +0.014 C 
ENDROOT
BRANCH  10  24
ATOM     24  C   LIG A   1      -6.890  -2.798 132.654  0.00  0.00    +0.031 A 
ATOM     25  C   LIG A   1      -6.956  -3.949 133.494  0.00  0.00    +0.048 A 
ATOM     26  C   LIG A   1      -7.964  -3.720 134.400  0.00  0.00    +0.195 A 
ATOM     27  O   LIG A   1      -8.519  -2.501 134.189  0.00  0.00    -0.471 OA
ATOM     28  C   LIG A   1      -7.859  -1.943 133.145  0.00  0.00    +0.202 A 
ENDBRANCH  10  24
BRANCH  19  29
ATOM     29  O   LIG A   1      -6.089  -2.620 122.886  0.00  0.00    -0.391 OA
ATOM     30  H   LIG A   1      -6.688  -2.226 122.221  0.00  0.00    +0.210 HD
ENDBRANCH  19  29
BRANCH  21  31
ATOM     31  C   LIG A   1      -8.682   0.163 126.167  0.00  0.00    +0.125 C 
BRANCH  31  32
ATOM     32  C   LIG A   1      -9.511   1.271 125.557  0.00  0.00    +0.307 C 
ATOM     33  O   LIG A   1     -10.437   1.082 124.785  0.00  0.00    -0.251 OA
BRANCH  32  34
ATOM     34  O   LIG A   1      -9.023   2.484 125.932  0.00  0.00    -0.468 OA
ATOM     35  C   LIG A   1      -8.049   2.475 126.975  0.00  0.00    +0.280 C 
ENDBRANCH  32  34
ENDBRANCH  31  32
ENDBRANCH  21  31
TORSDOF 5
ENDMDL
MODEL 2
REMARK VINA RESULT:      -8.3      3.555      8.496
REMARK  Name = NuBBE_495
REMARK  10 active torsions:
REMARK  status: ('A' for Active; 'I' for Inactive)
REMARK    1  A    between atoms: C_1  and  C_2
REMARK    2  A    between atoms: C_7  and  C_10
REMARK    3  A    between atoms: C_11  and  C_17
REMARK    4  A    between atoms: C_27  and  O_39
REMARK    5  A    between atoms: C_29  and  C_37
REMARK    6  A    between atoms: C_29  and  C_38
REMARK    7  A    between atoms: C_30  and  C_32
REMARK    8  A    between atoms: C_32  and  C_33
REMARK    9  A    between atoms: C_33  and  O_35
REMARK   10  A    between atoms: O_35  and  C_36
REMARK                            x       y       z     vdW  Elec       q    Type
REMARK                         _______ _______ _______ _____ _____    ______ ____
ROOT
ATOM      1  C   LIG A   1      -7.234   5.203 130.001  0.00  0.00    +0.020 C 
ATOM      2  C   LIG A   1      -7.618   3.704 129.956  0.00  0.00    +0.037 C 
ATOM      3  C   LIG A   1      -7.769   3.181 128.473  0.00  0.00    +0.028 C 
ATOM      4  C   LIG A   1      -7.592   1.666 128.301  0.00  0.00    -0.064 C 
ATOM      5  C   LIG A   1      -7.392   1.112 127.080  0.00  0.00    -0.050 C 
ATOM      6  C   LIG A   1      -6.953   1.909 125.840  0.00  0.00    +0.031 C 
ATOM      7  C   LIG A   1      -7.272   3.409 126.019  0.00  0.00    +0.015 C 
ATOM      8  C   LIG A   1      -6.930   3.928 127.419  0.00  0.00    +0.010 C 
ATOM      9  C   LIG A   1      -5.414   1.742 125.725  0.00  0.00    +0.020 C 
ATOM     10  C   LIG A   1      -7.604   1.283 124.552  0.00  0.00    +0.219 C 
ATOM     11  O   LIG A   1      -8.897   0.713 124.851  0.00  0.00    -0.455 OA
ATOM     12  C   LIG A   1      -8.927  -0.270 125.794  0.00  0.00    +0.312 C 
ATOM     13  O   LIG A   1      -9.869  -1.049 125.878  0.00  0.00    -0.251 OA
ATOM     14  C   LIG A   1      -7.729  -0.326 126.738  0.00  0.00    +0.152 C 
ATOM     15  C   LIG A   1      -7.696   0.861 129.572  0.00  0.00    +0.044 C 
ATOM     16  C   LIG A   1      -6.829   1.432 130.710  0.00  0.00    +0.089 C 
ATOM     17  C   LIG A   1      -6.487   2.879 130.507  0.00  0.00    +0.146 C 
ATOM     18  O   LIG A   1      -5.420   3.349 130.895  0.00  0.00    -0.296 OA
ATOM     19  C   LIG A   1      -7.548   1.436 132.051  0.00  0.00    +0.131 C 
ATOM     20  C   LIG A   1      -8.805   2.387 132.107  0.00  0.00    -0.004 C 
ATOM     21  C   LIG A   1      -8.894   3.502 130.929  0.00  0.00    +0.021 C 
ATOM     22  C   LIG A   1      -8.825   3.160 133.461  0.00  0.00    +0.014 C 
ATOM     23  C   LIG A   1     -10.043   1.450 132.195  0.00  0.00    +0.014 C 
ENDROOT
BRANCH  10  24
ATOM     24  C   LIG A   1      -7.699   2.211 123.370  0.00  0.00    +0.031 A 
ATOM     25  C   LIG A   1      -6.627   2.711 122.572  0.00  0.00    +0.048 A 
ATOM     26  C   LIG A   1      -7.193   3.522 121.617  0.00  0.00    +0.195 A 
ATOM     27  O   LIG A   1      -8.541   3.551 121.759  0.00  0.00    -0.471 OA
ATOM     28  C   LIG A   1      -8.843   2.747 122.809  0.00  0.00    +0.202 A 
ENDBRANCH  10  24
BRANCH  19  29
ATOM     29  O   LIG A   1      -6.613   1.715 133.100  0.00  0.00    -0.391 OA
ATOM     30  H   LIG A   1      -5.811   1.168 132.984  0.00  0.00    +0.210 HD
ENDBRANCH  19  29
BRANCH  21  31
ATOM     31  C   LIG A   1     -10.231   3.557 130.141  0.00  0.00    +0.125 C 
BRANCH  31  32
ATOM     32  C   LIG A   1     -11.008   4.851 130.228  0.00  0.00    +0.307 C 
ATOM     33  O   LIG A   1     -11.901   5.161 129.457  0.00  0.00    -0.251 OA
BRANCH  32  34
ATOM     34  O   LIG A   1     -10.512   5.630 131.227  0.00  0.00    -0.468 OA
ATOM     35  C   LIG A   1     -11.450   6.479 131.887  0.00  0.00    +0.280 C 
ENDBRANCH  32  34
ENDBRANCH  31  32
ENDBRANCH  21  31
TORSDOF 5
ENDMDL
MODEL 3
REMARK VINA RESULT:      -8.1      6.477      9.409
REMARK  Name = NuBBE_495
REMARK  10 active torsions:
REMARK  status: ('A' for Active; 'I' for Inactive)
REMARK    1  A    between atoms: C_1  and  C_2
REMARK    2  A    between atoms: C_7  and  C_10
REMARK    3  A    between atoms: C_11  and  C_17
REMARK    4  A    between atoms: C_27  and  O_39
REMARK    5  A    between atoms: C_29  and  C_37
REMARK    6  A    between atoms: C_29  and  C_38
REMARK    7  A    between atoms: C_30  and  C_32
REMARK    8  A    between atoms: C_32  and  C_33
REMARK    9  A    between atoms: C_33  and  O_35
REMARK   10  A    between atoms: O_35  and  C_36
REMARK                            x       y       z     vdW  Elec       q    Type
REMARK                         _______ _______ _______ _____ _____    ______ ____
ROOT
ATOM      1  C   LIG A   1      -7.549   4.069 134.482  0.00  0.00    +0.020 C 
ATOM      2  C   LIG A   1      -7.107   3.779 133.028  0.00  0.00    +0.037 C 
ATOM      3  C   LIG A   1      -5.831   4.618 132.623  0.00  0.00    +0.028 C 
ATOM      4  C   LIG A   1      -5.006   4.025 131.473  0.00  0.00    -0.064 C 
ATOM      5  C   LIG A   1      -3.745   4.449 131.215  0.00  0.00    -0.050 C 
ATOM      6  C   LIG A   1      -2.890   5.246 132.214  0.00  0.00    +0.031 C 
ATOM      7  C   LIG A   1      -3.784   5.924 133.274  0.00  0.00    +0.015 C 
ATOM      8  C   LIG A   1      -4.900   5.009 133.786  0.00  0.00    +0.010 C 
ATOM      9  C   LIG A   1      -1.969   4.220 132.930  0.00  0.00    +0.020 C 
ATOM     10  C   LIG A   1      -1.971   6.257 131.435  0.00  0.00    +0.219 C 
ATOM     11  O   LIG A   1      -2.617   6.717 130.227  0.00  0.00    -0.455 OA
ATOM     12  C   LIG A   1      -2.966   5.761 129.320  0.00  0.00    +0.312 C 
ATOM     13  O   LIG A   1      -3.188   6.041 128.148  0.00  0.00    -0.251 OA
ATOM     14  C   LIG A   1      -3.075   4.338 129.859  0.00  0.00    +0.152 C 
ATOM     15  C   LIG A   1      -5.716   2.979 130.649  0.00  0.00    +0.044 C 
ATOM     16  C   LIG A   1      -6.389   1.897 131.513  0.00  0.00    +0.089 C 
ATOM     17  C   LIG A   1      -6.641   2.353 132.920  0.00  0.00    +0.146 C 
ATOM     18  O   LIG A   1      -6.596   1.571 133.868  0.00  0.00    -0.296 OA
ATOM     19  C   LIG A   1      -7.781   1.533 131.018  0.00  0.00    +0.131 C 
ATOM     20  C   LIG A   1      -8.829   2.708 131.115  0.00  0.00    -0.004 C 
ATOM     21  C   LIG A   1      -8.411   3.943 132.084  0.00  0.00    +0.021 C 
ATOM     22  C   LIG A   1     -10.191   2.163 131.644  0.00  0.00    +0.014 C 
ATOM     23  C   LIG A   1      -9.139   3.123 129.649  0.00  0.00    +0.014 C 
ENDROOT
BRANCH  10  24
ATOM     24  C   LIG A   1      -1.478   7.426 132.245  0.00  0.00    +0.031 A 
ATOM     25  C   LIG A   1      -2.160   8.651 132.505  0.00  0.00    +0.048 A 
ATOM     26  C   LIG A   1      -1.320   9.414 133.282  0.00  0.00    +0.195 A 
ATOM     27  O   LIG A   1      -0.170   8.741 133.533  0.00  0.00    -0.471 OA
ATOM     28  C   LIG A   1      -0.275   7.538 132.917  0.00  0.00    +0.202 A 
ENDBRANCH  10  24
BRANCH  19  29
ATOM     29  O   LIG A   1      -8.237   0.349 131.684  0.00  0.00    -0.391 OA
ATOM     30  H   LIG A   1      -7.470  -0.188 131.968  0.00  0.00    +0.210 HD
ENDBRANCH  19  29
BRANCH  21  31
ATOM     31  C   LIG A   1      -8.490   5.360 131.456  0.00  0.00    +0.125 C 
BRANCH  31  32
ATOM     32  C   LIG A   1      -9.707   6.184 131.810  0.00  0.00    +0.307 C 
ATOM     33  O   LIG A   1     -10.044   6.443 132.954  0.00  0.00    -0.251 OA
BRANCH  32  34
ATOM     34  O   LIG A   1     -10.396   6.514 130.683  0.00  0.00    -0.468 OA
ATOM     35  C   LIG A   1     -11.604   5.792 130.449  0.00  0.00    +0.280 C 
ENDBRANCH  32  34
ENDBRANCH  31  32
ENDBRANCH  21  31
TORSDOF 5
ENDMDL
MODEL 4
REMARK VINA RESULT:      -8.0      3.232      6.722
REMARK  Name = NuBBE_495
REMARK  10 active torsions:
REMARK  status: ('A' for Active; 'I' for Inactive)
REMARK    1  A    between atoms: C_1  and  C_2
REMARK    2  A    between atoms: C_7  and  C_10
REMARK    3  A    between atoms: C_11  and  C_17
REMARK    4  A    between atoms: C_27  and  O_39
REMARK    5  A    between atoms: C_29  and  C_37
REMARK    6  A    between atoms: C_29  and  C_38
REMARK    7  A    between atoms: C_30  and  C_32
REMARK    8  A    between atoms: C_32  and  C_33
REMARK    9  A    between atoms: C_33  and  O_35
REMARK   10  A    between atoms: O_35  and  C_36
REMARK                            x       y       z     vdW  Elec       q    Type
REMARK                         _______ _______ _______ _____ _____    ______ ____
ROOT
ATOM      1  C   LIG A   1      -6.383   4.372 126.213  0.00  0.00    +0.020 C 
ATOM      2  C   LIG A   1      -5.894   3.440 127.348  0.00  0.00    +0.037 C 
ATOM      3  C   LIG A   1      -6.364   1.948 127.126  0.00  0.00    +0.028 C 
ATOM      4  C   LIG A   1      -5.508   0.889 127.836  0.00  0.00    -0.064 C 
ATOM      5  C   LIG A   1      -5.591  -0.423 127.507  0.00  0.00    -0.050 C 
ATOM      6  C   LIG A   1      -6.219  -0.940 126.202  0.00  0.00    +0.031 C 
ATOM      7  C   LIG A   1      -7.168   0.119 125.600  0.00  0.00    +0.015 C 
ATOM      8  C   LIG A   1      -6.592   1.537 125.660  0.00  0.00    +0.010 C 
ATOM      9  C   LIG A   1      -5.050  -1.176 125.207  0.00  0.00    +0.020 C 
ATOM     10  C   LIG A   1      -6.918  -2.325 126.464  0.00  0.00    +0.219 C 
ATOM     11  O   LIG A   1      -7.438  -2.394 127.809  0.00  0.00    -0.455 OA
ATOM     12  C   LIG A   1      -6.538  -2.238 128.820  0.00  0.00    +0.312 C 
ATOM     13  O   LIG A   1      -6.783  -2.616 129.960  0.00  0.00    -0.251 OA
ATOM     14  C   LIG A   1      -5.226  -1.556 128.446  0.00  0.00    +0.152 C 
ATOM     15  C   LIG A   1      -4.616   1.416 128.931  0.00  0.00    +0.044 C 
ATOM     16  C   LIG A   1      -3.794   2.642 128.491  0.00  0.00    +0.089 C 
ATOM     17  C   LIG A   1      -4.393   3.347 127.310  0.00  0.00    +0.146 C 
ATOM     18  O   LIG A   1      -3.692   3.909 126.472  0.00  0.00    -0.296 OA
ATOM     19  C   LIG A   1      -3.750   3.732 129.552  0.00  0.00    +0.131 C 
ATOM     20  C   LIG A   1      -5.152   4.388 129.862  0.00  0.00    -0.004 C 
ATOM     21  C   LIG A   1      -6.309   4.128 128.752  0.00  0.00    +0.021 C 
ATOM     22  C   LIG A   1      -4.995   5.934 129.995  0.00  0.00    +0.014 C 
ATOM     23  C   LIG A   1      -5.528   3.927 131.298  0.00  0.00    +0.014 C 
ENDROOT
BRANCH  10  24
ATOM     24  C   LIG A   1      -7.982  -2.701 125.468  0.00  0.00    +0.031 A 
ATOM     25  C   LIG A   1      -7.801  -3.061 124.099  0.00  0.00    +0.048 A 
ATOM     26  C   LIG A   1      -9.052  -3.315 123.589  0.00  0.00    +0.195 A 
ATOM     27  O   LIG A   1      -9.995  -3.150 124.549  0.00  0.00    -0.471 OA
ATOM     28  C   LIG A   1      -9.344  -2.793 125.684  0.00  0.00    +0.202 A 
ENDBRANCH  10  24
BRANCH  19  29
ATOM     29  O   LIG A   1      -2.763   4.709 129.202  0.00  0.00    -0.391 OA
ATOM     30  H   LIG A   1      -3.200   5.543 128.935  0.00  0.00    +0.210 HD
ENDBRANCH  19  29
BRANCH  21  31
ATOM     31  C   LIG A   1      -7.655   3.573 129.289  0.00  0.00    +0.125 C 
BRANCH  31  32
ATOM     32  C   LIG A   1      -8.785   4.569 129.424  0.00  0.00    +0.307 C 
ATOM     33  O   LIG A   1      -8.639   5.778 129.354  0.00  0.00    -0.251 OA
BRANCH  32  34
ATOM     34  O   LIG A   1      -9.949   3.922 129.708  0.00  0.00    -0.468 OA
ATOM     35  C   LIG A   1     -10.875   4.628 130.533  0.00  0.00    +0.280 C 
ENDBRANCH  32  34
ENDBRANCH  31  32
ENDBRANCH  21  31
TORSDOF 5
ENDMDL
MODEL 5
REMARK VINA RESULT:      -7.8      2.061      7.374
REMARK  Name = NuBBE_495
REMARK  10 active torsions:
REMARK  status: ('A' for Active; 'I' for Inactive)
REMARK    1  A    between atoms: C_1  and  C_2
REMARK    2  A    between atoms: C_7  and  C_10
REMARK    3  A    between atoms: C_11  and  C_17
REMARK    4  A    between atoms: C_27  and  O_39
REMARK    5  A    between atoms: C_29  and  C_37
REMARK    6  A    between atoms: C_29  and  C_38
REMARK    7  A    between atoms: C_30  and  C_32
REMARK    8  A    between atoms: C_32  and  C_33
REMARK    9  A    between atoms: C_33  and  O_35
REMARK   10  A    between atoms: O_35  and  C_36
REMARK                            x       y       z     vdW  Elec       q    Type
REMARK                         _______ _______ _______ _____ _____    ______ ____
ROOT
ATOM      1  C   LIG A   1      -4.623   0.597 130.626  0.00  0.00    +0.020 C 
ATOM      2  C   LIG A   1      -5.428  -0.668 130.244  0.00  0.00    +0.037 C 
ATOM      3  C   LIG A   1      -6.182  -0.490 128.867  0.00  0.00    +0.028 C 
ATOM      4  C   LIG A   1      -6.526  -1.801 128.145  0.00  0.00    -0.064 C 
ATOM      5  C   LIG A   1      -6.890  -1.814 126.840  0.00  0.00    -0.050 C 
ATOM      6  C   LIG A   1      -6.644  -0.645 125.871  0.00  0.00    +0.031 C 
ATOM      7  C   LIG A   1      -6.431   0.670 126.651  0.00  0.00    +0.015 C 
ATOM      8  C   LIG A   1      -5.532   0.496 127.879  0.00  0.00    +0.010 C 
ATOM      9  C   LIG A   1      -5.340  -0.976 125.096  0.00  0.00    +0.020 C 
ATOM     10  C   LIG A   1      -7.819  -0.567 124.827  0.00  0.00    +0.219 C 
ATOM     11  O   LIG A   1      -9.062  -1.010 125.415  0.00  0.00    -0.455 OA
ATOM     12  C   LIG A   1      -9.086  -2.282 125.904  0.00  0.00    +0.312 C 
ATOM     13  O   LIG A   1     -10.142  -2.874 126.096  0.00  0.00    -0.251 OA
ATOM     14  C   LIG A   1      -7.728  -2.907 126.206  0.00  0.00    +0.152 C 
ATOM     15  C   LIG A   1      -6.461  -3.040 129.002  0.00  0.00    +0.044 C 
ATOM     16  C   LIG A   1      -5.155  -3.136 129.812  0.00  0.00    +0.089 C 
ATOM     17  C   LIG A   1      -4.481  -1.806 129.983  0.00  0.00    +0.146 C 
ATOM     18  O   LIG A   1      -3.257  -1.708 130.039  0.00  0.00    -0.296 OA
ATOM     19  C   LIG A   1      -5.385  -3.589 131.246  0.00  0.00    +0.131 C 
ATOM     20  C   LIG A   1      -6.220  -2.573 132.118  0.00  0.00    -0.004 C 
ATOM     21  C   LIG A   1      -6.337  -1.067 131.521  0.00  0.00    +0.021 C 
ATOM     22  C   LIG A   1      -5.587  -2.447 133.538  0.00  0.00    +0.014 C 
ATOM     23  C   LIG A   1      -7.588  -3.264 132.382  0.00  0.00    +0.014 C 
ENDROOT
BRANCH  10  24
ATOM     24  C   LIG A   1      -7.997   0.773 124.167  0.00  0.00    +0.031 A 
ATOM     25  C   LIG A   1      -7.144   1.386 123.202  0.00  0.00    +0.048 A 
ATOM     26  C   LIG A   1      -7.706   2.603 122.894  0.00  0.00    +0.195 A 
ATOM     27  O   LIG A   1      -8.855   2.782 123.592  0.00  0.00    -0.471 OA
ATOM     28  C   LIG A   1      -9.034   1.671 124.348  0.00  0.00    +0.202 A 
ENDBRANCH  10  24
BRANCH  19  29
ATOM     29  O   LIG A   1      -4.131  -3.919 131.856  0.00  0.00    -0.391 OA
ATOM     30  H   LIG A   1      -3.541  -4.337 131.198  0.00  0.00    +0.210 HD
ENDBRANCH  19  29
BRANCH  21  31
ATOM     31  C   LIG A   1      -7.773  -0.488 131.408  0.00  0.00    +0.125 C 
BRANCH  31  32
ATOM     32  C   LIG A   1      -8.063   0.750 132.225  0.00  0.00    +0.307 C 
ATOM     33  O   LIG A   1      -7.587   0.965 133.327  0.00  0.00    -0.251 OA
BRANCH  32  34
ATOM     34  O   LIG A   1      -8.979   1.530 131.587  0.00  0.00    -0.468 OA
ATOM     35  C   LIG A   1      -8.636   1.951 130.267  0.00  0.00    +0.280 C 
ENDBRANCH  32  34
ENDBRANCH  31  32
ENDBRANCH  21  31
TORSDOF 5
ENDMDL
MODEL 6
REMARK VINA RESULT:      -7.8      2.152      3.842
REMARK  Name = NuBBE_495
REMARK  10 active torsions:
REMARK  status: ('A' for Active; 'I' for Inactive)
REMARK    1  A    between atoms: C_1  and  C_2
REMARK    2  A    between atoms: C_7  and  C_10
REMARK    3  A    between atoms: C_11  and  C_17
REMARK    4  A    between atoms: C_27  and  O_39
REMARK    5  A    between atoms: C_29  and  C_37
REMARK    6  A    between atoms: C_29  and  C_38
REMARK    7  A    between atoms: C_30  and  C_32
REMARK    8  A    between atoms: C_32  and  C_33
REMARK    9  A    between atoms: C_33  and  O_35
REMARK   10  A    between atoms: O_35  and  C_36
REMARK                            x       y       z     vdW  Elec       q    Type
REMARK                         _______ _______ _______ _____ _____    ______ ____
ROOT
ATOM      1  C   LIG A   1      -5.529  -1.774 125.991  0.00  0.00    +0.020 C 
ATOM      2  C   LIG A   1      -6.481  -0.694 126.561  0.00  0.00    +0.037 C 
ATOM      3  C   LIG A   1      -6.730  -0.889 128.109  0.00  0.00    +0.028 C 
ATOM      4  C   LIG A   1      -7.169   0.378 128.857  0.00  0.00    -0.064 C 
ATOM      5  C   LIG A   1      -7.127   0.450 130.209  0.00  0.00    -0.050 C 
ATOM      6  C   LIG A   1      -6.322  -0.517 131.094  0.00  0.00    +0.031 C 
ATOM      7  C   LIG A   1      -6.019  -1.825 130.331  0.00  0.00    +0.015 C 
ATOM      8  C   LIG A   1      -5.593  -1.584 128.880  0.00  0.00    +0.010 C 
ATOM      9  C   LIG A   1      -4.976   0.189 131.415  0.00  0.00    +0.020 C 
ATOM     10  C   LIG A   1      -7.081  -0.749 132.452  0.00  0.00    +0.219 C 
ATOM     11  O   LIG A   1      -8.511  -0.672 132.263  0.00  0.00    -0.455 OA
ATOM     12  C   LIG A   1      -8.998   0.499 131.763  0.00  0.00    +0.312 C 
ATOM     13  O   LIG A   1     -10.178   0.806 131.887  0.00  0.00    -0.251 OA
ATOM     14  C   LIG A   1      -7.992   1.383 131.034  0.00  0.00    +0.152 C 
ATOM     15  C   LIG A   1      -7.673   1.497 127.980  0.00  0.00    +0.044 C 
ATOM     16  C   LIG A   1      -6.728   1.802 126.803  0.00  0.00    +0.089 C 
ATOM     17  C   LIG A   1      -5.819   0.654 126.477  0.00  0.00    +0.146 C 
ATOM     18  O   LIG A   1      -4.682   0.835 126.048  0.00  0.00    -0.296 OA
ATOM     19  C   LIG A   1      -7.473   2.030 125.496  0.00  0.00    +0.131 C 
ATOM     20  C   LIG A   1      -8.241   0.759 124.961  0.00  0.00    -0.004 C 
ATOM     21  C   LIG A   1      -7.793  -0.659 125.615  0.00  0.00    +0.021 C 
ATOM     22  C   LIG A   1      -8.038   0.627 123.420  0.00  0.00    +0.014 C 
ATOM     23  C   LIG A   1      -9.754   1.083 125.111  0.00  0.00    +0.014 C 
ENDROOT
BRANCH  10  24
ATOM     24  C   LIG A   1      -6.714  -2.014 133.180  0.00  0.00    +0.031 A 
ATOM     25  C   LIG A   1      -7.461  -3.227 133.242  0.00  0.00    +0.048 A 
ATOM     26  C   LIG A   1      -6.737  -4.097 134.022  0.00  0.00    +0.195 A 
ATOM     27  O   LIG A   1      -5.586  -3.512 134.438  0.00  0.00    -0.471 OA
ATOM     28  C   LIG A   1      -5.570  -2.261 133.916  0.00  0.00    +0.202 A 
ENDBRANCH  10  24
BRANCH  19  29
ATOM     29  O   LIG A   1      -6.578   2.571 124.517  0.00  0.00    -0.391 OA
ATOM     30  H   LIG A   1      -6.385   1.897 123.835  0.00  0.00    +0.210 HD
ENDBRANCH  19  29
BRANCH  21  31
ATOM     31  C   LIG A   1      -8.938  -1.537 126.187  0.00  0.00    +0.125 C 
BRANCH  31  32
ATOM     32  C   LIG A   1      -9.151  -2.878 125.523  0.00  0.00    +0.307 C 
ATOM     33  O   LIG A   1      -9.795  -3.036 124.499  0.00  0.00    -0.251 OA
BRANCH  32  34
ATOM     34  O   LIG A   1      -8.590  -3.867 126.271  0.00  0.00    -0.468 OA
ATOM     35  C   LIG A   1      -8.896  -3.852 127.665  0.00  0.00    +0.280 C 
ENDBRANCH  32  34
ENDBRANCH  31  32
ENDBRANCH  21  31
TORSDOF 5
ENDMDL
MODEL 7
REMARK VINA RESULT:      -7.7      3.573      6.937
REMARK  Name = NuBBE_495
REMARK  10 active torsions:
REMARK  status: ('A' for Active; 'I' for Inactive)
REMARK    1  A    between atoms: C_1  and  C_2
REMARK    2  A    between atoms: C_7  and  C_10
REMARK    3  A    between atoms: C_11  and  C_17
REMARK    4  A    between atoms: C_27  and  O_39
REMARK    5  A    between atoms: C_29  and  C_37
REMARK    6  A    between atoms: C_29  and  C_38
REMARK    7  A    between atoms: C_30  and  C_32
REMARK    8  A    between atoms: C_32  and  C_33
REMARK    9  A    between atoms: C_33  and  O_35
REMARK   10  A    between atoms: O_35  and  C_36
REMARK                            x       y       z     vdW  Elec       q    Type
REMARK                         _______ _______ _______ _____ _____    ______ ____
ROOT
ATOM      1  C   LIG A   1      -7.851  -1.768 132.449  0.00  0.00    +0.020 C 
ATOM      2  C   LIG A   1      -6.872  -1.040 131.496  0.00  0.00    +0.037 C 
ATOM      3  C   LIG A   1      -7.335   0.441 131.198  0.00  0.00    +0.028 C 
ATOM      4  C   LIG A   1      -6.213   1.391 130.755  0.00  0.00    -0.064 C 
ATOM      5  C   LIG A   1      -6.384   2.735 130.757  0.00  0.00    -0.050 C 
ATOM      6  C   LIG A   1      -7.509   3.454 131.522  0.00  0.00    +0.031 C 
ATOM      7  C   LIG A   1      -8.665   2.478 131.829  0.00  0.00    +0.015 C 
ATOM      8  C   LIG A   1      -8.177   1.106 132.302  0.00  0.00    +0.010 C 
ATOM      9  C   LIG A   1      -6.898   3.932 132.867  0.00  0.00    +0.020 C 
ATOM     10  C   LIG A   1      -7.964   4.728 130.719  0.00  0.00    +0.219 C 
ATOM     11  O   LIG A   1      -7.828   4.518 129.297  0.00  0.00    -0.455 OA
ATOM     12  C   LIG A   1      -6.577   4.222 128.842  0.00  0.00    +0.312 C 
ATOM     13  O   LIG A   1      -6.274   4.368 127.663  0.00  0.00    -0.251 OA
ATOM     14  C   LIG A   1      -5.597   3.690 129.882  0.00  0.00    +0.152 C 
ATOM     15  C   LIG A   1      -4.947   0.716 130.293  0.00  0.00    +0.044 C 
ATOM     16  C   LIG A   1      -4.454  -0.363 131.276  0.00  0.00    +0.089 C 
ATOM     17  C   LIG A   1      -5.544  -0.864 132.179  0.00  0.00    +0.146 C 
ATOM     18  O   LIG A   1      -5.311  -1.223 133.331  0.00  0.00    -0.296 OA
ATOM     19  C   LIG A   1      -3.983  -1.628 130.574  0.00  0.00    +0.131 C 
ATOM     20  C   LIG A   1      -5.123  -2.402 129.805  0.00  0.00    -0.004 C 
ATOM     21  C   LIG A   1      -6.643  -1.999 130.213  0.00  0.00    +0.021 C 
ATOM     22  C   LIG A   1      -4.982  -3.935 130.051  0.00  0.00    +0.014 C 
ATOM     23  C   LIG A   1      -4.803  -2.237 128.293  0.00  0.00    +0.014 C 
ENDROOT
BRANCH  10  24
ATOM     24  C   LIG A   1      -9.346   5.228 131.047  0.00  0.00    +0.031 A 
ATOM     25  C   LIG A   1      -9.729   6.068 132.134  0.00  0.00    +0.048 A 
ATOM     26  C   LIG A   1     -11.088   6.253 132.030  0.00  0.00    +0.195 A 
ATOM     27  O   LIG A   1     -11.572   5.596 130.947  0.00  0.00    -0.471 OA
ATOM     28  C   LIG A   1     -10.516   4.990 130.349  0.00  0.00    +0.202 A 
ENDBRANCH  10  24
BRANCH  19  29
ATOM     29  O   LIG A   1      -3.294  -2.470 131.505  0.00  0.00    -0.391 OA
ATOM     30  H   LIG A   1      -2.862  -3.207 131.030  0.00  0.00    +0.210 HD
ENDBRANCH  19  29
BRANCH  21  31
ATOM     31  C   LIG A   1      -7.587  -1.624 129.039  0.00  0.00    +0.125 C 
BRANCH  31  32
ATOM     32  C   LIG A   1      -8.284  -2.773 128.346  0.00  0.00    +0.307 C 
ATOM     33  O   LIG A   1      -8.890  -3.654 128.931  0.00  0.00    -0.251 OA
BRANCH  32  34
ATOM     34  O   LIG A   1      -8.065  -2.713 127.004  0.00  0.00    -0.468 OA
ATOM     35  C   LIG A   1      -9.203  -2.928 126.170  0.00  0.00    +0.280 C 
ENDBRANCH  32  34
ENDBRANCH  31  32
ENDBRANCH  21  31
TORSDOF 5
ENDMDL
MODEL 8
REMARK VINA RESULT:      -7.6      3.014      5.583
REMARK  Name = NuBBE_495
REMARK  10 active torsions:
REMARK  status: ('A' for Active; 'I' for Inactive)
REMARK    1  A    between atoms: C_1  and  C_2
REMARK    2  A    between atoms: C_7  and  C_10
REMARK    3  A    between atoms: C_11  and  C_17
REMARK    4  A    between atoms: C_27  and  O_39
REMARK    5  A    between atoms: C_29  and  C_37
REMARK    6  A    between atoms: C_29  and  C_38
REMARK    7  A    between atoms: C_30  and  C_32
REMARK    8  A    between atoms: C_32  and  C_33
REMARK    9  A    between atoms: C_33  and  O_35
REMARK   10  A    between atoms: O_35  and  C_36
REMARK                            x       y       z     vdW  Elec       q    Type
REMARK                         _______ _______ _______ _____ _____    ______ ____
ROOT
ATOM      1  C   LIG A   1      -5.895   3.980 129.027  0.00  0.00    +0.020 C 
ATOM      2  C   LIG A   1      -6.220   3.136 127.771  0.00  0.00    +0.037 C 
ATOM      3  C   LIG A   1      -5.989   1.593 128.025  0.00  0.00    +0.028 C 
ATOM      4  C   LIG A   1      -6.779   0.661 127.095  0.00  0.00    -0.064 C 
ATOM      5  C   LIG A   1      -6.927  -0.656 127.375  0.00  0.00    -0.050 C 
ATOM      6  C   LIG A   1      -6.675  -1.270 128.763  0.00  0.00    +0.031 C 
ATOM      7  C   LIG A   1      -5.770  -0.347 129.608  0.00  0.00    +0.015 C 
ATOM      8  C   LIG A   1      -6.148   1.132 129.485  0.00  0.00    +0.010 C 
ATOM      9  C   LIG A   1      -8.058  -1.378 129.460  0.00  0.00    +0.020 C 
ATOM     10  C   LIG A   1      -6.101  -2.726 128.602  0.00  0.00    +0.219 C 
ATOM     11  O   LIG A   1      -5.301  -2.835 127.404  0.00  0.00    -0.455 OA
ATOM     12  C   LIG A   1      -5.924  -2.552 126.226  0.00  0.00    +0.312 C 
ATOM     13  O   LIG A   1      -5.473  -2.937 125.153  0.00  0.00    -0.251 OA
ATOM     14  C   LIG A   1      -7.198  -1.719 126.329  0.00  0.00    +0.152 C 
ATOM     15  C   LIG A   1      -7.332   1.314 125.853  0.00  0.00    +0.044 C 
ATOM     16  C   LIG A   1      -8.084   2.624 126.154  0.00  0.00    +0.089 C 
ATOM     17  C   LIG A   1      -7.690   3.228 127.470  0.00  0.00    +0.146 C 
ATOM     18  O   LIG A   1      -8.493   3.858 128.155  0.00  0.00    -0.296 OA
ATOM     19  C   LIG A   1      -7.759   3.729 125.160  0.00  0.00    +0.131 C 
ATOM     20  C   LIG A   1      -6.258   4.212 125.200  0.00  0.00    -0.004 C 
ATOM     21  C   LIG A   1      -5.420   3.792 126.527  0.00  0.00    +0.021 C 
ATOM     22  C   LIG A   1      -6.199   5.768 125.105  0.00  0.00    +0.014 C 
ATOM     23  C   LIG A   1      -5.622   3.733 123.865  0.00  0.00    +0.014 C 
ENDROOT
BRANCH  10  24
ATOM     24  C   LIG A   1      -5.342  -3.248 129.792  0.00  0.00    +0.031 A 
ATOM     25  C   LIG A   1      -3.933  -3.202 130.010  0.00  0.00    +0.048 A 
ATOM     26  C   LIG A   1      -3.702  -3.801 131.226  0.00  0.00    +0.195 A 
ATOM     27  O   LIG A   1      -4.871  -4.205 131.782  0.00  0.00    -0.471 OA
ATOM     28  C   LIG A   1      -5.858  -3.857 130.920  0.00  0.00    +0.202 A 
ENDBRANCH  10  24
BRANCH  19  29
ATOM     29  O   LIG A   1      -8.679   4.814 125.325  0.00  0.00    -0.391 OA
ATOM     30  H   LIG A   1      -9.415   4.726 124.687  0.00  0.00    +0.210 HD
ENDBRANCH  19  29
BRANCH  21  31
ATOM     31  C   LIG A   1      -4.061   3.084 126.279  0.00  0.00    +0.125 C 
BRANCH  31  32
ATOM     32  C   LIG A   1      -2.823   3.849 126.687  0.00  0.00    +0.307 C 
ATOM     33  O   LIG A   1      -1.692   3.395 126.629  0.00  0.00    -0.251 OA
BRANCH  32  34
ATOM     34  O   LIG A   1      -3.167   5.066 127.192  0.00  0.00    -0.468 OA
ATOM     35  C   LIG A   1      -2.580   5.416 128.445  0.00  0.00    +0.280 C 
ENDBRANCH  32  34
ENDBRANCH  31  32
ENDBRANCH  21  31
TORSDOF 5
ENDMDL
MODEL 9
REMARK VINA RESULT:      -7.6      3.374      4.961
REMARK  Name = NuBBE_495
REMARK  10 active torsions:
REMARK  status: ('A' for Active; 'I' for Inactive)
REMARK    1  A    between atoms: C_1  and  C_2
REMARK    2  A    between atoms: C_7  and  C_10
REMARK    3  A    between atoms: C_11  and  C_17
REMARK    4  A    between atoms: C_27  and  O_39
REMARK    5  A    between atoms: C_29  and  C_37
REMARK    6  A    between atoms: C_29  and  C_38
REMARK    7  A    between atoms: C_30  and  C_32
REMARK    8  A    between atoms: C_32  and  C_33
REMARK    9  A    between atoms: C_33  and  O_35
REMARK   10  A    between atoms: O_35  and  C_36
REMARK                            x       y       z     vdW  Elec       q    Type
REMARK                         _______ _______ _______ _____ _____    ______ ____
ROOT
ATOM      1  C   LIG A   1      -7.942   3.218 126.222  0.00  0.00    +0.020 C 
ATOM      2  C   LIG A   1      -7.641   1.804 126.776  0.00  0.00    +0.037 C 
ATOM      3  C   LIG A   1      -7.513   1.807 128.351  0.00  0.00    +0.028 C 
ATOM      4  C   LIG A   1      -7.773   0.451 129.022  0.00  0.00    -0.064 C 
ATOM      5  C   LIG A   1      -7.998   0.353 130.355  0.00  0.00    -0.050 C 
ATOM      6  C   LIG A   1      -8.386   1.545 131.246  0.00  0.00    +0.031 C 
ATOM      7  C   LIG A   1      -7.986   2.877 130.576  0.00  0.00    +0.015 C 
ATOM      8  C   LIG A   1      -8.304   2.909 129.078  0.00  0.00    +0.010 C 
ATOM      9  C   LIG A   1      -9.932   1.510 131.388  0.00  0.00    +0.020 C 
ATOM     10  C   LIG A   1      -7.766   1.358 132.680  0.00  0.00    +0.219 C 
ATOM     11  O   LIG A   1      -6.508   0.652 132.609  0.00  0.00    -0.455 OA
ATOM     12  C   LIG A   1      -6.537  -0.593 132.055  0.00  0.00    +0.312 C 
ATOM     13  O   LIG A   1      -5.639  -1.404 132.253  0.00  0.00    -0.251 OA
ATOM     14  C   LIG A   1      -7.740  -0.900 131.168  0.00  0.00    +0.152 C 
ATOM     15  C   LIG A   1      -7.720  -0.741 128.100  0.00  0.00    +0.044 C 
ATOM     16  C   LIG A   1      -8.558  -0.543 126.823  0.00  0.00    +0.089 C 
ATOM     17  C   LIG A   1      -8.818   0.904 126.520  0.00  0.00    +0.146 C 
ATOM     18  O   LIG A   1      -9.860   1.271 125.980  0.00  0.00    -0.296 OA
ATOM     19  C   LIG A   1      -7.846  -1.031 125.570  0.00  0.00    +0.131 C 
ATOM     20  C   LIG A   1      -6.538  -0.224 125.215  0.00  0.00    -0.004 C 
ATOM     21  C   LIG A   1      -6.382   1.217 125.948  0.00  0.00    +0.021 C 
ATOM     22  C   LIG A   1      -6.481   0.044 123.680  0.00  0.00    +0.014 C 
ATOM     23  C   LIG A   1      -5.355  -1.200 125.466  0.00  0.00    +0.014 C 
ENDROOT
BRANCH  10  24
ATOM     24  C   LIG A   1      -7.615   2.624 133.480  0.00  0.00    +0.031 A 
ATOM     25  C   LIG A   1      -8.653   3.477 133.958  0.00  0.00    +0.048 A 
ATOM     26  C   LIG A   1      -8.039   4.508 134.629  0.00  0.00    +0.195 A 
ATOM     27  O   LIG A   1      -6.693   4.347 134.611  0.00  0.00    -0.471 OA
ATOM     28  C   LIG A   1      -6.442   3.203 133.929  0.00  0.00    +0.202 A 
ENDBRANCH  10  24
BRANCH  19  29
ATOM     29  O   LIG A   1      -8.768  -1.073 124.475  0.00  0.00    -0.391 OA
ATOM     30  H   LIG A   1      -9.458  -0.390 124.594  0.00  0.00    +0.210 HD
ENDBRANCH  19  29
BRANCH  21  31
ATOM     31  C   LIG A   1      -5.041   1.463 126.690  0.00  0.00    +0.125 C 
BRANCH  31  32
ATOM     32  C   LIG A   1      -4.314   2.745 126.355  0.00  0.00    +0.307 C 
ATOM     33  O   LIG A   1      -4.602   3.464 125.413  0.00  0.00    -0.251 OA
BRANCH  32  34
ATOM     34  O   LIG A   1      -3.263   2.924 127.201  0.00  0.00    -0.468 OA
ATOM     35  C   LIG A   1      -1.986   3.104 126.589  0.00  0.00    +0.280 C 
ENDBRANCH  32  34
ENDBRANCH  31  32
ENDBRANCH  21  31
TORSDOF 5
ENDMDL
