MODEL 1
REMARK VINA RESULT:      -7.3      0.000      0.000
REMARK  Name = NuBBE_2463
REMARK  13 active torsions:
REMARK  status: ('A' for Active; 'I' for Inactive)
REMARK    1  A    between atoms: C_1  and  O_2
REMARK    2  A    between atoms: O_2  and  C_3
REMARK    3  A    between atoms: C_4  and  O_5
REMARK    4  A    between atoms: O_5  and  C_6
REMARK    5  A    between atoms: C_9  and  C_11
REMARK    6  A    between atoms: C_14  and  O_15
REMARK    7  A    between atoms: O_15  and  C_16
REMARK    8  A    between atoms: C_17  and  O_18
REMARK    9  A    between atoms: O_18  and  C_19
REMARK   10  A    between atoms: C_21  and  C_23
REMARK   11  A    between atoms: C_23  and  O_24
REMARK   12  A    between atoms: C_25  and  C_27
REMARK   13  A    between atoms: C_27  and  O_28
REMARK                            x       y       z     vdW  Elec       q    Type
REMARK                         _______ _______ _______ _____ _____    ______ ____
ROOT
ATOM      1  C   LIG A   1      -7.224   2.301 124.346  0.00  0.00    +0.162 A 
ATOM      2  C   LIG A   1      -8.072   2.033 125.428  0.00  0.00    +0.162 A 
ATOM      3  C   LIG A   1      -8.411   0.706 125.719  0.00  0.00    +0.053 A 
ATOM      4  C   LIG A   1      -7.898  -0.376 124.958  0.00  0.00    -0.033 A 
ATOM      5  C   LIG A   1      -8.300  -1.805 125.291  0.00  0.00    +0.055 C 
ATOM      6  C   LIG A   1      -7.978  -2.831 124.149  0.00  0.00    +0.032 C 
ATOM      7  C   LIG A   1      -6.626  -2.558 123.428  0.00  0.00    +0.025 C 
ATOM      8  C   LIG A   1      -6.535  -1.127 122.914  0.00  0.00    +0.041 C 
ATOM      9  C   LIG A   1      -7.035  -0.091 123.885  0.00  0.00    -0.040 A 
ATOM     10  C   LIG A   1      -6.700   1.233 123.607  0.00  0.00    +0.053 A 
ENDROOT
BRANCH   5  11
ATOM     11  C   LIG A   1      -7.835  -2.307 126.673  0.00  0.00    -0.036 A 
ATOM     12  C   LIG A   1      -8.663  -3.176 127.401  0.00  0.00    +0.008 A 
ATOM     13  C   LIG A   1      -8.278  -3.668 128.658  0.00  0.00    +0.050 A 
ATOM     14  C   LIG A   1      -7.041  -3.336 129.216  0.00  0.00    +0.162 A 
ATOM     15  C   LIG A   1      -6.195  -2.470 128.503  0.00  0.00    +0.162 A 
ATOM     16  C   LIG A   1      -6.617  -1.940 127.268  0.00  0.00    +0.053 A 
BRANCH  14  17
ATOM     17  O   LIG A   1      -6.612  -3.787 130.435  0.00  0.00    -0.491 OA
ATOM     18  C   LIG A   1      -7.034  -3.108 131.608  0.00  0.00    +0.277 C 
ENDBRANCH  14  17
BRANCH  15  19
ATOM     19  O   LIG A   1      -4.962  -2.017 128.901  0.00  0.00    -0.491 OA
ATOM     20  C   LIG A   1      -4.922  -0.745 129.540  0.00  0.00    +0.277 C 
ENDBRANCH  15  19
ENDBRANCH   5  11
BRANCH   1  22
ATOM     21  C   LIG A   1      -6.021   3.777 122.906  0.00  0.00    +0.277 C 
ATOM     22  O   LIG A   1      -6.886   3.583 124.024  0.00  0.00    -0.491 OA
ENDBRANCH   1  22
BRANCH   2  23
ATOM     23  O   LIG A   1      -8.626   2.964 126.264  0.00  0.00    -0.491 OA
ATOM     24  C   LIG A   1      -7.857   3.349 127.405  0.00  0.00    +0.277 C 
ENDBRANCH   2  23
BRANCH   6  25
ATOM     25  C   LIG A   1      -9.150  -2.893 123.132  0.00  0.00    +0.160 C 
BRANCH  25  26
ATOM     26  O   LIG A   1     -10.257  -3.639 123.609  0.00  0.00    -0.395 OA
ATOM     27  H   LIG A   1     -10.140  -3.783 124.563  0.00  0.00    +0.209 HD
ENDBRANCH  25  26
ENDBRANCH   6  25
BRANCH   7  28
ATOM     28  C   LIG A   1      -5.405  -2.903 124.294  0.00  0.00    +0.160 C 
BRANCH  28  29
ATOM     29  O   LIG A   1      -4.585  -3.865 123.632  0.00  0.00    -0.395 OA
ATOM     30  H   LIG A   1      -4.730  -4.713 124.089  0.00  0.00    +0.209 HD
ENDBRANCH  28  29
ENDBRANCH   7  28
TORSDOF 9
ENDMDL
MODEL 2
REMARK VINA RESULT:      -6.5      2.965      6.380
REMARK  Name = NuBBE_2463
REMARK  13 active torsions:
REMARK  status: ('A' for Active; 'I' for Inactive)
REMARK    1  A    between atoms: C_1  and  O_2
REMARK    2  A    between atoms: O_2  and  C_3
REMARK    3  A    between atoms: C_4  and  O_5
REMARK    4  A    between atoms: O_5  and  C_6
REMARK    5  A    between atoms: C_9  and  C_11
REMARK    6  A    between atoms: C_14  and  O_15
REMARK    7  A    between atoms: O_15  and  C_16
REMARK    8  A    between atoms: C_17  and  O_18
REMARK    9  A    between atoms: O_18  and  C_19
REMARK   10  A    between atoms: C_21  and  C_23
REMARK   11  A    between atoms: C_23  and  O_24
REMARK   12  A    between atoms: C_25  and  C_27
REMARK   13  A    between atoms: C_27  and  O_28
REMARK                            x       y       z     vdW  Elec       q    Type
REMARK                         _______ _______ _______ _____ _____    ______ ____
ROOT
ATOM      1  C   LIG A   1      -8.539  -1.048 124.642  0.00  0.00    +0.162 A 
ATOM      2  C   LIG A   1      -7.212  -1.251 125.041  0.00  0.00    +0.162 A 
ATOM      3  C   LIG A   1      -6.348  -0.153 125.128  0.00  0.00    +0.053 A 
ATOM      4  C   LIG A   1      -6.791   1.165 124.843  0.00  0.00    -0.033 A 
ATOM      5  C   LIG A   1      -5.822   2.335 124.930  0.00  0.00    +0.055 C 
ATOM      6  C   LIG A   1      -6.340   3.635 124.222  0.00  0.00    +0.032 C 
ATOM      7  C   LIG A   1      -7.865   3.882 124.409  0.00  0.00    +0.025 C 
ATOM      8  C   LIG A   1      -8.692   2.671 123.994  0.00  0.00    +0.041 C 
ATOM      9  C   LIG A   1      -8.131   1.354 124.459  0.00  0.00    -0.040 A 
ATOM     10  C   LIG A   1      -8.983   0.253 124.382  0.00  0.00    +0.053 A 
ENDROOT
BRANCH   5  11
ATOM     11  C   LIG A   1      -5.272   2.621 126.342  0.00  0.00    -0.036 A 
ATOM     12  C   LIG A   1      -5.949   2.104 127.459  0.00  0.00    +0.008 A 
ATOM     13  C   LIG A   1      -5.480   2.329 128.763  0.00  0.00    +0.050 A 
ATOM     14  C   LIG A   1      -4.305   3.047 128.994  0.00  0.00    +0.162 A 
ATOM     15  C   LIG A   1      -3.611   3.571 127.891  0.00  0.00    +0.162 A 
ATOM     16  C   LIG A   1      -4.121   3.385 126.591  0.00  0.00    +0.053 A 
BRANCH  14  17
ATOM     17  O   LIG A   1      -3.799   3.295 130.243  0.00  0.00    -0.491 OA
ATOM     18  C   LIG A   1      -4.347   4.357 131.009  0.00  0.00    +0.277 C 
ENDBRANCH  14  17
BRANCH  15  19
ATOM     19  O   LIG A   1      -2.458   4.317 127.926  0.00  0.00    -0.491 OA
ATOM     20  C   LIG A   1      -2.614   5.732 127.989  0.00  0.00    +0.277 C 
ENDBRANCH  15  19
ENDBRANCH   5  11
BRANCH   1  22
ATOM     21  C   LIG A   1      -9.354  -2.871 123.334  0.00  0.00    +0.277 C 
ATOM     22  O   LIG A   1      -9.403  -2.099 124.532  0.00  0.00    -0.491 OA
ENDBRANCH   1  22
BRANCH   2  23
ATOM     23  O   LIG A   1      -6.646  -2.453 125.369  0.00  0.00    -0.491 OA
ATOM     24  C   LIG A   1      -5.754  -3.031 124.414  0.00  0.00    +0.277 C 
ENDBRANCH   2  23
BRANCH   6  25
ATOM     25  C   LIG A   1      -5.958   3.620 122.717  0.00  0.00    +0.160 C 
BRANCH  25  26
ATOM     26  O   LIG A   1      -5.209   4.757 122.325  0.00  0.00    -0.395 OA
ATOM     27  H   LIG A   1      -4.744   4.546 121.498  0.00  0.00    +0.209 HD
ENDBRANCH  25  26
ENDBRANCH   6  25
BRANCH   7  28
ATOM     28  C   LIG A   1      -8.231   4.326 125.834  0.00  0.00    +0.160 C 
BRANCH  28  29
ATOM     29  O   LIG A   1      -8.811   5.628 125.812  0.00  0.00    -0.395 OA
ATOM     30  H   LIG A   1      -8.867   5.922 126.740  0.00  0.00    +0.209 HD
ENDBRANCH  28  29
ENDBRANCH   7  28
TORSDOF 9
ENDMDL
MODEL 3
REMARK VINA RESULT:      -6.5      6.338     10.020
REMARK  Name = NuBBE_2463
REMARK  13 active torsions:
REMARK  status: ('A' for Active; 'I' for Inactive)
REMARK    1  A    between atoms: C_1  and  O_2
REMARK    2  A    between atoms: O_2  and  C_3
REMARK    3  A    between atoms: C_4  and  O_5
REMARK    4  A    between atoms: O_5  and  C_6
REMARK    5  A    between atoms: C_9  and  C_11
REMARK    6  A    between atoms: C_14  and  O_15
REMARK    7  A    between atoms: O_15  and  C_16
REMARK    8  A    between atoms: C_17  and  O_18
REMARK    9  A    between atoms: O_18  and  C_19
REMARK   10  A    between atoms: C_21  and  C_23
REMARK   11  A    between atoms: C_23  and  O_24
REMARK   12  A    between atoms: C_25  and  C_27
REMARK   13  A    between atoms: C_27  and  O_28
REMARK                            x       y       z     vdW  Elec       q    Type
REMARK                         _______ _______ _______ _____ _____    ______ ____
ROOT
ATOM      1  C   LIG A   1      -3.182   3.336 128.135  0.00  0.00    +0.162 A 
ATOM      2  C   LIG A   1      -3.936   2.681 129.116  0.00  0.00    +0.162 A 
ATOM      3  C   LIG A   1      -4.187   3.327 130.332  0.00  0.00    +0.053 A 
ATOM      4  C   LIG A   1      -3.715   4.641 130.586  0.00  0.00    -0.033 A 
ATOM      5  C   LIG A   1      -3.992   5.310 131.924  0.00  0.00    +0.055 C 
ATOM      6  C   LIG A   1      -3.094   6.567 132.197  0.00  0.00    +0.032 C 
ATOM      7  C   LIG A   1      -2.847   7.442 130.935  0.00  0.00    +0.025 C 
ATOM      8  C   LIG A   1      -2.297   6.624 129.774  0.00  0.00    +0.041 C 
ATOM      9  C   LIG A   1      -2.973   5.293 129.583  0.00  0.00    -0.040 A 
ATOM     10  C   LIG A   1      -2.734   4.641 128.375  0.00  0.00    +0.053 A 
ENDROOT
BRANCH   5  11
ATOM     11  C   LIG A   1      -5.480   5.581 132.221  0.00  0.00    -0.036 A 
ATOM     12  C   LIG A   1      -6.278   6.178 131.232  0.00  0.00    +0.008 A 
ATOM     13  C   LIG A   1      -7.641   6.435 131.453  0.00  0.00    +0.050 A 
ATOM     14  C   LIG A   1      -8.259   6.076 132.653  0.00  0.00    +0.162 A 
ATOM     15  C   LIG A   1      -7.479   5.476 133.655  0.00  0.00    +0.162 A 
ATOM     16  C   LIG A   1      -6.101   5.273 133.442  0.00  0.00    +0.053 A 
BRANCH  14  17
ATOM     17  O   LIG A   1      -9.583   6.300 132.923  0.00  0.00    -0.491 OA
ATOM     18  C   LIG A   1     -10.541   6.075 131.900  0.00  0.00    +0.277 C 
ENDBRANCH  14  17
BRANCH  15  19
ATOM     19  O   LIG A   1      -7.906   5.079 134.899  0.00  0.00    -0.491 OA
ATOM     20  C   LIG A   1      -7.634   5.965 135.981  0.00  0.00    +0.277 C 
ENDBRANCH  15  19
ENDBRANCH   5  11
BRANCH   1  22
ATOM     21  C   LIG A   1      -1.625   2.971 126.363  0.00  0.00    +0.277 C 
ATOM     22  O   LIG A   1      -2.905   2.729 126.944  0.00  0.00    -0.491 OA
ENDBRANCH   1  22
BRANCH   2  23
ATOM     23  O   LIG A   1      -4.475   1.427 129.010  0.00  0.00    -0.491 OA
ATOM     24  C   LIG A   1      -5.812   1.337 128.516  0.00  0.00    +0.277 C 
ENDBRANCH   2  23
BRANCH   6  25
ATOM     25  C   LIG A   1      -1.752   6.141 132.852  0.00  0.00    +0.160 C 
BRANCH  25  26
ATOM     26  O   LIG A   1      -1.860   4.947 133.608  0.00  0.00    -0.395 OA
ATOM     27  H   LIG A   1      -2.232   5.169 134.478  0.00  0.00    +0.209 HD
ENDBRANCH  25  26
ENDBRANCH   6  25
BRANCH   7  28
ATOM     28  C   LIG A   1      -4.091   8.233 130.501  0.00  0.00    +0.160 C 
BRANCH  28  29
ATOM     29  O   LIG A   1      -4.141   8.335 129.079  0.00  0.00    -0.395 OA
ATOM     30  H   LIG A   1      -4.028   9.280 128.866  0.00  0.00    +0.209 HD
ENDBRANCH  28  29
ENDBRANCH   7  28
TORSDOF 9
ENDMDL
MODEL 4
REMARK VINA RESULT:      -6.4      2.770      6.407
REMARK  Name = NuBBE_2463
REMARK  13 active torsions:
REMARK  status: ('A' for Active; 'I' for Inactive)
REMARK    1  A    between atoms: C_1  and  O_2
REMARK    2  A    between atoms: O_2  and  C_3
REMARK    3  A    between atoms: C_4  and  O_5
REMARK    4  A    between atoms: O_5  and  C_6
REMARK    5  A    between atoms: C_9  and  C_11
REMARK    6  A    between atoms: C_14  and  O_15
REMARK    7  A    between atoms: O_15  and  C_16
REMARK    8  A    between atoms: C_17  and  O_18
REMARK    9  A    between atoms: O_18  and  C_19
REMARK   10  A    between atoms: C_21  and  C_23
REMARK   11  A    between atoms: C_23  and  O_24
REMARK   12  A    between atoms: C_25  and  C_27
REMARK   13  A    between atoms: C_27  and  O_28
REMARK                            x       y       z     vdW  Elec       q    Type
REMARK                         _______ _______ _______ _____ _____    ______ ____
ROOT
ATOM      1  C   LIG A   1      -8.500  -1.185 125.024  0.00  0.00    +0.162 A 
ATOM      2  C   LIG A   1      -7.120  -1.314 125.226  0.00  0.00    +0.162 A 
ATOM      3  C   LIG A   1      -6.302  -0.185 125.105  0.00  0.00    +0.053 A 
ATOM      4  C   LIG A   1      -6.839   1.093 124.805  0.00  0.00    -0.033 A 
ATOM      5  C   LIG A   1      -5.920   2.297 124.664  0.00  0.00    +0.055 C 
ATOM      6  C   LIG A   1      -6.595   3.525 123.959  0.00  0.00    +0.032 C 
ATOM      7  C   LIG A   1      -8.083   3.735 124.362  0.00  0.00    +0.025 C 
ATOM      8  C   LIG A   1      -8.910   2.471 124.161  0.00  0.00    +0.041 C 
ATOM      9  C   LIG A   1      -8.229   1.210 124.621  0.00  0.00    -0.040 A 
ATOM     10  C   LIG A   1      -9.035   0.080 124.749  0.00  0.00    +0.053 A 
ENDROOT
BRANCH   5  11
ATOM     11  C   LIG A   1      -5.175   2.702 125.952  0.00  0.00    -0.036 A 
ATOM     12  C   LIG A   1      -4.153   3.662 125.879  0.00  0.00    +0.008 A 
ATOM     13  C   LIG A   1      -3.454   4.071 127.027  0.00  0.00    +0.050 A 
ATOM     14  C   LIG A   1      -3.773   3.559 128.287  0.00  0.00    +0.162 A 
ATOM     15  C   LIG A   1      -4.794   2.600 128.382  0.00  0.00    +0.162 A 
ATOM     16  C   LIG A   1      -5.450   2.158 127.217  0.00  0.00    +0.053 A 
BRANCH  14  17
ATOM     17  O   LIG A   1      -3.128   3.922 129.439  0.00  0.00    -0.491 OA
ATOM     18  C   LIG A   1      -3.134   5.286 129.831  0.00  0.00    +0.277 C 
ENDBRANCH  14  17
BRANCH  15  19
ATOM     19  O   LIG A   1      -5.226   1.973 129.525  0.00  0.00    -0.491 OA
ATOM     20  C   LIG A   1      -4.622   0.720 129.836  0.00  0.00    +0.277 C 
ENDBRANCH  15  19
ENDBRANCH   5  11
BRANCH   1  22
ATOM     21  C   LIG A   1      -9.421  -3.126 123.984  0.00  0.00    +0.277 C 
ATOM     22  O   LIG A   1      -9.325  -2.268 125.119  0.00  0.00    -0.491 OA
ENDBRANCH   1  22
BRANCH   2  23
ATOM     23  O   LIG A   1      -6.460  -2.471 125.542  0.00  0.00    -0.491 OA
ATOM     24  C   LIG A   1      -5.667  -3.066 124.514  0.00  0.00    +0.277 C 
ENDBRANCH   2  23
BRANCH   6  25
ATOM     25  C   LIG A   1      -6.445   3.413 122.418  0.00  0.00    +0.160 C 
BRANCH  25  26
ATOM     26  O   LIG A   1      -5.920   4.590 121.826  0.00  0.00    -0.395 OA
ATOM     27  H   LIG A   1      -5.411   5.070 122.501  0.00  0.00    +0.209 HD
ENDBRANCH  25  26
ENDBRANCH   6  25
BRANCH   7  28
ATOM     28  C   LIG A   1      -8.247   4.269 125.793  0.00  0.00    +0.160 C 
BRANCH  28  29
ATOM     29  O   LIG A   1      -8.798   5.584 125.770  0.00  0.00    -0.395 OA
ATOM     30  H   LIG A   1      -9.081   5.750 124.852  0.00  0.00    +0.209 HD
ENDBRANCH  28  29
ENDBRANCH   7  28
TORSDOF 9
ENDMDL
MODEL 5
REMARK VINA RESULT:      -6.3      2.970      5.967
REMARK  Name = NuBBE_2463
REMARK  13 active torsions:
REMARK  status: ('A' for Active; 'I' for Inactive)
REMARK    1  A    between atoms: C_1  and  O_2
REMARK    2  A    between atoms: O_2  and  C_3
REMARK    3  A    between atoms: C_4  and  O_5
REMARK    4  A    between atoms: O_5  and  C_6
REMARK    5  A    between atoms: C_9  and  C_11
REMARK    6  A    between atoms: C_14  and  O_15
REMARK    7  A    between atoms: O_15  and  C_16
REMARK    8  A    between atoms: C_17  and  O_18
REMARK    9  A    between atoms: O_18  and  C_19
REMARK   10  A    between atoms: C_21  and  C_23
REMARK   11  A    between atoms: C_23  and  O_24
REMARK   12  A    between atoms: C_25  and  C_27
REMARK   13  A    between atoms: C_27  and  O_28
REMARK                            x       y       z     vdW  Elec       q    Type
REMARK                         _______ _______ _______ _____ _____    ______ ____
ROOT
ATOM      1  C   LIG A   1      -9.142  -2.092 125.641  0.00  0.00    +0.162 A 
ATOM      2  C   LIG A   1      -9.170  -0.691 125.630  0.00  0.00    +0.162 A 
ATOM      3  C   LIG A   1      -8.481   0.015 126.622  0.00  0.00    +0.053 A 
ATOM      4  C   LIG A   1      -7.735  -0.653 127.628  0.00  0.00    -0.033 A 
ATOM      5  C   LIG A   1      -7.010   0.144 128.702  0.00  0.00    +0.055 C 
ATOM      6  C   LIG A   1      -6.571  -0.718 129.937  0.00  0.00    +0.032 C 
ATOM      7  C   LIG A   1      -6.063  -2.138 129.556  0.00  0.00    +0.025 C 
ATOM      8  C   LIG A   1      -7.071  -2.892 128.698  0.00  0.00    +0.041 C 
ATOM      9  C   LIG A   1      -7.703  -2.060 127.615  0.00  0.00    -0.040 A 
ATOM     10  C   LIG A   1      -8.388  -2.752 126.619  0.00  0.00    +0.053 A 
ENDROOT
BRANCH   5  11
ATOM     11  C   LIG A   1      -5.870   1.046 128.186  0.00  0.00    -0.036 A 
ATOM     12  C   LIG A   1      -5.516   0.993 126.829  0.00  0.00    +0.008 A 
ATOM     13  C   LIG A   1      -4.492   1.803 126.311  0.00  0.00    +0.050 A 
ATOM     14  C   LIG A   1      -3.811   2.713 127.122  0.00  0.00    +0.162 A 
ATOM     15  C   LIG A   1      -4.151   2.784 128.483  0.00  0.00    +0.162 A 
ATOM     16  C   LIG A   1      -5.143   1.927 129.002  0.00  0.00    +0.053 A 
BRANCH  14  17
ATOM     17  O   LIG A   1      -2.807   3.528 126.672  0.00  0.00    -0.491 OA
ATOM     18  C   LIG A   1      -1.495   3.000 126.550  0.00  0.00    +0.277 C 
ENDBRANCH  14  17
BRANCH  15  19
ATOM     19  O   LIG A   1      -3.579   3.596 129.431  0.00  0.00    -0.491 OA
ATOM     20  C   LIG A   1      -4.049   3.449 130.767  0.00  0.00    +0.277 C 
ENDBRANCH  15  19
ENDBRANCH   5  11
BRANCH   1  22
ATOM     21  C   LIG A   1      -9.102  -3.188 123.522  0.00  0.00    +0.277 C 
ATOM     22  O   LIG A   1      -9.816  -2.812 124.698  0.00  0.00    -0.491 OA
ENDBRANCH   1  22
BRANCH   2  23
ATOM     23  O   LIG A   1      -9.824   0.091 124.718  0.00  0.00    -0.491 OA
ATOM     24  C   LIG A   1      -9.073   0.531 123.585  0.00  0.00    +0.277 C 
ENDBRANCH   2  23
BRANCH   6  25
ATOM     25  C   LIG A   1      -7.722  -0.797 130.977  0.00  0.00    +0.160 C 
BRANCH  25  26
ATOM     26  O   LIG A   1      -8.591   0.321 130.927  0.00  0.00    -0.395 OA
ATOM     27  H   LIG A   1      -9.436   0.034 130.542  0.00  0.00    +0.209 HD
ENDBRANCH  25  26
ENDBRANCH   6  25
BRANCH   7  28
ATOM     28  C   LIG A   1      -4.682  -2.120 128.882  0.00  0.00    +0.160 C 
BRANCH  28  29
ATOM     29  O   LIG A   1      -3.765  -1.346 129.654  0.00  0.00    -0.395 OA
ATOM     30  H   LIG A   1      -3.223  -1.981 130.157  0.00  0.00    +0.209 HD
ENDBRANCH  28  29
ENDBRANCH   7  28
TORSDOF 9
ENDMDL
MODEL 6
REMARK VINA RESULT:      -6.3      2.010      6.330
REMARK  Name = NuBBE_2463
REMARK  13 active torsions:
REMARK  status: ('A' for Active; 'I' for Inactive)
REMARK    1  A    between atoms: C_1  and  O_2
REMARK    2  A    between atoms: O_2  and  C_3
REMARK    3  A    between atoms: C_4  and  O_5
REMARK    4  A    between atoms: O_5  and  C_6
REMARK    5  A    between atoms: C_9  and  C_11
REMARK    6  A    between atoms: C_14  and  O_15
REMARK    7  A    between atoms: O_15  and  C_16
REMARK    8  A    between atoms: C_17  and  O_18
REMARK    9  A    between atoms: O_18  and  C_19
REMARK   10  A    between atoms: C_21  and  C_23
REMARK   11  A    between atoms: C_23  and  O_24
REMARK   12  A    between atoms: C_25  and  C_27
REMARK   13  A    between atoms: C_27  and  O_28
REMARK                            x       y       z     vdW  Elec       q    Type
REMARK                         _______ _______ _______ _____ _____    ______ ____
ROOT
ATOM      1  C   LIG A   1      -6.432  -3.201 129.575  0.00  0.00    +0.162 A 
ATOM      2  C   LIG A   1      -5.246  -2.664 129.060  0.00  0.00    +0.162 A 
ATOM      3  C   LIG A   1      -5.244  -2.120 127.770  0.00  0.00    +0.053 A 
ATOM      4  C   LIG A   1      -6.422  -2.079 126.980  0.00  0.00    -0.033 A 
ATOM      5  C   LIG A   1      -6.382  -1.495 125.575  0.00  0.00    +0.055 C 
ATOM      6  C   LIG A   1      -7.631  -1.871 124.703  0.00  0.00    +0.032 C 
ATOM      7  C   LIG A   1      -8.968  -1.875 125.498  0.00  0.00    +0.025 C 
ATOM      8  C   LIG A   1      -8.889  -2.755 126.739  0.00  0.00    +0.041 C 
ATOM      9  C   LIG A   1      -7.610  -2.607 127.518  0.00  0.00    -0.040 A 
ATOM     10  C   LIG A   1      -7.600  -3.141 128.806  0.00  0.00    +0.053 A 
ENDROOT
BRANCH   5  11
ATOM     11  C   LIG A   1      -6.053   0.009 125.504  0.00  0.00    -0.036 A 
ATOM     12  C   LIG A   1      -6.665   0.799 124.517  0.00  0.00    +0.008 A 
ATOM     13  C   LIG A   1      -6.404   2.175 124.420  0.00  0.00    +0.050 A 
ATOM     14  C   LIG A   1      -5.551   2.814 125.322  0.00  0.00    +0.162 A 
ATOM     15  C   LIG A   1      -4.930   2.044 126.319  0.00  0.00    +0.162 A 
ATOM     16  C   LIG A   1      -5.157   0.654 126.372  0.00  0.00    +0.053 A 
BRANCH  14  17
ATOM     17  O   LIG A   1      -5.262   4.152 125.277  0.00  0.00    -0.491 OA
ATOM     18  C   LIG A   1      -6.329   5.084 125.184  0.00  0.00    +0.277 C 
ENDBRANCH  14  17
BRANCH  15  19
ATOM     19  O   LIG A   1      -4.049   2.491 127.272  0.00  0.00    -0.491 OA
ATOM     20  C   LIG A   1      -4.599   2.834 128.541  0.00  0.00    +0.277 C 
ENDBRANCH  15  19
ENDBRANCH   5  11
BRANCH   1  22
ATOM     21  C   LIG A   1      -7.092  -3.000 131.860  0.00  0.00    +0.277 C 
ATOM     22  O   LIG A   1      -6.466  -3.753 130.823  0.00  0.00    -0.491 OA
ENDBRANCH   1  22
BRANCH   2  23
ATOM     23  O   LIG A   1      -4.041  -2.611 129.707  0.00  0.00    -0.491 OA
ATOM     24  C   LIG A   1      -3.075  -3.605 129.361  0.00  0.00    +0.277 C 
ENDBRANCH   2  23
BRANCH   6  25
ATOM     25  C   LIG A   1      -7.402  -3.230 123.988  0.00  0.00    +0.160 C 
BRANCH  25  26
ATOM     26  O   LIG A   1      -6.046  -3.639 123.999  0.00  0.00    -0.395 OA
ATOM     27  H   LIG A   1      -5.635  -3.360 123.163  0.00  0.00    +0.209 HD
ENDBRANCH  25  26
ENDBRANCH   6  25
BRANCH   7  28
ATOM     28  C   LIG A   1      -9.454  -0.464 125.863  0.00  0.00    +0.160 C 
BRANCH  28  29
ATOM     29  O   LIG A   1     -10.102   0.141 124.746  0.00  0.00    -0.395 OA
ATOM     30  H   LIG A   1     -10.468  -0.588 124.211  0.00  0.00    +0.209 HD
ENDBRANCH  28  29
ENDBRANCH   7  28
TORSDOF 9
ENDMDL
MODEL 7
REMARK VINA RESULT:      -6.0      8.180     11.151
REMARK  Name = NuBBE_2463
REMARK  13 active torsions:
REMARK  status: ('A' for Active; 'I' for Inactive)
REMARK    1  A    between atoms: C_1  and  O_2
REMARK    2  A    between atoms: O_2  and  C_3
REMARK    3  A    between atoms: C_4  and  O_5
REMARK    4  A    between atoms: O_5  and  C_6
REMARK    5  A    between atoms: C_9  and  C_11
REMARK    6  A    between atoms: C_14  and  O_15
REMARK    7  A    between atoms: O_15  and  C_16
REMARK    8  A    between atoms: C_17  and  O_18
REMARK    9  A    between atoms: O_18  and  C_19
REMARK   10  A    between atoms: C_21  and  C_23
REMARK   11  A    between atoms: C_23  and  O_24
REMARK   12  A    between atoms: C_25  and  C_27
REMARK   13  A    between atoms: C_27  and  O_28
REMARK                            x       y       z     vdW  Elec       q    Type
REMARK                         _______ _______ _______ _____ _____    ______ ____
ROOT
ATOM      1  C   LIG A   1      -1.146   6.955 133.895  0.00  0.00    +0.162 A 
ATOM      2  C   LIG A   1      -2.356   7.531 134.301  0.00  0.00    +0.162 A 
ATOM      3  C   LIG A   1      -3.408   7.633 133.384  0.00  0.00    +0.053 A 
ATOM      4  C   LIG A   1      -3.286   7.147 132.056  0.00  0.00    -0.033 A 
ATOM      5  C   LIG A   1      -4.443   7.288 131.079  0.00  0.00    +0.055 C 
ATOM      6  C   LIG A   1      -4.030   7.070 129.581  0.00  0.00    +0.032 C 
ATOM      7  C   LIG A   1      -2.987   5.934 129.380  0.00  0.00    +0.025 C 
ATOM      8  C   LIG A   1      -1.757   6.129 130.259  0.00  0.00    +0.041 C 
ATOM      9  C   LIG A   1      -2.069   6.556 131.668  0.00  0.00    -0.040 A 
ATOM     10  C   LIG A   1      -1.030   6.455 132.592  0.00  0.00    +0.053 A 
ENDROOT
BRANCH   5  11
ATOM     11  C   LIG A   1      -5.713   6.499 131.454  0.00  0.00    -0.036 A 
ATOM     12  C   LIG A   1      -5.583   5.233 132.047  0.00  0.00    +0.008 A 
ATOM     13  C   LIG A   1      -6.710   4.482 132.416  0.00  0.00    +0.050 A 
ATOM     14  C   LIG A   1      -8.002   4.982 132.236  0.00  0.00    +0.162 A 
ATOM     15  C   LIG A   1      -8.155   6.248 131.647  0.00  0.00    +0.162 A 
ATOM     16  C   LIG A   1      -7.017   6.968 131.231  0.00  0.00    +0.053 A 
BRANCH  14  17
ATOM     17  O   LIG A   1      -9.136   4.296 132.578  0.00  0.00    -0.491 OA
ATOM     18  C   LIG A   1      -9.192   3.641 133.836  0.00  0.00    +0.277 C 
ENDBRANCH  14  17
BRANCH  15  19
ATOM     19  O   LIG A   1      -9.338   6.887 131.372  0.00  0.00    -0.491 OA
ATOM     20  C   LIG A   1      -9.593   7.204 130.007  0.00  0.00    +0.277 C 
ENDBRANCH  15  19
ENDBRANCH   5  11
BRANCH   1  22
ATOM     21  C   LIG A   1       0.713   8.013 134.955  0.00  0.00    +0.277 C 
ATOM     22  O   LIG A   1      -0.094   6.854 134.759  0.00  0.00    -0.491 OA
ENDBRANCH   1  22
BRANCH   2  23
ATOM     23  O   LIG A   1      -2.632   8.023 135.548  0.00  0.00    -0.491 OA
ATOM     24  C   LIG A   1      -3.465   7.224 136.390  0.00  0.00    +0.277 C 
ENDBRANCH   2  23
BRANCH   6  25
ATOM     25  C   LIG A   1      -3.532   8.402 128.958  0.00  0.00    +0.160 C 
BRANCH  25  26
ATOM     26  O   LIG A   1      -4.168   9.542 129.508  0.00  0.00    -0.395 OA
ATOM     27  H   LIG A   1      -3.511  10.042 130.021  0.00  0.00    +0.209 HD
ENDBRANCH  25  26
ENDBRANCH   6  25
BRANCH   7  28
ATOM     28  C   LIG A   1      -3.581   4.531 129.583  0.00  0.00    +0.160 C 
BRANCH  28  29
ATOM     29  O   LIG A   1      -4.686   4.331 128.704  0.00  0.00    -0.395 OA
ATOM     30  H   LIG A   1      -4.406   3.657 128.057  0.00  0.00    +0.209 HD
ENDBRANCH  28  29
ENDBRANCH   7  28
TORSDOF 9
ENDMDL
MODEL 8
REMARK VINA RESULT:      -6.0      3.573      5.181
REMARK  Name = NuBBE_2463
REMARK  13 active torsions:
REMARK  status: ('A' for Active; 'I' for Inactive)
REMARK    1  A    between atoms: C_1  and  O_2
REMARK    2  A    between atoms: O_2  and  C_3
REMARK    3  A    between atoms: C_4  and  O_5
REMARK    4  A    between atoms: O_5  and  C_6
REMARK    5  A    between atoms: C_9  and  C_11
REMARK    6  A    between atoms: C_14  and  O_15
REMARK    7  A    between atoms: O_15  and  C_16
REMARK    8  A    between atoms: C_17  and  O_18
REMARK    9  A    between atoms: O_18  and  C_19
REMARK   10  A    between atoms: C_21  and  C_23
REMARK   11  A    between atoms: C_23  and  O_24
REMARK   12  A    between atoms: C_25  and  C_27
REMARK   13  A    between atoms: C_27  and  O_28
REMARK                            x       y       z     vdW  Elec       q    Type
REMARK                         _______ _______ _______ _____ _____    ______ ____
ROOT
ATOM      1  C   LIG A   1      -8.435   1.661 130.251  0.00  0.00    +0.162 A 
ATOM      2  C   LIG A   1      -8.421   0.920 131.439  0.00  0.00    +0.162 A 
ATOM      3  C   LIG A   1      -8.107  -0.443 131.393  0.00  0.00    +0.053 A 
ATOM      4  C   LIG A   1      -7.780  -1.089 130.173  0.00  0.00    -0.033 A 
ATOM      5  C   LIG A   1      -7.460  -2.576 130.154  0.00  0.00    +0.055 C 
ATOM      6  C   LIG A   1      -7.507  -3.212 128.721  0.00  0.00    +0.032 C 
ATOM      7  C   LIG A   1      -6.933  -2.287 127.609  0.00  0.00    +0.025 C 
ATOM      8  C   LIG A   1      -7.593  -0.914 127.616  0.00  0.00    +0.041 C 
ATOM      9  C   LIG A   1      -7.782  -0.327 128.990  0.00  0.00    -0.040 A 
ATOM     10  C   LIG A   1      -8.091   1.030 129.049  0.00  0.00    +0.053 A 
ENDROOT
BRANCH   5  11
ATOM     11  C   LIG A   1      -6.189  -2.978 130.929  0.00  0.00    -0.036 A 
ATOM     12  C   LIG A   1      -5.930  -4.339 131.161  0.00  0.00    +0.008 A 
ATOM     13  C   LIG A   1      -4.780  -4.754 131.852  0.00  0.00    +0.050 A 
ATOM     14  C   LIG A   1      -3.836  -3.829 132.305  0.00  0.00    +0.162 A 
ATOM     15  C   LIG A   1      -4.075  -2.463 132.081  0.00  0.00    +0.162 A 
ATOM     16  C   LIG A   1      -5.259  -2.056 131.435  0.00  0.00    +0.053 A 
BRANCH  14  17
ATOM     17  O   LIG A   1      -2.697  -4.175 132.981  0.00  0.00    -0.491 OA
ATOM     18  C   LIG A   1      -2.738  -5.270 133.884  0.00  0.00    +0.277 C 
ENDBRANCH  14  17
BRANCH  15  19
ATOM     19  O   LIG A   1      -3.277  -1.416 132.472  0.00  0.00    -0.491 OA
ATOM     20  C   LIG A   1      -3.817  -0.107 132.315  0.00  0.00    +0.277 C 
ENDBRANCH  15  19
ENDBRANCH   5  11
BRANCH   1  22
ATOM     21  C   LIG A   1     -10.129   3.337 130.378  0.00  0.00    +0.277 C 
ATOM     22  O   LIG A   1      -8.751   2.988 130.258  0.00  0.00    -0.491 OA
ENDBRANCH   1  22
BRANCH   2  23
ATOM     23  O   LIG A   1      -8.692   1.405 132.690  0.00  0.00    -0.491 OA
ATOM     24  C   LIG A   1      -7.642   2.114 133.351  0.00  0.00    +0.277 C 
ENDBRANCH   2  23
BRANCH   6  25
ATOM     25  C   LIG A   1      -8.951  -3.667 128.378  0.00  0.00    +0.160 C 
BRANCH  25  26
ATOM     26  O   LIG A   1      -9.196  -3.726 126.984  0.00  0.00    -0.395 OA
ATOM     27  H   LIG A   1      -8.342  -3.691 126.522  0.00  0.00    +0.209 HD
ENDBRANCH  25  26
ENDBRANCH   6  25
BRANCH   7  28
ATOM     28  C   LIG A   1      -5.404  -2.154 127.670  0.00  0.00    +0.160 C 
BRANCH  28  29
ATOM     29  O   LIG A   1      -4.999  -0.874 127.188  0.00  0.00    -0.395 OA
ATOM     30  H   LIG A   1      -4.785  -0.338 127.974  0.00  0.00    +0.209 HD
ENDBRANCH  28  29
ENDBRANCH   7  28
TORSDOF 9
ENDMDL
MODEL 9
REMARK VINA RESULT:      -6.0      4.089      6.872
REMARK  Name = NuBBE_2463
REMARK  13 active torsions:
REMARK  status: ('A' for Active; 'I' for Inactive)
REMARK    1  A    between atoms: C_1  and  O_2
REMARK    2  A    between atoms: O_2  and  C_3
REMARK    3  A    between atoms: C_4  and  O_5
REMARK    4  A    between atoms: O_5  and  C_6
REMARK    5  A    between atoms: C_9  and  C_11
REMARK    6  A    between atoms: C_14  and  O_15
REMARK    7  A    between atoms: O_15  and  C_16
REMARK    8  A    between atoms: C_17  and  O_18
REMARK    9  A    between atoms: O_18  and  C_19
REMARK   10  A    between atoms: C_21  and  C_23
REMARK   11  A    between atoms: C_23  and  O_24
REMARK   12  A    between atoms: C_25  and  C_27
REMARK   13  A    between atoms: C_27  and  O_28
REMARK                            x       y       z     vdW  Elec       q    Type
REMARK                         _______ _______ _______ _____ _____    ______ ____
ROOT
ATOM      1  C   LIG A   1      -6.712   3.553 123.743  0.00  0.00    +0.162 A 
ATOM      2  C   LIG A   1      -7.929   3.057 124.227  0.00  0.00    +0.162 A 
ATOM      3  C   LIG A   1      -8.037   2.707 125.578  0.00  0.00    +0.053 A 
ATOM      4  C   LIG A   1      -6.949   2.865 126.476  0.00  0.00    -0.033 A 
ATOM      5  C   LIG A   1      -7.095   2.460 127.935  0.00  0.00    +0.055 C 
ATOM      6  C   LIG A   1      -5.726   2.324 128.690  0.00  0.00    +0.032 C 
ATOM      7  C   LIG A   1      -4.685   3.410 128.291  0.00  0.00    +0.025 C 
ATOM      8  C   LIG A   1      -4.470   3.466 126.784  0.00  0.00    +0.041 C 
ATOM      9  C   LIG A   1      -5.739   3.381 125.978  0.00  0.00    -0.040 A 
ATOM     10  C   LIG A   1      -5.644   3.730 124.632  0.00  0.00    +0.053 A 
ENDROOT
BRANCH   5  11
ATOM     11  C   LIG A   1      -8.125   3.278 128.739  0.00  0.00    -0.036 A 
ATOM     12  C   LIG A   1      -8.877   2.641 129.738  0.00  0.00    +0.008 A 
ATOM     13  C   LIG A   1      -9.819   3.347 130.503  0.00  0.00    +0.050 A 
ATOM     14  C   LIG A   1     -10.018   4.718 130.319  0.00  0.00    +0.162 A 
ATOM     15  C   LIG A   1      -9.274   5.375 129.326  0.00  0.00    +0.162 A 
ATOM     16  C   LIG A   1      -8.372   4.644 128.528  0.00  0.00    +0.053 A 
BRANCH  14  17
ATOM     17  O   LIG A   1     -10.920   5.458 131.036  0.00  0.00    -0.491 OA
ATOM     18  C   LIG A   1     -10.506   6.053 132.256  0.00  0.00    +0.277 C 
ENDBRANCH  14  17
BRANCH  15  19
ATOM     19  O   LIG A   1      -9.351   6.704 128.988  0.00  0.00    -0.491 OA
ATOM     20  C   LIG A   1     -10.433   7.089 128.146  0.00  0.00    +0.277 C 
ENDBRANCH  15  19
ENDBRANCH   5  11
BRANCH   1  22
ATOM     21  C   LIG A   1      -5.274   4.305 121.993  0.00  0.00    +0.277 C 
ATOM     22  O   LIG A   1      -6.567   3.890 122.429  0.00  0.00    -0.491 OA
ENDBRANCH   1  22
BRANCH   2  23
ATOM     23  O   LIG A   1      -9.068   2.870 123.493  0.00  0.00    -0.491 OA
ATOM     24  C   LIG A   1      -9.549   1.530 123.372  0.00  0.00    +0.277 C 
ENDBRANCH   2  23
BRANCH   6  25
ATOM     25  C   LIG A   1      -5.144   0.897 128.502  0.00  0.00    +0.160 C 
BRANCH  25  26
ATOM     26  O   LIG A   1      -4.035   0.637 129.345  0.00  0.00    -0.395 OA
ATOM     27  H   LIG A   1      -4.220   1.018 130.220  0.00  0.00    +0.209 HD
ENDBRANCH  25  26
ENDBRANCH   6  25
BRANCH   7  28
ATOM     28  C   LIG A   1      -5.029   4.802 128.843  0.00  0.00    +0.160 C 
BRANCH  28  29
ATOM     29  O   LIG A   1      -4.554   5.815 127.959  0.00  0.00    -0.395 OA
ATOM     30  H   LIG A   1      -4.536   6.644 128.471  0.00  0.00    +0.209 HD
ENDBRANCH  28  29
ENDBRANCH   7  28
TORSDOF 9
ENDMDL
