MODEL 1
REMARK VINA RESULT:      -8.3      0.000      0.000
REMARK  Name = NuBBE_2408
REMARK  4 active torsions:
REMARK  status: ('A' for Active; 'I' for Inactive)
REMARK    1  A    between atoms: C_1  and  C_2
REMARK    2  A    between atoms: N_5  and  C_6
REMARK    3  A    between atoms: C_24  and  C_25
REMARK    4  A    between atoms: C_25  and  O_26
REMARK                            x       y       z     vdW  Elec       q    Type
REMARK                         _______ _______ _______ _____ _____    ______ ____
ROOT
ATOM      1  C   LIG A   1      -7.740   0.820 129.217  0.00  0.00    +0.035 C 
ATOM      2  C   LIG A   1      -8.263   1.387 127.935  0.00  0.00    -0.030 C 
ATOM      3  C   LIG A   1      -7.624   2.211 127.078  0.00  0.00    -0.056 C 
ATOM      4  C   LIG A   1      -6.205   2.704 127.291  0.00  0.00    +0.115 C 
ATOM      5  N   LIG A   1      -5.479   3.025 126.066  0.00  0.00    -0.298 NA
ATOM      6  C   LIG A   1      -4.165   3.592 126.366  0.00  0.00    +0.105 C 
ATOM      7  C   LIG A   1      -6.196   3.818 125.034  0.00  0.00    +0.067 C 
ATOM      8  C   LIG A   1      -5.888   3.083 123.691  0.00  0.00    +0.057 C 
ATOM      9  C   LIG A   1      -6.870   3.243 122.567  0.00  0.00    -0.010 A 
ATOM     10  C   LIG A   1      -8.172   2.750 122.499  0.00  0.00    +0.086 A 
ATOM     11  N   LIG A   1      -8.677   3.117 121.271  0.00  0.00    -0.352 N 
ATOM     12  H   LIG A   1      -9.617   2.898 120.968  0.00  0.00    +0.166 HD
ATOM     13  C   LIG A   1      -7.751   3.811 120.538  0.00  0.00    +0.047 A 
ATOM     14  C   LIG A   1      -7.843   4.351 119.250  0.00  0.00    +0.026 A 
ATOM     15  C   LIG A   1      -6.723   5.015 118.744  0.00  0.00    +0.002 A 
ATOM     16  C   LIG A   1      -5.560   5.134 119.500  0.00  0.00    +0.001 A 
ATOM     17  C   LIG A   1      -5.489   4.589 120.787  0.00  0.00    +0.010 A 
ATOM     18  C   LIG A   1      -6.605   3.912 121.323  0.00  0.00    +0.004 A 
ATOM     19  C   LIG A   1      -9.002   2.029 123.452  0.00  0.00    +0.180 C 
ATOM     20  O   LIG A   1     -10.184   1.782 123.201  0.00  0.00    -0.290 OA
ATOM     21  C   LIG A   1      -8.410   1.595 124.778  0.00  0.00    +0.089 C 
ATOM     22  C   LIG A   1      -8.347   2.719 125.833  0.00  0.00    +0.030 C 
ATOM     23  C   LIG A   1      -7.701   4.031 125.345  0.00  0.00    +0.039 C 
ENDROOT
BRANCH  23  24
ATOM     24  C   LIG A   1      -7.955   5.198 126.326  0.00  0.00    +0.161 C 
BRANCH  24  25
ATOM     25  O   LIG A   1      -9.222   5.789 126.049  0.00  0.00    -0.395 OA
ATOM     26  H   LIG A   1      -9.772   5.671 126.842  0.00  0.00    +0.209 HD
ENDBRANCH  24  25
ENDBRANCH  23  24
TORSDOF 2
ENDMDL
MODEL 2
REMARK VINA RESULT:      -8.0      3.600      5.455
REMARK  Name = NuBBE_2408
REMARK  4 active torsions:
REMARK  status: ('A' for Active; 'I' for Inactive)
REMARK    1  A    between atoms: C_1  and  C_2
REMARK    2  A    between atoms: N_5  and  C_6
REMARK    3  A    between atoms: C_24  and  C_25
REMARK    4  A    between atoms: C_25  and  O_26
REMARK                            x       y       z     vdW  Elec       q    Type
REMARK                         _______ _______ _______ _____ _____    ______ ____
ROOT
ATOM      1  C   LIG A   1      -9.511  -4.404 128.316  0.00  0.00    +0.035 C 
ATOM      2  C   LIG A   1      -8.554  -3.278 128.081  0.00  0.00    -0.030 C 
ATOM      3  C   LIG A   1      -8.205  -2.727 126.899  0.00  0.00    -0.056 C 
ATOM      4  C   LIG A   1      -8.765  -3.181 125.565  0.00  0.00    +0.115 C 
ATOM      5  N   LIG A   1      -8.796  -2.151 124.531  0.00  0.00    -0.298 NA
ATOM      6  C   LIG A   1      -9.247  -2.701 123.254  0.00  0.00    +0.105 C 
ATOM      7  C   LIG A   1      -7.584  -1.309 124.369  0.00  0.00    +0.067 C 
ATOM      8  C   LIG A   1      -8.131   0.149 124.260  0.00  0.00    +0.057 C 
ATOM      9  C   LIG A   1      -7.215   1.271 124.657  0.00  0.00    -0.010 A 
ATOM     10  C   LIG A   1      -6.752   1.576 125.935  0.00  0.00    +0.086 A 
ATOM     11  N   LIG A   1      -5.966   2.702 125.819  0.00  0.00    -0.352 N 
ATOM     12  H   LIG A   1      -5.489   3.131 126.602  0.00  0.00    +0.166 HD
ATOM     13  C   LIG A   1      -5.916   3.144 124.524  0.00  0.00    +0.047 A 
ATOM     14  C   LIG A   1      -5.253   4.247 123.973  0.00  0.00    +0.026 A 
ATOM     15  C   LIG A   1      -5.384   4.462 122.599  0.00  0.00    +0.002 A 
ATOM     16  C   LIG A   1      -6.147   3.606 121.810  0.00  0.00    +0.001 A 
ATOM     17  C   LIG A   1      -6.802   2.508 122.380  0.00  0.00    +0.010 A 
ATOM     18  C   LIG A   1      -6.687   2.267 123.766  0.00  0.00    +0.004 A 
ATOM     19  C   LIG A   1      -6.916   0.922 127.225  0.00  0.00    +0.180 C 
ATOM     20  O   LIG A   1      -6.314   1.329 128.222  0.00  0.00    -0.290 OA
ATOM     21  C   LIG A   1      -7.823  -0.287 127.337  0.00  0.00    +0.089 C 
ATOM     22  C   LIG A   1      -7.172  -1.603 126.863  0.00  0.00    +0.030 C 
ATOM     23  C   LIG A   1      -6.514  -1.536 125.470  0.00  0.00    +0.039 C 
ENDROOT
BRANCH  23  24
ATOM     24  C   LIG A   1      -5.618  -2.765 125.196  0.00  0.00    +0.161 C 
BRANCH  24  25
ATOM     25  O   LIG A   1      -5.766  -3.172 123.838  0.00  0.00    -0.395 OA
ATOM     26  H   LIG A   1      -5.857  -4.140 123.838  0.00  0.00    +0.209 HD
ENDBRANCH  24  25
ENDBRANCH  23  24
TORSDOF 2
ENDMDL
MODEL 3
REMARK VINA RESULT:      -7.6      5.502      6.853
REMARK  Name = NuBBE_2408
REMARK  4 active torsions:
REMARK  status: ('A' for Active; 'I' for Inactive)
REMARK    1  A    between atoms: C_1  and  C_2
REMARK    2  A    between atoms: N_5  and  C_6
REMARK    3  A    between atoms: C_24  and  C_25
REMARK    4  A    between atoms: C_25  and  O_26
REMARK                            x       y       z     vdW  Elec       q    Type
REMARK                         _______ _______ _______ _____ _____    ______ ____
ROOT
ATOM      1  C   LIG A   1      -6.560  -3.086 133.738  0.00  0.00    +0.035 C 
ATOM      2  C   LIG A   1      -7.334  -2.991 132.461  0.00  0.00    -0.030 C 
ATOM      3  C   LIG A   1      -6.987  -2.333 131.335  0.00  0.00    -0.056 C 
ATOM      4  C   LIG A   1      -5.692  -1.559 131.182  0.00  0.00    +0.115 C 
ATOM      5  N   LIG A   1      -5.196  -1.461 129.813  0.00  0.00    -0.298 NA
ATOM      6  C   LIG A   1      -4.008  -0.610 129.744  0.00  0.00    +0.105 C 
ATOM      7  C   LIG A   1      -6.178  -1.119 128.752  0.00  0.00    +0.067 C 
ATOM      8  C   LIG A   1      -5.875  -2.126 127.598  0.00  0.00    +0.057 C 
ATOM      9  C   LIG A   1      -6.989  -2.454 126.647  0.00  0.00    -0.010 A 
ATOM     10  C   LIG A   1      -8.155  -3.169 126.919  0.00  0.00    +0.086 A 
ATOM     11  N   LIG A   1      -8.863  -3.246 125.740  0.00  0.00    -0.352 N 
ATOM     12  H   LIG A   1      -9.762  -3.702 125.660  0.00  0.00    +0.166 HD
ATOM     13  C   LIG A   1      -8.197  -2.626 124.717  0.00  0.00    +0.047 A 
ATOM     14  C   LIG A   1      -8.548  -2.483 123.369  0.00  0.00    +0.026 A 
ATOM     15  C   LIG A   1      -7.660  -1.796 122.538  0.00  0.00    +0.002 A 
ATOM     16  C   LIG A   1      -6.471  -1.271 123.037  0.00  0.00    +0.001 A 
ATOM     17  C   LIG A   1      -6.139  -1.423 124.389  0.00  0.00    +0.010 A 
ATOM     18  C   LIG A   1      -7.017  -2.115 125.251  0.00  0.00    +0.004 A 
ATOM     19  C   LIG A   1      -8.698  -3.738 128.144  0.00  0.00    +0.180 C 
ATOM     20  O   LIG A   1      -9.821  -4.248 128.160  0.00  0.00    -0.290 OA
ATOM     21  C   LIG A   1      -7.879  -3.682 129.418  0.00  0.00    +0.089 C 
ATOM     22  C   LIG A   1      -7.940  -2.320 130.141  0.00  0.00    +0.030 C 
ATOM     23  C   LIG A   1      -7.649  -1.098 129.247  0.00  0.00    +0.039 C 
ENDROOT
BRANCH  23  24
ATOM     24  C   LIG A   1      -8.033   0.228 129.940  0.00  0.00    +0.161 C 
BRANCH  24  25
ATOM     25  O   LIG A   1      -7.058   1.224 129.643  0.00  0.00    -0.395 OA
ATOM     26  H   LIG A   1      -7.236   1.538 128.741  0.00  0.00    +0.209 HD
ENDBRANCH  24  25
ENDBRANCH  23  24
TORSDOF 2
ENDMDL
MODEL 4
REMARK VINA RESULT:      -7.3      4.316      7.153
REMARK  Name = NuBBE_2408
REMARK  4 active torsions:
REMARK  status: ('A' for Active; 'I' for Inactive)
REMARK    1  A    between atoms: C_1  and  C_2
REMARK    2  A    between atoms: N_5  and  C_6
REMARK    3  A    between atoms: C_24  and  C_25
REMARK    4  A    between atoms: C_25  and  O_26
REMARK                            x       y       z     vdW  Elec       q    Type
REMARK                         _______ _______ _______ _____ _____    ______ ____
ROOT
ATOM      1  C   LIG A   1      -4.822  -3.966 123.601  0.00  0.00    +0.035 C 
ATOM      2  C   LIG A   1      -5.035  -2.535 123.981  0.00  0.00    -0.030 C 
ATOM      3  C   LIG A   1      -6.066  -2.014 124.680  0.00  0.00    -0.056 C 
ATOM      4  C   LIG A   1      -7.216  -2.842 125.219  0.00  0.00    +0.115 C 
ATOM      5  N   LIG A   1      -7.858  -2.295 126.410  0.00  0.00    -0.298 NA
ATOM      6  C   LIG A   1      -9.019  -3.095 126.797  0.00  0.00    +0.105 C 
ATOM      7  C   LIG A   1      -8.167  -0.842 126.415  0.00  0.00    +0.067 C 
ATOM      8  C   LIG A   1      -7.687  -0.343 127.814  0.00  0.00    +0.057 C 
ATOM      9  C   LIG A   1      -7.317   1.106 127.950  0.00  0.00    -0.010 A 
ATOM     10  C   LIG A   1      -6.226   1.760 127.380  0.00  0.00    +0.086 A 
ATOM     11  N   LIG A   1      -6.277   3.070 127.805  0.00  0.00    -0.352 N 
ATOM     12  H   LIG A   1      -5.605   3.772 127.524  0.00  0.00    +0.166 HD
ATOM     13  C   LIG A   1      -7.343   3.283 128.637  0.00  0.00    +0.047 A 
ATOM     14  C   LIG A   1      -7.754   4.448 129.295  0.00  0.00    +0.026 A 
ATOM     15  C   LIG A   1      -8.895   4.372 130.097  0.00  0.00    +0.002 A 
ATOM     16  C   LIG A   1      -9.597   3.177 130.232  0.00  0.00    +0.001 A 
ATOM     17  C   LIG A   1      -9.171   2.023 129.564  0.00  0.00    +0.010 A 
ATOM     18  C   LIG A   1      -8.020   2.071 128.748  0.00  0.00    +0.004 A 
ATOM     19  C   LIG A   1      -5.185   1.323 126.460  0.00  0.00    +0.180 C 
ATOM     20  O   LIG A   1      -4.367   2.126 126.004  0.00  0.00    -0.290 OA
ATOM     21  C   LIG A   1      -5.123  -0.132 126.044  0.00  0.00    +0.089 C 
ATOM     22  C   LIG A   1      -6.125  -0.509 124.933  0.00  0.00    +0.030 C 
ATOM     23  C   LIG A   1      -7.581  -0.076 125.199  0.00  0.00    +0.039 C 
ENDROOT
BRANCH  23  24
ATOM     24  C   LIG A   1      -8.458  -0.193 123.932  0.00  0.00    +0.161 C 
BRANCH  24  25
ATOM     25  O   LIG A   1      -9.748  -0.684 124.287  0.00  0.00    -0.395 OA
ATOM     26  H   LIG A   1      -9.651  -1.633 124.475  0.00  0.00    +0.209 HD
ENDBRANCH  24  25
ENDBRANCH  23  24
TORSDOF 2
ENDMDL
MODEL 5
REMARK VINA RESULT:      -7.3      6.080      8.714
REMARK  Name = NuBBE_2408
REMARK  4 active torsions:
REMARK  status: ('A' for Active; 'I' for Inactive)
REMARK    1  A    between atoms: C_1  and  C_2
REMARK    2  A    between atoms: N_5  and  C_6
REMARK    3  A    between atoms: C_24  and  C_25
REMARK    4  A    between atoms: C_25  and  O_26
REMARK                            x       y       z     vdW  Elec       q    Type
REMARK                         _______ _______ _______ _____ _____    ______ ____
ROOT
ATOM      1  C   LIG A   1      -3.760   1.419 132.215  0.00  0.00    +0.035 C 
ATOM      2  C   LIG A   1      -4.856   2.359 132.608  0.00  0.00    -0.030 C 
ATOM      3  C   LIG A   1      -5.492   3.255 131.824  0.00  0.00    -0.056 C 
ATOM      4  C   LIG A   1      -5.185   3.447 130.352  0.00  0.00    +0.115 C 
ATOM      5  N   LIG A   1      -6.303   3.939 129.552  0.00  0.00    -0.298 NA
ATOM      6  C   LIG A   1      -5.890   4.197 128.173  0.00  0.00    +0.105 C 
ATOM      7  C   LIG A   1      -7.098   5.064 130.107  0.00  0.00    +0.067 C 
ATOM      8  C   LIG A   1      -8.584   4.641 129.885  0.00  0.00    +0.057 C 
ATOM      9  C   LIG A   1      -9.621   5.227 130.799  0.00  0.00    -0.010 A 
ATOM     10  C   LIG A   1      -9.790   4.980 132.160  0.00  0.00    +0.086 A 
ATOM     11  N   LIG A   1     -10.883   5.712 132.568  0.00  0.00    -0.352 N 
ATOM     12  H   LIG A   1     -11.218   5.727 133.523  0.00  0.00    +0.166 HD
ATOM     13  C   LIG A   1     -11.435   6.408 131.526  0.00  0.00    +0.047 A 
ATOM     14  C   LIG A   1     -12.550   7.255 131.498  0.00  0.00    +0.026 A 
ATOM     15  C   LIG A   1     -12.892   7.835 130.274  0.00  0.00    +0.002 A 
ATOM     16  C   LIG A   1     -12.146   7.578 129.127  0.00  0.00    +0.001 A 
ATOM     17  C   LIG A   1     -11.034   6.730 129.176  0.00  0.00    +0.010 A 
ATOM     18  C   LIG A   1     -10.666   6.129 130.399  0.00  0.00    +0.004 A 
ATOM     19  C   LIG A   1      -9.033   4.189 133.119  0.00  0.00    +0.180 C 
ATOM     20  O   LIG A   1      -9.320   4.204 134.318  0.00  0.00    -0.290 OA
ATOM     21  C   LIG A   1      -7.863   3.355 132.637  0.00  0.00    +0.089 C 
ATOM     22  C   LIG A   1      -6.564   4.161 132.426  0.00  0.00    +0.030 C 
ATOM     23  C   LIG A   1      -6.723   5.432 131.568  0.00  0.00    +0.039 C 
ENDROOT
BRANCH  23  24
ATOM     24  C   LIG A   1      -5.482   6.348 131.659  0.00  0.00    +0.161 C 
BRANCH  24  25
ATOM     25  O   LIG A   1      -5.243   6.959 130.394  0.00  0.00    -0.395 OA
ATOM     26  H   LIG A   1      -5.601   6.361 129.716  0.00  0.00    +0.209 HD
ENDBRANCH  24  25
ENDBRANCH  23  24
TORSDOF 2
ENDMDL
MODEL 6
REMARK VINA RESULT:      -7.1      3.077      5.532
REMARK  Name = NuBBE_2408
REMARK  4 active torsions:
REMARK  status: ('A' for Active; 'I' for Inactive)
REMARK    1  A    between atoms: C_1  and  C_2
REMARK    2  A    between atoms: N_5  and  C_6
REMARK    3  A    between atoms: C_24  and  C_25
REMARK    4  A    between atoms: C_25  and  O_26
REMARK                            x       y       z     vdW  Elec       q    Type
REMARK                         _______ _______ _______ _____ _____    ______ ____
ROOT
ATOM      1  C   LIG A   1      -3.422   5.506 127.681  0.00  0.00    +0.035 C 
ATOM      2  C   LIG A   1      -4.355   4.346 127.832  0.00  0.00    -0.030 C 
ATOM      3  C   LIG A   1      -5.183   3.829 126.899  0.00  0.00    -0.056 C 
ATOM      4  C   LIG A   1      -5.293   4.368 125.486  0.00  0.00    +0.115 C 
ATOM      5  N   LIG A   1      -5.704   3.385 124.487  0.00  0.00    -0.298 NA
ATOM      6  C   LIG A   1      -5.888   4.011 123.178  0.00  0.00    +0.105 C 
ATOM      7  C   LIG A   1      -6.839   2.493 124.833  0.00  0.00    +0.067 C 
ATOM      8  C   LIG A   1      -6.364   1.069 124.403  0.00  0.00    +0.057 C 
ATOM      9  C   LIG A   1      -6.977  -0.112 125.099  0.00  0.00    -0.010 A 
ATOM     10  C   LIG A   1      -6.809  -0.494 126.429  0.00  0.00    +0.086 A 
ATOM     11  N   LIG A   1      -7.536  -1.651 126.609  0.00  0.00    -0.352 N 
ATOM     12  H   LIG A   1      -7.600  -2.136 127.494  0.00  0.00    +0.166 HD
ATOM     13  C   LIG A   1      -8.151  -2.039 125.448  0.00  0.00    +0.047 A 
ATOM     14  C   LIG A   1      -8.964  -3.148 125.187  0.00  0.00    +0.026 A 
ATOM     15  C   LIG A   1      -9.458  -3.298 123.889  0.00  0.00    +0.002 A 
ATOM     16  C   LIG A   1      -9.151  -2.372 122.895  0.00  0.00    +0.001 A 
ATOM     17  C   LIG A   1      -8.338  -1.269 123.177  0.00  0.00    +0.010 A 
ATOM     18  C   LIG A   1      -7.823  -1.093 124.480  0.00  0.00    +0.004 A 
ATOM     19  C   LIG A   1      -6.099   0.111 127.547  0.00  0.00    +0.180 C 
ATOM     20  O   LIG A   1      -6.180  -0.366 128.681  0.00  0.00    -0.290 OA
ATOM     21  C   LIG A   1      -5.269   1.358 127.314  0.00  0.00    +0.089 C 
ATOM     22  C   LIG A   1      -6.095   2.659 127.261  0.00  0.00    +0.030 C 
ATOM     23  C   LIG A   1      -7.306   2.620 126.308  0.00  0.00    +0.039 C 
ENDROOT
BRANCH  23  24
ATOM     24  C   LIG A   1      -8.259   3.814 126.537  0.00  0.00    +0.161 C 
BRANCH  24  25
ATOM     25  O   LIG A   1      -8.864   4.189 125.302  0.00  0.00    -0.395 OA
ATOM     26  H   LIG A   1      -8.183   4.642 124.776  0.00  0.00    +0.209 HD
ENDBRANCH  24  25
ENDBRANCH  23  24
TORSDOF 2
ENDMDL
MODEL 7
REMARK VINA RESULT:      -7.1      3.489      5.655
REMARK  Name = NuBBE_2408
REMARK  4 active torsions:
REMARK  status: ('A' for Active; 'I' for Inactive)
REMARK    1  A    between atoms: C_1  and  C_2
REMARK    2  A    between atoms: N_5  and  C_6
REMARK    3  A    between atoms: C_24  and  C_25
REMARK    4  A    between atoms: C_25  and  O_26
REMARK                            x       y       z     vdW  Elec       q    Type
REMARK                         _______ _______ _______ _____ _____    ______ ____
ROOT
ATOM      1  C   LIG A   1      -3.419   7.354 129.171  0.00  0.00    +0.035 C 
ATOM      2  C   LIG A   1      -3.681   6.502 127.969  0.00  0.00    -0.030 C 
ATOM      3  C   LIG A   1      -3.789   5.157 127.920  0.00  0.00    -0.056 C 
ATOM      4  C   LIG A   1      -3.664   4.263 129.138  0.00  0.00    +0.115 C 
ATOM      5  N   LIG A   1      -4.394   3.001 129.049  0.00  0.00    -0.298 NA
ATOM      6  C   LIG A   1      -4.131   2.158 130.214  0.00  0.00    +0.105 C 
ATOM      7  C   LIG A   1      -4.283   2.236 127.781  0.00  0.00    +0.067 C 
ATOM      8  C   LIG A   1      -5.749   1.814 127.448  0.00  0.00    +0.057 C 
ATOM      9  C   LIG A   1      -6.089   1.544 126.011  0.00  0.00    -0.010 A 
ATOM     10  C   LIG A   1      -6.153   2.465 124.967  0.00  0.00    +0.086 A 
ATOM     11  N   LIG A   1      -6.533   1.769 123.840  0.00  0.00    -0.352 N 
ATOM     12  H   LIG A   1      -6.641   2.199 122.931  0.00  0.00    +0.166 HD
ATOM     13  C   LIG A   1      -6.731   0.443 124.117  0.00  0.00    +0.047 A 
ATOM     14  C   LIG A   1      -7.129  -0.603 123.276  0.00  0.00    +0.026 A 
ATOM     15  C   LIG A   1      -7.256  -1.875 123.839  0.00  0.00    +0.002 A 
ATOM     16  C   LIG A   1      -6.993  -2.090 125.189  0.00  0.00    +0.001 A 
ATOM     17  C   LIG A   1      -6.594  -1.031 126.013  0.00  0.00    +0.010 A 
ATOM     18  C   LIG A   1      -6.458   0.265 125.471  0.00  0.00    +0.004 A 
ATOM     19  C   LIG A   1      -5.861   3.889 124.890  0.00  0.00    +0.180 C 
ATOM     20  O   LIG A   1      -5.892   4.484 123.810  0.00  0.00    -0.290 OA
ATOM     21  C   LIG A   1      -5.491   4.643 126.152  0.00  0.00    +0.089 C 
ATOM     22  C   LIG A   1      -4.020   4.464 126.580  0.00  0.00    +0.030 C 
ATOM     23  C   LIG A   1      -3.540   3.000 126.653  0.00  0.00    +0.039 C 
ENDROOT
BRANCH  23  24
ATOM     24  C   LIG A   1      -2.002   2.904 126.771  0.00  0.00    +0.161 C 
BRANCH  24  25
ATOM     25  O   LIG A   1      -1.394   3.697 125.755  0.00  0.00    -0.395 OA
ATOM     26  H   LIG A   1      -0.911   4.413 126.202  0.00  0.00    +0.209 HD
ENDBRANCH  24  25
ENDBRANCH  23  24
TORSDOF 2
ENDMDL
MODEL 8
REMARK VINA RESULT:      -7.1      6.293      8.284
REMARK  Name = NuBBE_2408
REMARK  4 active torsions:
REMARK  status: ('A' for Active; 'I' for Inactive)
REMARK    1  A    between atoms: C_1  and  C_2
REMARK    2  A    between atoms: N_5  and  C_6
REMARK    3  A    between atoms: C_24  and  C_25
REMARK    4  A    between atoms: C_25  and  O_26
REMARK                            x       y       z     vdW  Elec       q    Type
REMARK                         _______ _______ _______ _____ _____    ______ ____
ROOT
ATOM      1  C   LIG A   1      -6.501   4.619 134.542  0.00  0.00    +0.035 C 
ATOM      2  C   LIG A   1      -7.116   3.330 134.098  0.00  0.00    -0.030 C 
ATOM      3  C   LIG A   1      -7.448   2.967 132.841  0.00  0.00    -0.056 C 
ATOM      4  C   LIG A   1      -7.230   3.851 131.628  0.00  0.00    +0.115 C 
ATOM      5  N   LIG A   1      -7.045   3.131 130.371  0.00  0.00    -0.298 NA
ATOM      6  C   LIG A   1      -6.950   4.057 129.244  0.00  0.00    +0.105 C 
ATOM      7  C   LIG A   1      -7.974   2.009 130.083  0.00  0.00    +0.067 C 
ATOM      8  C   LIG A   1      -7.050   0.854 129.582  0.00  0.00    +0.057 C 
ATOM      9  C   LIG A   1      -7.541  -0.555 129.746  0.00  0.00    -0.010 A 
ATOM     10  C   LIG A   1      -7.718  -1.259 130.936  0.00  0.00    +0.086 A 
ATOM     11  N   LIG A   1      -8.154  -2.520 130.595  0.00  0.00    -0.352 N 
ATOM     12  H   LIG A   1      -8.376  -3.236 131.275  0.00  0.00    +0.166 HD
ATOM     13  C   LIG A   1      -8.251  -2.665 129.236  0.00  0.00    +0.047 A 
ATOM     14  C   LIG A   1      -8.637  -3.773 128.473  0.00  0.00    +0.026 A 
ATOM     15  C   LIG A   1      -8.638  -3.634 127.083  0.00  0.00    +0.002 A 
ATOM     16  C   LIG A   1      -8.268  -2.433 126.484  0.00  0.00    +0.001 A 
ATOM     17  C   LIG A   1      -7.887  -1.335 127.264  0.00  0.00    +0.010 A 
ATOM     18  C   LIG A   1      -7.876  -1.448 128.671  0.00  0.00    +0.004 A 
ATOM     19  C   LIG A   1      -7.575  -0.882 132.335  0.00  0.00    +0.180 C 
ATOM     20  O   LIG A   1      -7.893  -1.661 133.236  0.00  0.00    -0.290 OA
ATOM     21  C   LIG A   1      -7.049   0.496 132.684  0.00  0.00    +0.089 C 
ATOM     22  C   LIG A   1      -8.109   1.613 132.593  0.00  0.00    +0.030 C 
ATOM     23  C   LIG A   1      -8.903   1.647 131.272  0.00  0.00    +0.039 C 
ENDROOT
BRANCH  23  24
ATOM     24  C   LIG A   1     -10.144   2.563 131.368  0.00  0.00    +0.161 C 
BRANCH  24  25
ATOM     25  O   LIG A   1     -10.315   3.268 130.142  0.00  0.00    -0.395 OA
ATOM     26  H   LIG A   1     -10.659   4.149 130.363  0.00  0.00    +0.209 HD
ENDBRANCH  24  25
ENDBRANCH  23  24
TORSDOF 2
ENDMDL
MODEL 9
REMARK VINA RESULT:      -6.9      5.193      7.290
REMARK  Name = NuBBE_2408
REMARK  4 active torsions:
REMARK  status: ('A' for Active; 'I' for Inactive)
REMARK    1  A    between atoms: C_1  and  C_2
REMARK    2  A    between atoms: N_5  and  C_6
REMARK    3  A    between atoms: C_24  and  C_25
REMARK    4  A    between atoms: C_25  and  O_26
REMARK                            x       y       z     vdW  Elec       q    Type
REMARK                         _______ _______ _______ _____ _____    ______ ____
ROOT
ATOM      1  C   LIG A   1      -4.122   0.922 132.771  0.00  0.00    +0.035 C 
ATOM      2  C   LIG A   1      -4.163   0.665 131.298  0.00  0.00    -0.030 C 
ATOM      3  C   LIG A   1      -4.842  -0.306 130.650  0.00  0.00    -0.056 C 
ATOM      4  C   LIG A   1      -5.715  -1.328 131.352  0.00  0.00    +0.115 C 
ATOM      5  N   LIG A   1      -6.810  -1.857 130.543  0.00  0.00    -0.298 NA
ATOM      6  C   LIG A   1      -7.530  -2.910 131.257  0.00  0.00    +0.105 C 
ATOM      7  C   LIG A   1      -6.498  -2.254 129.146  0.00  0.00    +0.067 C 
ATOM      8  C   LIG A   1      -7.656  -1.642 128.297  0.00  0.00    +0.057 C 
ATOM      9  C   LIG A   1      -7.382  -1.351 126.850  0.00  0.00    -0.010 A 
ATOM     10  C   LIG A   1      -6.529  -0.381 126.325  0.00  0.00    +0.086 A 
ATOM     11  N   LIG A   1      -6.623  -0.463 124.953  0.00  0.00    -0.352 N 
ATOM     12  H   LIG A   1      -6.092   0.123 124.323  0.00  0.00    +0.166 HD
ATOM     13  C   LIG A   1      -7.511  -1.434 124.571  0.00  0.00    +0.047 A 
ATOM     14  C   LIG A   1      -7.910  -1.836 123.291  0.00  0.00    +0.026 A 
ATOM     15  C   LIG A   1      -8.850  -2.866 123.199  0.00  0.00    +0.002 A 
ATOM     16  C   LIG A   1      -9.365  -3.469 124.343  0.00  0.00    +0.001 A 
ATOM     17  C   LIG A   1      -8.951  -3.054 125.614  0.00  0.00    +0.010 A 
ATOM     18  C   LIG A   1      -8.004  -2.014 125.737  0.00  0.00    +0.004 A 
ATOM     19  C   LIG A   1      -5.616   0.568 126.946  0.00  0.00    +0.180 C 
ATOM     20  O   LIG A   1      -4.873   1.273 126.259  0.00  0.00    -0.290 OA
ATOM     21  C   LIG A   1      -5.565   0.672 128.457  0.00  0.00    +0.089 C 
ATOM     22  C   LIG A   1      -4.724  -0.430 129.133  0.00  0.00    +0.030 C 
ATOM     23  C   LIG A   1      -5.065  -1.868 128.693  0.00  0.00    +0.039 C 
ENDROOT
BRANCH  23  24
ATOM     24  C   LIG A   1      -3.993  -2.881 129.153  0.00  0.00    +0.161 C 
BRANCH  24  25
ATOM     25  O   LIG A   1      -4.627  -4.029 129.709  0.00  0.00    -0.395 OA
ATOM     26  H   LIG A   1      -3.923  -4.646 129.973  0.00  0.00    +0.209 HD
ENDBRANCH  24  25
ENDBRANCH  23  24
TORSDOF 2
ENDMDL
