MODEL 1
REMARK VINA RESULT:      -7.1      0.000      0.000
REMARK  Name = NuBBE_116
REMARK  13 active torsions:
REMARK  status: ('A' for Active; 'I' for Inactive)
REMARK    1  A    between atoms: C_2  and  C_3
REMARK    2  A    between atoms: C_2  and  O_36
REMARK    3  A    between atoms: C_6  and  O_19
REMARK    4  A    between atoms: C_10  and  O_16
REMARK    5  A    between atoms: C_13  and  O_14
REMARK    6  A    between atoms: C_13  and  C_15
REMARK    7  A    between atoms: O_19  and  C_20
REMARK    8  A    between atoms: C_23  and  C_34
REMARK    9  A    between atoms: C_25  and  O_33
REMARK   10  A    between atoms: C_27  and  O_32
REMARK   11  A    between atoms: C_29  and  O_31
REMARK   12  A    between atoms: C_34  and  O_35
REMARK   13  A    between atoms: O_36  and  C_37
REMARK                            x       y       z     vdW  Elec       q    Type
REMARK                         _______ _______ _______ _____ _____    ______ ____
ROOT
ATOM      1  C   LIG A   1      -6.231   4.676 132.470  0.00  0.00    +0.077 C 
ATOM      2  C   LIG A   1      -6.833   4.205 131.371  0.00  0.00    +0.201 C 
ATOM      3  O   LIG A   1      -7.200   4.963 130.288  0.00  0.00    -0.470 OA
ATOM      4  C   LIG A   1      -7.330   6.363 130.575  0.00  0.00    +0.316 C 
ATOM      5  C   LIG A   1      -6.122   6.930 131.328  0.00  0.00    +0.099 C 
ATOM      6  C   LIG A   1      -5.810   6.118 132.603  0.00  0.00    +0.069 C 
ATOM      7  C   LIG A   1      -4.281   6.276 132.799  0.00  0.00    +0.126 C 
ATOM      8  C   LIG A   1      -3.781   7.187 131.682  0.00  0.00    +0.067 C 
ATOM      9  C   LIG A   1      -4.792   7.008 130.549  0.00  0.00    +0.075 C 
ATOM     10  C   LIG A   1      -4.417   5.824 129.658  0.00  0.00    +0.042 C 
ENDROOT
BRANCH   1  12
ATOM     11  O   LIG A   1      -5.388   2.641 133.402  0.00  0.00    -0.245 OA
ATOM     12  C   LIG A   1      -5.953   3.707 133.558  0.00  0.00    +0.338 C 
BRANCH  12  13
ATOM     13  O   LIG A   1      -6.399   4.214 134.732  0.00  0.00    -0.465 OA
ATOM     14  C   LIG A   1      -5.486   4.098 135.819  0.00  0.00    +0.280 C 
ENDBRANCH  12  13
ENDBRANCH   1  12
BRANCH   9  15
ATOM     15  O   LIG A   1      -4.764   8.187 129.744  0.00  0.00    -0.388 OA
ATOM     16  H   LIG A   1      -4.540   8.947 130.307  0.00  0.00    +0.210 HD
ENDBRANCH   9  15
BRANCH   7  17
ATOM     17  O   LIG A   1      -3.997   6.861 134.063  0.00  0.00    -0.391 OA
ATOM     18  H   LIG A   1      -3.078   7.179 134.047  0.00  0.00    +0.210 HD
ENDBRANCH   7  17
BRANCH   4  19
ATOM     19  O   LIG A   1      -8.512   6.629 131.344  0.00  0.00    -0.309 OA
BRANCH  19  20
ATOM     20  C   LIG A   1      -9.713   6.273 130.647  0.00  0.00    +0.286 C 
ATOM     21  O   LIG A   1      -9.729   6.969 129.398  0.00  0.00    -0.340 OA
ATOM     22  C   LIG A   1     -10.928   6.783 128.652  0.00  0.00    +0.178 C 
ATOM     23  C   LIG A   1     -12.110   7.380 129.427  0.00  0.00    +0.177 C 
ATOM     24  C   LIG A   1     -12.234   6.632 130.754  0.00  0.00    +0.179 C 
ATOM     25  C   LIG A   1     -10.921   6.649 131.541  0.00  0.00    +0.201 C 
BRANCH  25  26
ATOM     26  O   LIG A   1     -11.053   5.733 132.643  0.00  0.00    -0.384 OA
ATOM     27  H   LIG A   1     -10.527   6.125 133.368  0.00  0.00    +0.210 HD
ENDBRANCH  25  26
BRANCH  24  28
ATOM     28  O   LIG A   1     -13.275   7.221 131.551  0.00  0.00    -0.386 OA
ATOM     29  H   LIG A   1     -13.376   8.132 131.201  0.00  0.00    +0.210 HD
ENDBRANCH  24  28
BRANCH  23  30
ATOM     30  O   LIG A   1     -13.355   7.256 128.737  0.00  0.00    -0.387 OA
ATOM     31  H   LIG A   1     -14.022   6.985 129.406  0.00  0.00    +0.210 HD
ENDBRANCH  23  30
BRANCH  22  32
ATOM     32  C   LIG A   1     -10.737   7.460 127.290  0.00  0.00    +0.190 C 
BRANCH  32  33
ATOM     33  O   LIG A   1     -11.444   6.770 126.264  0.00  0.00    -0.392 OA
ATOM     34  H   LIG A   1     -11.879   6.001 126.679  0.00  0.00    +0.209 HD
ENDBRANCH  32  33
ENDBRANCH  22  32
ENDBRANCH  19  20
ENDBRANCH   4  19
TORSDOF 11
ENDMDL
MODEL 2
REMARK VINA RESULT:      -7.0      2.509      3.892
REMARK  Name = NuBBE_116
REMARK  13 active torsions:
REMARK  status: ('A' for Active; 'I' for Inactive)
REMARK    1  A    between atoms: C_2  and  C_3
REMARK    2  A    between atoms: C_2  and  O_36
REMARK    3  A    between atoms: C_6  and  O_19
REMARK    4  A    between atoms: C_10  and  O_16
REMARK    5  A    between atoms: C_13  and  O_14
REMARK    6  A    between atoms: C_13  and  C_15
REMARK    7  A    between atoms: O_19  and  C_20
REMARK    8  A    between atoms: C_23  and  C_34
REMARK    9  A    between atoms: C_25  and  O_33
REMARK   10  A    between atoms: C_27  and  O_32
REMARK   11  A    between atoms: C_29  and  O_31
REMARK   12  A    between atoms: C_34  and  O_35
REMARK   13  A    between atoms: O_36  and  C_37
REMARK                            x       y       z     vdW  Elec       q    Type
REMARK                         _______ _______ _______ _____ _____    ______ ____
ROOT
ATOM      1  C   LIG A   1      -8.152   3.440 130.201  0.00  0.00    +0.077 C 
ATOM      2  C   LIG A   1      -8.183   4.534 129.429  0.00  0.00    +0.201 C 
ATOM      3  O   LIG A   1      -8.859   5.689 129.729  0.00  0.00    -0.470 OA
ATOM      4  C   LIG A   1      -9.914   5.514 130.686  0.00  0.00    +0.316 C 
ATOM      5  C   LIG A   1      -9.467   4.737 131.928  0.00  0.00    +0.099 C 
ATOM      6  C   LIG A   1      -8.813   3.390 131.556  0.00  0.00    +0.069 C 
ATOM      7  C   LIG A   1      -7.804   3.119 132.700  0.00  0.00    +0.126 C 
ATOM      8  C   LIG A   1      -7.937   4.270 133.692  0.00  0.00    +0.067 C 
ATOM      9  C   LIG A   1      -8.462   5.442 132.864  0.00  0.00    +0.075 C 
ATOM     10  C   LIG A   1      -7.314   6.221 132.221  0.00  0.00    +0.042 C 
ENDROOT
BRANCH   1  12
ATOM     11  O   LIG A   1      -6.188   2.210 129.605  0.00  0.00    -0.245 OA
ATOM     12  C   LIG A   1      -7.401   2.269 129.686  0.00  0.00    +0.338 C 
BRANCH  12  13
ATOM     13  O   LIG A   1      -8.275   1.289 129.355  0.00  0.00    -0.465 OA
ATOM     14  C   LIG A   1      -7.683   0.014 129.121  0.00  0.00    +0.280 C 
ENDBRANCH  12  13
ENDBRANCH   1  12
BRANCH   9  15
ATOM     15  O   LIG A   1      -9.152   6.329 133.745  0.00  0.00    -0.388 OA
ATOM     16  H   LIG A   1      -9.369   7.145 133.264  0.00  0.00    +0.210 HD
ENDBRANCH   9  15
BRANCH   7  17
ATOM     17  O   LIG A   1      -8.100   1.887 133.346  0.00  0.00    -0.391 OA
ATOM     18  H   LIG A   1      -7.432   1.743 134.038  0.00  0.00    +0.210 HD
ENDBRANCH   7  17
BRANCH   4  19
ATOM     19  O   LIG A   1     -11.037   4.836 130.104  0.00  0.00    -0.309 OA
BRANCH  19  20
ATOM     20  C   LIG A   1     -12.062   5.741 129.671  0.00  0.00    +0.286 C 
ATOM     21  O   LIG A   1     -11.750   6.169 128.343  0.00  0.00    -0.340 OA
ATOM     22  C   LIG A   1     -12.640   7.159 127.835  0.00  0.00    +0.178 C 
ATOM     23  C   LIG A   1     -12.517   8.435 128.677  0.00  0.00    +0.177 C 
ATOM     24  C   LIG A   1     -12.922   8.099 130.111  0.00  0.00    +0.179 C 
ATOM     25  C   LIG A   1     -12.113   6.925 130.669  0.00  0.00    +0.201 C 
BRANCH  25  26
ATOM     26  O   LIG A   1     -12.715   6.526 131.914  0.00  0.00    -0.384 OA
ATOM     27  H   LIG A   1     -12.667   7.316 132.488  0.00  0.00    +0.210 HD
ENDBRANCH  25  26
BRANCH  24  28
ATOM     28  O   LIG A   1     -12.734   9.250 130.953  0.00  0.00    -0.386 OA
ATOM     29  H   LIG A   1     -12.945   8.936 131.859  0.00  0.00    +0.210 HD
ENDBRANCH  24  28
BRANCH  23  30
ATOM     30  O   LIG A   1     -13.363   9.493 128.220  0.00  0.00    -0.387 OA
ATOM     31  H   LIG A   1     -13.756   9.193 127.370  0.00  0.00    +0.210 HD
ENDBRANCH  23  30
BRANCH  22  32
ATOM     32  C   LIG A   1     -12.273   7.404 126.367  0.00  0.00    +0.190 C 
BRANCH  32  33
ATOM     33  O   LIG A   1     -11.004   6.841 126.048  0.00  0.00    -0.392 OA
ATOM     34  H   LIG A   1     -10.447   6.913 126.846  0.00  0.00    +0.209 HD
ENDBRANCH  32  33
ENDBRANCH  22  32
ENDBRANCH  19  20
ENDBRANCH   4  19
TORSDOF 11
ENDMDL
MODEL 3
REMARK VINA RESULT:      -6.9      3.437      5.523
REMARK  Name = NuBBE_116
REMARK  13 active torsions:
REMARK  status: ('A' for Active; 'I' for Inactive)
REMARK    1  A    between atoms: C_2  and  C_3
REMARK    2  A    between atoms: C_2  and  O_36
REMARK    3  A    between atoms: C_6  and  O_19
REMARK    4  A    between atoms: C_10  and  O_16
REMARK    5  A    between atoms: C_13  and  O_14
REMARK    6  A    between atoms: C_13  and  C_15
REMARK    7  A    between atoms: O_19  and  C_20
REMARK    8  A    between atoms: C_23  and  C_34
REMARK    9  A    between atoms: C_25  and  O_33
REMARK   10  A    between atoms: C_27  and  O_32
REMARK   11  A    between atoms: C_29  and  O_31
REMARK   12  A    between atoms: C_34  and  O_35
REMARK   13  A    between atoms: O_36  and  C_37
REMARK                            x       y       z     vdW  Elec       q    Type
REMARK                         _______ _______ _______ _____ _____    ______ ____
ROOT
ATOM      1  C   LIG A   1      -5.366   4.461 127.496  0.00  0.00    +0.077 C 
ATOM      2  C   LIG A   1      -5.536   3.707 128.589  0.00  0.00    +0.201 C 
ATOM      3  O   LIG A   1      -6.705   3.077 128.936  0.00  0.00    -0.470 OA
ATOM      4  C   LIG A   1      -7.873   3.637 128.320  0.00  0.00    +0.316 C 
ATOM      5  C   LIG A   1      -7.715   3.825 126.808  0.00  0.00    +0.099 C 
ATOM      6  C   LIG A   1      -6.450   4.638 126.462  0.00  0.00    +0.069 C 
ATOM      7  C   LIG A   1      -6.027   4.121 125.064  0.00  0.00    +0.126 C 
ATOM      8  C   LIG A   1      -7.062   3.083 124.641  0.00  0.00    +0.067 C 
ATOM      9  C   LIG A   1      -7.633   2.543 125.952  0.00  0.00    +0.075 C 
ATOM     10  C   LIG A   1      -6.789   1.384 126.484  0.00  0.00    +0.042 C 
ENDROOT
BRANCH   1  12
ATOM     11  O   LIG A   1      -3.023   4.501 127.014  0.00  0.00    -0.245 OA
ATOM     12  C   LIG A   1      -4.040   5.100 127.314  0.00  0.00    +0.338 C 
BRANCH  12  13
ATOM     13  O   LIG A   1      -4.157   6.435 127.505  0.00  0.00    -0.465 OA
ATOM     14  C   LIG A   1      -3.190   7.001 128.385  0.00  0.00    +0.280 C 
ENDBRANCH  12  13
ENDBRANCH   1  12
BRANCH   9  15
ATOM     15  O   LIG A   1      -8.944   2.044 125.689  0.00  0.00    -0.388 OA
ATOM     16  H   LIG A   1      -9.574   2.785 125.713  0.00  0.00    +0.210 HD
ENDBRANCH   9  15
BRANCH   7  17
ATOM     17  O   LIG A   1      -6.000   5.188 124.123  0.00  0.00    -0.391 OA
ATOM     18  H   LIG A   1      -5.371   5.856 124.445  0.00  0.00    +0.210 HD
ENDBRANCH   7  17
BRANCH   4  19
ATOM     19  O   LIG A   1      -8.214   4.903 128.904  0.00  0.00    -0.309 OA
BRANCH  19  20
ATOM     20  C   LIG A   1      -9.368   4.825 129.751  0.00  0.00    +0.286 C 
ATOM     21  O   LIG A   1     -10.414   5.597 129.155  0.00  0.00    -0.340 OA
ATOM     22  C   LIG A   1     -11.588   5.688 129.957  0.00  0.00    +0.178 C 
ATOM     23  C   LIG A   1     -11.263   6.438 131.255  0.00  0.00    +0.177 C 
ATOM     24  C   LIG A   1     -10.208   5.635 132.016  0.00  0.00    +0.179 C 
ATOM     25  C   LIG A   1      -8.976   5.355 131.153  0.00  0.00    +0.201 C 
BRANCH  25  26
ATOM     26  O   LIG A   1      -8.152   4.405 131.853  0.00  0.00    -0.384 OA
ATOM     27  H   LIG A   1      -8.516   3.528 131.620  0.00  0.00    +0.210 HD
ENDBRANCH  25  26
BRANCH  24  28
ATOM     28  O   LIG A   1      -9.809   6.351 133.198  0.00  0.00    -0.386 OA
ATOM     29  H   LIG A   1      -9.165   5.761 133.644  0.00  0.00    +0.210 HD
ENDBRANCH  24  28
BRANCH  23  30
ATOM     30  O   LIG A   1     -12.396   6.596 132.112  0.00  0.00    -0.387 OA
ATOM     31  H   LIG A   1     -13.162   6.198 131.642  0.00  0.00    +0.210 HD
ENDBRANCH  23  30
BRANCH  22  32
ATOM     32  C   LIG A   1     -12.658   6.411 129.131  0.00  0.00    +0.190 C 
BRANCH  32  33
ATOM     33  O   LIG A   1     -12.768   7.780 129.508  0.00  0.00    -0.392 OA
ATOM     34  H   LIG A   1     -13.005   7.802 130.454  0.00  0.00    +0.209 HD
ENDBRANCH  32  33
ENDBRANCH  22  32
ENDBRANCH  19  20
ENDBRANCH   4  19
TORSDOF 11
ENDMDL
MODEL 4
REMARK VINA RESULT:      -6.8      1.463      3.709
REMARK  Name = NuBBE_116
REMARK  13 active torsions:
REMARK  status: ('A' for Active; 'I' for Inactive)
REMARK    1  A    between atoms: C_2  and  C_3
REMARK    2  A    between atoms: C_2  and  O_36
REMARK    3  A    between atoms: C_6  and  O_19
REMARK    4  A    between atoms: C_10  and  O_16
REMARK    5  A    between atoms: C_13  and  O_14
REMARK    6  A    between atoms: C_13  and  C_15
REMARK    7  A    between atoms: O_19  and  C_20
REMARK    8  A    between atoms: C_23  and  C_34
REMARK    9  A    between atoms: C_25  and  O_33
REMARK   10  A    between atoms: C_27  and  O_32
REMARK   11  A    between atoms: C_29  and  O_31
REMARK   12  A    between atoms: C_34  and  O_35
REMARK   13  A    between atoms: O_36  and  C_37
REMARK                            x       y       z     vdW  Elec       q    Type
REMARK                         _______ _______ _______ _____ _____    ______ ____
ROOT
ATOM      1  C   LIG A   1      -5.295   6.079 130.869  0.00  0.00    +0.077 C 
ATOM      2  C   LIG A   1      -5.574   6.418 132.134  0.00  0.00    +0.201 C 
ATOM      3  O   LIG A   1      -6.678   6.001 132.835  0.00  0.00    -0.470 OA
ATOM      4  C   LIG A   1      -7.761   5.558 132.006  0.00  0.00    +0.316 C 
ATOM      5  C   LIG A   1      -7.317   4.561 130.931  0.00  0.00    +0.099 C 
ATOM      6  C   LIG A   1      -6.149   5.112 130.087  0.00  0.00    +0.069 C 
ATOM      7  C   LIG A   1      -5.364   3.853 129.641  0.00  0.00    +0.126 C 
ATOM      8  C   LIG A   1      -6.113   2.644 130.192  0.00  0.00    +0.067 C 
ATOM      9  C   LIG A   1      -6.857   3.171 131.419  0.00  0.00    +0.075 C 
ATOM     10  C   LIG A   1      -5.976   3.109 132.667  0.00  0.00    +0.042 C 
ENDROOT
BRANCH   1  12
ATOM     11  O   LIG A   1      -2.979   6.671 130.790  0.00  0.00    -0.245 OA
ATOM     12  C   LIG A   1      -4.076   6.668 130.263  0.00  0.00    +0.338 C 
BRANCH  12  13
ATOM     13  O   LIG A   1      -4.380   7.164 129.041  0.00  0.00    -0.465 OA
ATOM     14  C   LIG A   1      -3.470   6.804 128.006  0.00  0.00    +0.280 C 
ENDBRANCH  12  13
ENDBRANCH   1  12
BRANCH   9  15
ATOM     15  O   LIG A   1      -7.989   2.330 131.641  0.00  0.00    -0.388 OA
ATOM     16  H   LIG A   1      -7.806   1.748 132.398  0.00  0.00    +0.210 HD
ENDBRANCH   9  15
BRANCH   7  17
ATOM     17  O   LIG A   1      -5.305   3.778 128.221  0.00  0.00    -0.391 OA
ATOM     18  H   LIG A   1      -5.928   3.091 127.931  0.00  0.00    +0.210 HD
ENDBRANCH   7  17
BRANCH   4  19
ATOM     19  O   LIG A   1      -8.410   6.664 131.362  0.00  0.00    -0.309 OA
BRANCH  19  20
ATOM     20  C   LIG A   1      -9.602   6.275 130.669  0.00  0.00    +0.286 C 
ATOM     21  O   LIG A   1      -9.631   6.953 129.410  0.00  0.00    -0.340 OA
ATOM     22  C   LIG A   1     -10.825   6.732 128.666  0.00  0.00    +0.178 C 
ATOM     23  C   LIG A   1     -12.019   7.316 129.432  0.00  0.00    +0.177 C 
ATOM     24  C   LIG A   1     -12.130   6.584 130.769  0.00  0.00    +0.179 C 
ATOM     25  C   LIG A   1     -10.819   6.640 131.556  0.00  0.00    +0.201 C 
BRANCH  25  26
ATOM     26  O   LIG A   1     -10.934   5.736 132.672  0.00  0.00    -0.384 OA
ATOM     27  H   LIG A   1     -10.072   5.782 133.130  0.00  0.00    +0.210 HD
ENDBRANCH  25  26
BRANCH  24  28
ATOM     28  O   LIG A   1     -13.184   7.164 131.557  0.00  0.00    -0.386 OA
ATOM     29  H   LIG A   1     -12.772   7.936 132.000  0.00  0.00    +0.210 HD
ENDBRANCH  24  28
BRANCH  23  30
ATOM     30  O   LIG A   1     -13.262   7.158 128.742  0.00  0.00    -0.387 OA
ATOM     31  H   LIG A   1     -13.156   7.597 127.869  0.00  0.00    +0.210 HD
ENDBRANCH  23  30
BRANCH  22  32
ATOM     32  C   LIG A   1     -10.647   7.393 127.295  0.00  0.00    +0.190 C 
BRANCH  32  33
ATOM     33  O   LIG A   1     -11.383   6.707 126.287  0.00  0.00    -0.392 OA
ATOM     34  H   LIG A   1     -11.221   7.170 125.444  0.00  0.00    +0.209 HD
ENDBRANCH  32  33
ENDBRANCH  22  32
ENDBRANCH  19  20
ENDBRANCH   4  19
TORSDOF 11
ENDMDL
MODEL 5
REMARK VINA RESULT:      -6.8      4.217      6.994
REMARK  Name = NuBBE_116
REMARK  13 active torsions:
REMARK  status: ('A' for Active; 'I' for Inactive)
REMARK    1  A    between atoms: C_2  and  C_3
REMARK    2  A    between atoms: C_2  and  O_36
REMARK    3  A    between atoms: C_6  and  O_19
REMARK    4  A    between atoms: C_10  and  O_16
REMARK    5  A    between atoms: C_13  and  O_14
REMARK    6  A    between atoms: C_13  and  C_15
REMARK    7  A    between atoms: O_19  and  C_20
REMARK    8  A    between atoms: C_23  and  C_34
REMARK    9  A    between atoms: C_25  and  O_33
REMARK   10  A    between atoms: C_27  and  O_32
REMARK   11  A    between atoms: C_29  and  O_31
REMARK   12  A    between atoms: C_34  and  O_35
REMARK   13  A    between atoms: O_36  and  C_37
REMARK                            x       y       z     vdW  Elec       q    Type
REMARK                         _______ _______ _______ _____ _____    ______ ____
ROOT
ATOM      1  C   LIG A   1      -8.011   2.919 125.765  0.00  0.00    +0.077 C 
ATOM      2  C   LIG A   1      -7.737   4.193 126.074  0.00  0.00    +0.201 C 
ATOM      3  O   LIG A   1      -6.972   4.598 127.138  0.00  0.00    -0.470 OA
ATOM      4  C   LIG A   1      -6.857   3.617 128.179  0.00  0.00    +0.316 C 
ATOM      5  C   LIG A   1      -6.471   2.232 127.651  0.00  0.00    +0.099 C 
ATOM      6  C   LIG A   1      -7.424   1.760 126.533  0.00  0.00    +0.069 C 
ATOM      7  C   LIG A   1      -6.553   0.839 125.643  0.00  0.00    +0.126 C 
ATOM      8  C   LIG A   1      -5.171   0.776 126.286  0.00  0.00    +0.067 C 
ATOM      9  C   LIG A   1      -5.047   2.080 127.074  0.00  0.00    +0.075 C 
ATOM     10  C   LIG A   1      -4.510   3.208 126.193  0.00  0.00    +0.042 C 
ENDROOT
BRANCH   1  12
ATOM     11  O   LIG A   1      -9.878   1.960 124.618  0.00  0.00    -0.245 OA
ATOM     12  C   LIG A   1      -8.896   2.679 124.600  0.00  0.00    +0.338 C 
BRANCH  12  13
ATOM     13  O   LIG A   1      -8.453   3.404 123.546  0.00  0.00    -0.465 OA
ATOM     14  C   LIG A   1      -8.754   2.848 122.269  0.00  0.00    +0.280 C 
ENDBRANCH  12  13
ENDBRANCH   1  12
BRANCH   9  15
ATOM     15  O   LIG A   1      -4.111   1.869 128.131  0.00  0.00    -0.388 OA
ATOM     16  H   LIG A   1      -3.763   0.963 128.067  0.00  0.00    +0.210 HD
ENDBRANCH   9  15
BRANCH   7  17
ATOM     17  O   LIG A   1      -7.113  -0.467 125.575  0.00  0.00    -0.391 OA
ATOM     18  H   LIG A   1      -7.468  -0.687 126.454  0.00  0.00    +0.210 HD
ENDBRANCH   7  17
BRANCH   4  19
ATOM     19  O   LIG A   1      -8.081   3.498 128.919  0.00  0.00    -0.309 OA
BRANCH  19  20
ATOM     20  C   LIG A   1      -8.255   4.559 129.868  0.00  0.00    +0.286 C 
ATOM     21  O   LIG A   1      -8.315   3.984 131.176  0.00  0.00    -0.340 OA
ATOM     22  C   LIG A   1      -8.594   4.928 132.205  0.00  0.00    +0.178 C 
ATOM     23  C   LIG A   1      -9.994   5.517 131.992  0.00  0.00    +0.177 C 
ATOM     24  C   LIG A   1     -10.006   6.239 130.645  0.00  0.00    +0.179 C 
ATOM     25  C   LIG A   1      -9.553   5.323 129.506  0.00  0.00    +0.201 C 
BRANCH  25  26
ATOM     26  O   LIG A   1      -9.364   6.136 128.333  0.00  0.00    -0.384 OA
ATOM     27  H   LIG A   1     -10.114   6.763 128.331  0.00  0.00    +0.210 HD
ENDBRANCH  25  26
BRANCH  24  28
ATOM     28  O   LIG A   1     -11.328   6.729 130.366  0.00  0.00    -0.386 OA
ATOM     29  H   LIG A   1     -11.796   5.972 129.954  0.00  0.00    +0.210 HD
ENDBRANCH  24  28
BRANCH  23  30
ATOM     30  O   LIG A   1     -10.366   6.462 132.999  0.00  0.00    -0.387 OA
ATOM     31  H   LIG A   1      -9.553   6.659 133.514  0.00  0.00    +0.210 HD
ENDBRANCH  23  30
BRANCH  22  32
ATOM     32  C   LIG A   1      -8.479   4.198 133.548  0.00  0.00    +0.190 C 
BRANCH  32  33
ATOM     33  O   LIG A   1      -9.762   3.924 134.102  0.00  0.00    -0.392 OA
ATOM     34  H   LIG A   1     -10.255   3.400 133.444  0.00  0.00    +0.209 HD
ENDBRANCH  32  33
ENDBRANCH  22  32
ENDBRANCH  19  20
ENDBRANCH   4  19
TORSDOF 11
ENDMDL
MODEL 6
REMARK VINA RESULT:      -6.5      2.428      6.863
REMARK  Name = NuBBE_116
REMARK  13 active torsions:
REMARK  status: ('A' for Active; 'I' for Inactive)
REMARK    1  A    between atoms: C_2  and  C_3
REMARK    2  A    between atoms: C_2  and  O_36
REMARK    3  A    between atoms: C_6  and  O_19
REMARK    4  A    between atoms: C_10  and  O_16
REMARK    5  A    between atoms: C_13  and  O_14
REMARK    6  A    between atoms: C_13  and  C_15
REMARK    7  A    between atoms: O_19  and  C_20
REMARK    8  A    between atoms: C_23  and  C_34
REMARK    9  A    between atoms: C_25  and  O_33
REMARK   10  A    between atoms: C_27  and  O_32
REMARK   11  A    between atoms: C_29  and  O_31
REMARK   12  A    between atoms: C_34  and  O_35
REMARK   13  A    between atoms: O_36  and  C_37
REMARK                            x       y       z     vdW  Elec       q    Type
REMARK                         _______ _______ _______ _____ _____    ______ ____
ROOT
ATOM      1  C   LIG A   1     -10.273   4.851 130.624  0.00  0.00    +0.077 C 
ATOM      2  C   LIG A   1     -10.293   3.822 129.768  0.00  0.00    +0.201 C 
ATOM      3  O   LIG A   1      -9.277   2.914 129.605  0.00  0.00    -0.470 OA
ATOM      4  C   LIG A   1      -7.999   3.383 130.059  0.00  0.00    +0.316 C 
ATOM      5  C   LIG A   1      -8.053   3.983 131.468  0.00  0.00    +0.099 C 
ATOM      6  C   LIG A   1      -9.131   5.081 131.582  0.00  0.00    +0.069 C 
ATOM      7  C   LIG A   1      -9.579   5.033 133.064  0.00  0.00    +0.126 C 
ATOM      8  C   LIG A   1      -8.734   3.964 133.750  0.00  0.00    +0.067 C 
ATOM      9  C   LIG A   1      -8.332   3.005 132.629  0.00  0.00    +0.075 C 
ATOM     10  C   LIG A   1      -9.397   1.929 132.415  0.00  0.00    +0.042 C 
ENDROOT
BRANCH   1  12
ATOM     11  O   LIG A   1     -11.739   6.507 131.536  0.00  0.00    -0.245 OA
ATOM     12  C   LIG A   1     -11.450   5.754 130.625  0.00  0.00    +0.338 C 
BRANCH  12  13
ATOM     13  O   LIG A   1     -12.116   5.621 129.453  0.00  0.00    -0.465 OA
ATOM     14  C   LIG A   1     -12.921   6.740 129.092  0.00  0.00    +0.280 C 
ENDBRANCH  12  13
ENDBRANCH   1  12
BRANCH   9  15
ATOM     15  O   LIG A   1      -7.124   2.353 133.021  0.00  0.00    -0.388 OA
ATOM     16  H   LIG A   1      -6.897   2.627 133.926  0.00  0.00    +0.210 HD
ENDBRANCH   9  15
BRANCH   7  17
ATOM     17  O   LIG A   1      -9.368   6.292 133.691  0.00  0.00    -0.391 OA
ATOM     18  H   LIG A   1      -9.530   6.987 133.031  0.00  0.00    +0.210 HD
ENDBRANCH   7  17
BRANCH   4  19
ATOM     19  O   LIG A   1      -7.459   4.367 129.165  0.00  0.00    -0.309 OA
BRANCH  19  20
ATOM     20  C   LIG A   1      -6.027   4.421 129.209  0.00  0.00    +0.286 C 
ATOM     21  O   LIG A   1      -5.638   5.761 129.523  0.00  0.00    -0.340 OA
ATOM     22  C   LIG A   1      -4.230   5.973 129.491  0.00  0.00    +0.178 C 
ATOM     23  C   LIG A   1      -3.714   5.760 128.062  0.00  0.00    +0.177 C 
ATOM     24  C   LIG A   1      -4.003   4.313 127.663  0.00  0.00    +0.179 C 
ATOM     25  C   LIG A   1      -5.484   3.964 127.832  0.00  0.00    +0.201 C 
BRANCH  25  26
ATOM     26  O   LIG A   1      -5.623   2.540 127.668  0.00  0.00    -0.384 OA
ATOM     27  H   LIG A   1      -5.136   2.146 128.419  0.00  0.00    +0.210 HD
ENDBRANCH  25  26
BRANCH  24  28
ATOM     28  O   LIG A   1      -3.615   4.098 126.295  0.00  0.00    -0.386 OA
ATOM     29  H   LIG A   1      -2.745   4.541 126.207  0.00  0.00    +0.210 HD
ENDBRANCH  24  28
BRANCH  23  30
ATOM     30  O   LIG A   1      -2.306   5.976 127.935  0.00  0.00    -0.387 OA
ATOM     31  H   LIG A   1      -1.981   6.244 128.823  0.00  0.00    +0.210 HD
ENDBRANCH  23  30
BRANCH  22  32
ATOM     32  C   LIG A   1      -3.963   7.397 129.989  0.00  0.00    +0.190 C 
BRANCH  32  33
ATOM     33  O   LIG A   1      -4.076   8.347 128.934  0.00  0.00    -0.392 OA
ATOM     34  H   LIG A   1      -3.925   7.868 128.097  0.00  0.00    +0.209 HD
ENDBRANCH  32  33
ENDBRANCH  22  32
ENDBRANCH  19  20
ENDBRANCH   4  19
TORSDOF 11
ENDMDL
MODEL 7
REMARK VINA RESULT:      -6.4      3.149      6.584
REMARK  Name = NuBBE_116
REMARK  13 active torsions:
REMARK  status: ('A' for Active; 'I' for Inactive)
REMARK    1  A    between atoms: C_2  and  C_3
REMARK    2  A    between atoms: C_2  and  O_36
REMARK    3  A    between atoms: C_6  and  O_19
REMARK    4  A    between atoms: C_10  and  O_16
REMARK    5  A    between atoms: C_13  and  O_14
REMARK    6  A    between atoms: C_13  and  C_15
REMARK    7  A    between atoms: O_19  and  C_20
REMARK    8  A    between atoms: C_23  and  C_34
REMARK    9  A    between atoms: C_25  and  O_33
REMARK   10  A    between atoms: C_27  and  O_32
REMARK   11  A    between atoms: C_29  and  O_31
REMARK   12  A    between atoms: C_34  and  O_35
REMARK   13  A    between atoms: O_36  and  C_37
REMARK                            x       y       z     vdW  Elec       q    Type
REMARK                         _______ _______ _______ _____ _____    ______ ____
ROOT
ATOM      1  C   LIG A   1     -10.471   4.938 130.232  0.00  0.00    +0.077 C 
ATOM      2  C   LIG A   1     -10.454   3.651 130.600  0.00  0.00    +0.201 C 
ATOM      3  O   LIG A   1      -9.375   2.812 130.480  0.00  0.00    -0.470 OA
ATOM      4  C   LIG A   1      -8.406   3.246 129.515  0.00  0.00    +0.316 C 
ATOM      5  C   LIG A   1      -8.012   4.716 129.687  0.00  0.00    +0.099 C 
ATOM      6  C   LIG A   1      -9.246   5.641 129.703  0.00  0.00    +0.069 C 
ATOM      7  C   LIG A   1      -8.821   6.840 130.588  0.00  0.00    +0.126 C 
ATOM      8  C   LIG A   1      -7.375   6.594 131.007  0.00  0.00    +0.067 C 
ATOM      9  C   LIG A   1      -7.207   5.075 130.955  0.00  0.00    +0.075 C 
ATOM     10  C   LIG A   1      -7.628   4.428 132.274  0.00  0.00    +0.042 C 
ENDROOT
BRANCH   1  12
ATOM     11  O   LIG A   1     -12.143   6.138 131.451  0.00  0.00    -0.245 OA
ATOM     12  C   LIG A   1     -11.749   5.673 130.398  0.00  0.00    +0.338 C 
BRANCH  12  13
ATOM     13  O   LIG A   1     -12.372   5.761 129.200  0.00  0.00    -0.465 OA
ATOM     14  C   LIG A   1     -12.626   7.090 128.753  0.00  0.00    +0.280 C 
ENDBRANCH  12  13
ENDBRANCH   1  12
BRANCH   9  15
ATOM     15  O   LIG A   1      -5.822   4.793 130.752  0.00  0.00    -0.388 OA
ATOM     16  H   LIG A   1      -5.387   5.587 130.397  0.00  0.00    +0.210 HD
ENDBRANCH   9  15
BRANCH   7  17
ATOM     17  O   LIG A   1      -8.911   8.057 129.857  0.00  0.00    -0.391 OA
ATOM     18  H   LIG A   1      -9.766   8.067 129.394  0.00  0.00    +0.210 HD
ENDBRANCH   7  17
BRANCH   4  19
ATOM     19  O   LIG A   1      -8.885   3.057 128.175  0.00  0.00    -0.309 OA
BRANCH  19  20
ATOM     20  C   LIG A   1      -7.821   2.959 127.219  0.00  0.00    +0.286 C 
ATOM     21  O   LIG A   1      -6.593   2.792 127.931  0.00  0.00    -0.340 OA
ATOM     22  C   LIG A   1      -5.440   2.789 127.095  0.00  0.00    +0.178 C 
ATOM     23  C   LIG A   1      -5.296   4.159 126.419  0.00  0.00    +0.177 C 
ATOM     24  C   LIG A   1      -6.533   4.393 125.553  0.00  0.00    +0.179 C 
ATOM     25  C   LIG A   1      -7.826   4.247 126.358  0.00  0.00    +0.201 C 
BRANCH  25  26
ATOM     26  O   LIG A   1      -8.927   4.244 125.430  0.00  0.00    -0.384 OA
ATOM     27  H   LIG A   1      -9.008   5.169 125.124  0.00  0.00    +0.210 HD
ENDBRANCH  25  26
BRANCH  24  28
ATOM     28  O   LIG A   1      -6.479   5.708 124.972  0.00  0.00    -0.386 OA
ATOM     29  H   LIG A   1      -6.392   5.553 124.007  0.00  0.00    +0.210 HD
ENDBRANCH  24  28
BRANCH  23  30
ATOM     30  O   LIG A   1      -4.146   4.251 125.575  0.00  0.00    -0.387 OA
ATOM     31  H   LIG A   1      -3.717   5.112 125.777  0.00  0.00    +0.210 HD
ENDBRANCH  23  30
BRANCH  22  32
ATOM     32  C   LIG A   1      -4.229   2.454 127.973  0.00  0.00    +0.190 C 
BRANCH  32  33
ATOM     33  O   LIG A   1      -4.232   1.084 128.363  0.00  0.00    -0.392 OA
ATOM     34  H   LIG A   1      -4.493   0.562 127.581  0.00  0.00    +0.209 HD
ENDBRANCH  32  33
ENDBRANCH  22  32
ENDBRANCH  19  20
ENDBRANCH   4  19
TORSDOF 11
ENDMDL
MODEL 8
REMARK VINA RESULT:      -6.4      3.737      7.081
REMARK  Name = NuBBE_116
REMARK  13 active torsions:
REMARK  status: ('A' for Active; 'I' for Inactive)
REMARK    1  A    between atoms: C_2  and  C_3
REMARK    2  A    between atoms: C_2  and  O_36
REMARK    3  A    between atoms: C_6  and  O_19
REMARK    4  A    between atoms: C_10  and  O_16
REMARK    5  A    between atoms: C_13  and  O_14
REMARK    6  A    between atoms: C_13  and  C_15
REMARK    7  A    between atoms: O_19  and  C_20
REMARK    8  A    between atoms: C_23  and  C_34
REMARK    9  A    between atoms: C_25  and  O_33
REMARK   10  A    between atoms: C_27  and  O_32
REMARK   11  A    between atoms: C_29  and  O_31
REMARK   12  A    between atoms: C_34  and  O_35
REMARK   13  A    between atoms: O_36  and  C_37
REMARK                            x       y       z     vdW  Elec       q    Type
REMARK                         _______ _______ _______ _____ _____    ______ ____
ROOT
ATOM      1  C   LIG A   1     -10.732   5.024 130.139  0.00  0.00    +0.077 C 
ATOM      2  C   LIG A   1     -10.854   3.782 130.625  0.00  0.00    +0.201 C 
ATOM      3  O   LIG A   1      -9.825   2.885 130.758  0.00  0.00    -0.470 OA
ATOM      4  C   LIG A   1      -8.694   3.168 129.922  0.00  0.00    +0.316 C 
ATOM      5  C   LIG A   1      -8.237   4.627 130.015  0.00  0.00    +0.099 C 
ATOM      6  C   LIG A   1      -9.398   5.608 129.747  0.00  0.00    +0.069 C 
ATOM      7  C   LIG A   1      -9.037   6.870 130.570  0.00  0.00    +0.126 C 
ATOM      8  C   LIG A   1      -7.691   6.599 131.234  0.00  0.00    +0.067 C 
ATOM      9  C   LIG A   1      -7.614   5.077 131.354  0.00  0.00    +0.075 C 
ATOM     10  C   LIG A   1      -8.273   4.591 132.646  0.00  0.00    +0.042 C 
ENDROOT
BRANCH   1  12
ATOM     11  O   LIG A   1     -12.547   6.071 128.985  0.00  0.00    -0.245 OA
ATOM     12  C   LIG A   1     -11.970   5.833 130.030  0.00  0.00    +0.338 C 
BRANCH  12  13
ATOM     13  O   LIG A   1     -12.356   6.228 131.266  0.00  0.00    -0.465 OA
ATOM     14  C   LIG A   1     -12.868   7.556 131.337  0.00  0.00    +0.280 C 
ENDBRANCH  12  13
ENDBRANCH   1  12
BRANCH   9  15
ATOM     15  O   LIG A   1      -6.236   4.709 131.401  0.00  0.00    -0.388 OA
ATOM     16  H   LIG A   1      -6.138   3.807 131.051  0.00  0.00    +0.210 HD
ENDBRANCH   9  15
BRANCH   7  17
ATOM     17  O   LIG A   1      -8.936   8.008 129.722  0.00  0.00    -0.391 OA
ATOM     18  H   LIG A   1      -9.039   8.803 130.272  0.00  0.00    +0.210 HD
ENDBRANCH   7  17
BRANCH   4  19
ATOM     19  O   LIG A   1      -8.974   2.865 128.548  0.00  0.00    -0.309 OA
BRANCH  19  20
ATOM     20  C   LIG A   1      -8.292   1.687 128.095  0.00  0.00    +0.286 C 
ATOM     21  O   LIG A   1      -7.073   1.563 128.833  0.00  0.00    -0.340 OA
ATOM     22  C   LIG A   1      -6.248   0.485 128.401  0.00  0.00    +0.178 C 
ATOM     23  C   LIG A   1      -5.788   0.740 126.960  0.00  0.00    +0.177 C 
ATOM     24  C   LIG A   1      -7.028   0.799 126.069  0.00  0.00    +0.179 C 
ATOM     25  C   LIG A   1      -8.042   1.829 126.573  0.00  0.00    +0.201 C 
BRANCH  25  26
ATOM     26  O   LIG A   1      -9.262   1.650 125.830  0.00  0.00    -0.384 OA
ATOM     27  H   LIG A   1      -9.448   0.691 125.869  0.00  0.00    +0.210 HD
ENDBRANCH  25  26
BRANCH  24  28
ATOM     28  O   LIG A   1      -6.646   1.126 124.722  0.00  0.00    -0.386 OA
ATOM     29  H   LIG A   1      -6.588   2.105 124.707  0.00  0.00    +0.210 HD
ENDBRANCH  24  28
BRANCH  23  30
ATOM     30  O   LIG A   1      -4.932  -0.287 126.453  0.00  0.00    -0.387 OA
ATOM     31  H   LIG A   1      -4.073   0.142 126.242  0.00  0.00    +0.210 HD
ENDBRANCH  23  30
BRANCH  22  32
ATOM     32  C   LIG A   1      -5.065   0.389 129.371  0.00  0.00    +0.190 C 
BRANCH  32  33
ATOM     33  O   LIG A   1      -3.952   1.149 128.910  0.00  0.00    -0.392 OA
ATOM     34  H   LIG A   1      -3.874   1.929 129.491  0.00  0.00    +0.209 HD
ENDBRANCH  32  33
ENDBRANCH  22  32
ENDBRANCH  19  20
ENDBRANCH   4  19
TORSDOF 11
ENDMDL
MODEL 9
REMARK VINA RESULT:      -6.3      3.645      6.363
REMARK  Name = NuBBE_116
REMARK  13 active torsions:
REMARK  status: ('A' for Active; 'I' for Inactive)
REMARK    1  A    between atoms: C_2  and  C_3
REMARK    2  A    between atoms: C_2  and  O_36
REMARK    3  A    between atoms: C_6  and  O_19
REMARK    4  A    between atoms: C_10  and  O_16
REMARK    5  A    between atoms: C_13  and  O_14
REMARK    6  A    between atoms: C_13  and  C_15
REMARK    7  A    between atoms: O_19  and  C_20
REMARK    8  A    between atoms: C_23  and  C_34
REMARK    9  A    between atoms: C_25  and  O_33
REMARK   10  A    between atoms: C_27  and  O_32
REMARK   11  A    between atoms: C_29  and  O_31
REMARK   12  A    between atoms: C_34  and  O_35
REMARK   13  A    between atoms: O_36  and  C_37
REMARK                            x       y       z     vdW  Elec       q    Type
REMARK                         _______ _______ _______ _____ _____    ______ ____
ROOT
ATOM      1  C   LIG A   1     -10.858   5.121 130.304  0.00  0.00    +0.077 C 
ATOM      2  C   LIG A   1     -11.025   3.927 130.886  0.00  0.00    +0.201 C 
ATOM      3  O   LIG A   1     -10.036   2.992 131.062  0.00  0.00    -0.470 OA
ATOM      4  C   LIG A   1      -8.916   3.157 130.180  0.00  0.00    +0.316 C 
ATOM      5  C   LIG A   1      -8.389   4.594 130.151  0.00  0.00    +0.099 C 
ATOM      6  C   LIG A   1      -9.509   5.608 129.837  0.00  0.00    +0.069 C 
ATOM      7  C   LIG A   1      -9.067   6.909 130.552  0.00  0.00    +0.126 C 
ATOM      8  C   LIG A   1      -7.718   6.623 131.204  0.00  0.00    +0.067 C 
ATOM      9  C   LIG A   1      -7.709   5.112 131.437  0.00  0.00    +0.075 C 
ATOM     10  C   LIG A   1      -8.354   4.757 132.777  0.00  0.00    +0.042 C 
ENDROOT
BRANCH   1  12
ATOM     11  O   LIG A   1     -12.590   6.252 129.102  0.00  0.00    -0.245 OA
ATOM     12  C   LIG A   1     -12.059   5.979 130.163  0.00  0.00    +0.338 C 
BRANCH  12  13
ATOM     13  O   LIG A   1     -12.472   6.375 131.390  0.00  0.00    -0.465 OA
ATOM     14  C   LIG A   1     -12.924   7.724 131.464  0.00  0.00    +0.280 C 
ENDBRANCH  12  13
ENDBRANCH   1  12
BRANCH   9  15
ATOM     15  O   LIG A   1      -6.349   4.681 131.479  0.00  0.00    -0.388 OA
ATOM     16  H   LIG A   1      -6.317   3.772 131.822  0.00  0.00    +0.210 HD
ENDBRANCH   9  15
BRANCH   7  17
ATOM     17  O   LIG A   1      -8.936   7.974 129.618  0.00  0.00    -0.391 OA
ATOM     18  H   LIG A   1      -9.341   7.690 128.781  0.00  0.00    +0.210 HD
ENDBRANCH   7  17
BRANCH   4  19
ATOM     19  O   LIG A   1      -9.248   2.765 128.840  0.00  0.00    -0.309 OA
BRANCH  19  20
ATOM     20  C   LIG A   1      -8.094   2.663 127.996  0.00  0.00    +0.286 C 
ATOM     21  O   LIG A   1      -8.133   3.736 127.051  0.00  0.00    -0.340 OA
ATOM     22  C   LIG A   1      -7.092   3.686 126.081  0.00  0.00    +0.178 C 
ATOM     23  C   LIG A   1      -7.254   2.426 125.222  0.00  0.00    +0.177 C 
ATOM     24  C   LIG A   1      -7.134   1.208 126.137  0.00  0.00    +0.179 C 
ATOM     25  C   LIG A   1      -8.120   1.277 127.306  0.00  0.00    +0.201 C 
BRANCH  25  26
ATOM     26  O   LIG A   1      -7.779   0.231 128.235  0.00  0.00    -0.384 OA
ATOM     27  H   LIG A   1      -8.543   0.165 128.840  0.00  0.00    +0.210 HD
ENDBRANCH  25  26
BRANCH  24  28
ATOM     28  O   LIG A   1      -7.371   0.006 125.384  0.00  0.00    -0.386 OA
ATOM     29  H   LIG A   1      -7.156  -0.725 126.001  0.00  0.00    +0.210 HD
ENDBRANCH  24  28
BRANCH  23  30
ATOM     30  O   LIG A   1      -6.259   2.307 124.202  0.00  0.00    -0.387 OA
ATOM     31  H   LIG A   1      -5.449   1.961 124.639  0.00  0.00    +0.210 HD
ENDBRANCH  23  30
BRANCH  22  32
ATOM     32  C   LIG A   1      -7.177   4.966 125.242  0.00  0.00    +0.190 C 
BRANCH  32  33
ATOM     33  O   LIG A   1      -8.373   5.688 125.516  0.00  0.00    -0.392 OA
ATOM     34  H   LIG A   1      -9.092   5.034 125.602  0.00  0.00    +0.209 HD
ENDBRANCH  32  33
ENDBRANCH  22  32
ENDBRANCH  19  20
ENDBRANCH   4  19
TORSDOF 11
ENDMDL
