MODEL 1
REMARK VINA RESULT:      -6.9      0.000      0.000
REMARK  Name = NuBBE_1854
REMARK  3 active torsions:
REMARK  status: ('A' for Active; 'I' for Inactive)
REMARK    1  A    between atoms: C_1  and  O_2
REMARK    2  A    between atoms: O_2  and  C_3
REMARK    3  A    between atoms: N_10  and  C_11
REMARK                            x       y       z     vdW  Elec       q    Type
REMARK                         _______ _______ _______ _____ _____    ______ ____
ROOT
ATOM      1  C   LIG A   1     -11.359   7.842 129.152  0.00  0.00    +0.121 A 
ATOM      2  C   LIG A   1     -12.469   7.541 129.942  0.00  0.00    +0.048 A 
ATOM      3  C   LIG A   1     -12.340   6.892 131.176  0.00  0.00    +0.030 A 
ATOM      4  C   LIG A   1     -11.050   6.556 131.594  0.00  0.00    +0.047 A 
ATOM      5  N   LIG A   1     -10.627   5.917 132.742  0.00  0.00    -0.357 N 
ATOM      6  C   LIG A   1      -9.266   5.803 132.731  0.00  0.00    +0.034 A 
ATOM      7  C   LIG A   1      -8.435   5.201 133.811  0.00  0.00    +0.137 C 
ATOM      8  N   LIG A   1      -7.081   4.894 133.295  0.00  0.00    -0.299 NA
ATOM      9  C   LIG A   1      -6.197   4.517 134.393  0.00  0.00    +0.105 C 
ATOM     10  C   LIG A   1      -6.519   6.036 132.531  0.00  0.00    +0.089 C 
ATOM     11  C   LIG A   1      -7.340   6.369 131.257  0.00  0.00    +0.053 C 
ATOM     12  C   LIG A   1      -8.797   6.367 131.564  0.00  0.00    -0.017 A 
ATOM     13  C   LIG A   1      -9.914   6.847 130.831  0.00  0.00    +0.007 A 
ATOM     14  C   LIG A   1     -10.074   7.499 129.590  0.00  0.00    +0.056 A 
ATOM     15  H   LIG A   1     -11.241   5.587 133.472  0.00  0.00    +0.166 HD
ENDROOT
BRANCH   1  17
ATOM     16  C   LIG A   1     -11.114   7.911 126.787  0.00  0.00    +0.277 C 
ATOM     17  O   LIG A   1     -11.657   8.475 127.973  0.00  0.00    -0.495 OA
ENDBRANCH   1  17
TORSDOF 1
ENDMDL
MODEL 2
REMARK VINA RESULT:      -6.4      2.509      5.726
REMARK  Name = NuBBE_1854
REMARK  3 active torsions:
REMARK  status: ('A' for Active; 'I' for Inactive)
REMARK    1  A    between atoms: C_1  and  O_2
REMARK    2  A    between atoms: O_2  and  C_3
REMARK    3  A    between atoms: N_10  and  C_11
REMARK                            x       y       z     vdW  Elec       q    Type
REMARK                         _______ _______ _______ _____ _____    ______ ____
ROOT
ATOM      1  C   LIG A   1      -7.183   6.368 132.048  0.00  0.00    +0.121 A 
ATOM      2  C   LIG A   1      -7.886   5.679 133.037  0.00  0.00    +0.048 A 
ATOM      3  C   LIG A   1      -9.277   5.529 132.983  0.00  0.00    +0.030 A 
ATOM      4  C   LIG A   1      -9.942   6.097 131.892  0.00  0.00    +0.047 A 
ATOM      5  N   LIG A   1     -11.288   6.113 131.585  0.00  0.00    -0.357 N 
ATOM      6  C   LIG A   1     -11.484   6.785 130.412  0.00  0.00    +0.034 A 
ATOM      7  C   LIG A   1     -12.794   6.986 129.732  0.00  0.00    +0.137 C 
ATOM      8  N   LIG A   1     -12.682   8.069 128.729  0.00  0.00    -0.299 NA
ATOM      9  C   LIG A   1     -13.887   8.122 127.907  0.00  0.00    +0.105 C 
ATOM     10  C   LIG A   1     -11.474   7.904 127.884  0.00  0.00    +0.089 C 
ATOM     11  C   LIG A   1     -10.155   8.006 128.695  0.00  0.00    +0.053 C 
ATOM     12  C   LIG A   1     -10.257   7.215 129.952  0.00  0.00    -0.017 A 
ATOM     13  C   LIG A   1      -9.271   6.790 130.881  0.00  0.00    +0.007 A 
ATOM     14  C   LIG A   1      -7.868   6.928 130.963  0.00  0.00    +0.056 A 
ATOM     15  H   LIG A   1     -12.010   5.690 132.150  0.00  0.00    +0.166 HD
ENDROOT
BRANCH   1  17
ATOM     16  C   LIG A   1      -5.329   5.794 133.423  0.00  0.00    +0.277 C 
ATOM     17  O   LIG A   1      -5.829   6.426 132.252  0.00  0.00    -0.495 OA
ENDBRANCH   1  17
TORSDOF 1
ENDMDL
MODEL 3
REMARK VINA RESULT:      -6.3      8.367     10.149
REMARK  Name = NuBBE_1854
REMARK  3 active torsions:
REMARK  status: ('A' for Active; 'I' for Inactive)
REMARK    1  A    between atoms: C_1  and  O_2
REMARK    2  A    between atoms: O_2  and  C_3
REMARK    3  A    between atoms: N_10  and  C_11
REMARK                            x       y       z     vdW  Elec       q    Type
REMARK                         _______ _______ _______ _____ _____    ______ ____
ROOT
ATOM      1  C   LIG A   1      -6.586   4.384 119.868  0.00  0.00    +0.121 A 
ATOM      2  C   LIG A   1      -5.334   4.747 120.368  0.00  0.00    +0.048 A 
ATOM      3  C   LIG A   1      -4.962   4.476 121.690  0.00  0.00    +0.030 A 
ATOM      4  C   LIG A   1      -5.896   3.822 122.499  0.00  0.00    +0.047 A 
ATOM      5  N   LIG A   1      -5.808   3.439 123.822  0.00  0.00    -0.357 N 
ATOM      6  C   LIG A   1      -6.967   2.822 124.200  0.00  0.00    +0.034 A 
ATOM      7  C   LIG A   1      -7.245   2.239 125.543  0.00  0.00    +0.137 C 
ATOM      8  N   LIG A   1      -8.700   2.022 125.708  0.00  0.00    -0.299 NA
ATOM      9  C   LIG A   1      -8.960   1.249 126.919  0.00  0.00    +0.105 C 
ATOM     10  C   LIG A   1      -9.289   1.356 124.520  0.00  0.00    +0.089 C 
ATOM     11  C   LIG A   1      -9.182   2.218 123.234  0.00  0.00    +0.053 C 
ATOM     12  C   LIG A   1      -7.819   2.807 123.117  0.00  0.00    -0.017 A 
ATOM     13  C   LIG A   1      -7.157   3.440 122.032  0.00  0.00    +0.007 A 
ATOM     14  C   LIG A   1      -7.506   3.728 120.695  0.00  0.00    +0.056 A 
ATOM     15  H   LIG A   1      -5.004   3.597 124.412  0.00  0.00    +0.166 HD
ENDROOT
BRANCH   1  17
ATOM     16  C   LIG A   1      -6.053   5.829 118.056  0.00  0.00    +0.277 C 
ATOM     17  O   LIG A   1      -6.793   4.724 118.557  0.00  0.00    -0.495 OA
ENDBRANCH   1  17
TORSDOF 1
ENDMDL
MODEL 4
REMARK VINA RESULT:      -6.1      8.134      9.577
REMARK  Name = NuBBE_1854
REMARK  3 active torsions:
REMARK  status: ('A' for Active; 'I' for Inactive)
REMARK    1  A    between atoms: C_1  and  O_2
REMARK    2  A    between atoms: O_2  and  C_3
REMARK    3  A    between atoms: N_10  and  C_11
REMARK                            x       y       z     vdW  Elec       q    Type
REMARK                         _______ _______ _______ _____ _____    ______ ____
ROOT
ATOM      1  C   LIG A   1      -6.225   4.264 120.565  0.00  0.00    +0.121 A 
ATOM      2  C   LIG A   1      -7.522   4.127 120.068  0.00  0.00    +0.048 A 
ATOM      3  C   LIG A   1      -8.548   3.562 120.833  0.00  0.00    +0.030 A 
ATOM      4  C   LIG A   1      -8.227   3.138 122.126  0.00  0.00    +0.047 A 
ATOM      5  N   LIG A   1      -9.021   2.549 123.089  0.00  0.00    -0.357 N 
ATOM      6  C   LIG A   1      -8.280   2.307 124.211  0.00  0.00    +0.034 A 
ATOM      7  C   LIG A   1      -8.789   1.712 125.479  0.00  0.00    +0.137 C 
ATOM      8  N   LIG A   1      -7.655   1.242 126.307  0.00  0.00    -0.299 NA
ATOM      9  C   LIG A   1      -8.124   0.866 127.637  0.00  0.00    +0.105 C 
ATOM     10  C   LIG A   1      -6.585   2.266 126.395  0.00  0.00    +0.089 C 
ATOM     11  C   LIG A   1      -5.939   2.580 125.019  0.00  0.00    +0.053 C 
ATOM     12  C   LIG A   1      -6.992   2.738 123.977  0.00  0.00    -0.017 A 
ATOM     13  C   LIG A   1      -6.941   3.264 122.659  0.00  0.00    +0.007 A 
ATOM     14  C   LIG A   1      -5.924   3.835 121.863  0.00  0.00    +0.056 A 
ATOM     15  H   LIG A   1     -10.000   2.332 122.971  0.00  0.00    +0.166 HD
ENDROOT
BRANCH   1  17
ATOM     16  C   LIG A   1      -5.884   5.688 118.691  0.00  0.00    +0.277 C 
ATOM     17  O   LIG A   1      -5.339   4.834 119.688  0.00  0.00    -0.495 OA
ENDBRANCH   1  17
TORSDOF 1
ENDMDL
MODEL 5
REMARK VINA RESULT:      -6.1      2.734      6.124
REMARK  Name = NuBBE_1854
REMARK  3 active torsions:
REMARK  status: ('A' for Active; 'I' for Inactive)
REMARK    1  A    between atoms: C_1  and  O_2
REMARK    2  A    between atoms: O_2  and  C_3
REMARK    3  A    between atoms: N_10  and  C_11
REMARK                            x       y       z     vdW  Elec       q    Type
REMARK                         _______ _______ _______ _____ _____    ______ ____
ROOT
ATOM      1  C   LIG A   1      -8.092   5.461 133.398  0.00  0.00    +0.121 A 
ATOM      2  C   LIG A   1      -7.013   5.929 132.648  0.00  0.00    +0.048 A 
ATOM      3  C   LIG A   1      -7.196   6.613 131.441  0.00  0.00    +0.030 A 
ATOM      4  C   LIG A   1      -8.511   6.814 131.010  0.00  0.00    +0.047 A 
ATOM      5  N   LIG A   1      -8.986   7.440 129.875  0.00  0.00    -0.357 N 
ATOM      6  C   LIG A   1     -10.351   7.404 129.867  0.00  0.00    +0.034 A 
ATOM      7  C   LIG A   1     -11.232   8.004 128.826  0.00  0.00    +0.137 C 
ATOM      8  N   LIG A   1     -12.596   7.440 128.932  0.00  0.00    -0.299 NA
ATOM      9  C   LIG A   1     -13.516   8.178 128.071  0.00  0.00    +0.105 C 
ATOM     10  C   LIG A   1     -13.075   7.437 130.337  0.00  0.00    +0.089 C 
ATOM     11  C   LIG A   1     -12.221   6.529 131.261  0.00  0.00    +0.053 C 
ATOM     12  C   LIG A   1     -10.770   6.747 131.004  0.00  0.00    -0.017 A 
ATOM     13  C   LIG A   1      -9.616   6.364 131.737  0.00  0.00    +0.007 A 
ATOM     14  C   LIG A   1      -9.401   5.675 132.950  0.00  0.00    +0.056 A 
ATOM     15  H   LIG A   1      -8.402   7.855 129.163  0.00  0.00    +0.166 HD
ENDROOT
BRANCH   1  17
ATOM     16  C   LIG A   1      -7.515   5.618 135.700  0.00  0.00    +0.277 C 
ATOM     17  O   LIG A   1      -7.741   4.811 134.552  0.00  0.00    -0.495 OA
ENDBRANCH   1  17
TORSDOF 1
ENDMDL
MODEL 6
REMARK VINA RESULT:      -5.6      8.766      9.828
REMARK  Name = NuBBE_1854
REMARK  3 active torsions:
REMARK  status: ('A' for Active; 'I' for Inactive)
REMARK    1  A    between atoms: C_1  and  O_2
REMARK    2  A    between atoms: O_2  and  C_3
REMARK    3  A    between atoms: N_10  and  C_11
REMARK                            x       y       z     vdW  Elec       q    Type
REMARK                         _______ _______ _______ _____ _____    ______ ____
ROOT
ATOM      1  C   LIG A   1      -6.032   3.702 122.679  0.00  0.00    +0.121 A 
ATOM      2  C   LIG A   1      -5.578   4.162 123.916  0.00  0.00    +0.048 A 
ATOM      3  C   LIG A   1      -5.822   3.455 125.099  0.00  0.00    +0.030 A 
ATOM      4  C   LIG A   1      -6.540   2.260 124.998  0.00  0.00    +0.047 A 
ATOM      5  N   LIG A   1      -6.927   1.372 125.980  0.00  0.00    -0.357 N 
ATOM      6  C   LIG A   1      -7.613   0.333 125.418  0.00  0.00    +0.034 A 
ATOM      7  C   LIG A   1      -8.165  -0.843 126.147  0.00  0.00    +0.137 C 
ATOM      8  N   LIG A   1      -9.161  -1.540 125.303  0.00  0.00    -0.299 NA
ATOM      9  C   LIG A   1      -9.539  -2.811 125.913  0.00  0.00    +0.105 C 
ATOM     10  C   LIG A   1      -8.656  -1.746 123.923  0.00  0.00    +0.089 C 
ATOM     11  C   LIG A   1      -8.395  -0.412 123.173  0.00  0.00    +0.053 C 
ATOM     12  C   LIG A   1      -7.679   0.548 124.058  0.00  0.00    -0.017 A 
ATOM     13  C   LIG A   1      -7.006   1.766 123.776  0.00  0.00    +0.007 A 
ATOM     14  C   LIG A   1      -6.749   2.501 122.599  0.00  0.00    +0.056 A 
ATOM     15  H   LIG A   1      -6.729   1.484 126.964  0.00  0.00    +0.166 HD
ENDROOT
BRANCH   1  17
ATOM     16  C   LIG A   1      -6.309   4.199 120.370  0.00  0.00    +0.277 C 
ATOM     17  O   LIG A   1      -5.712   4.512 121.621  0.00  0.00    -0.495 OA
ENDBRANCH   1  17
TORSDOF 1
ENDMDL
MODEL 7
REMARK VINA RESULT:      -5.5      9.933     10.397
REMARK  Name = NuBBE_1854
REMARK  3 active torsions:
REMARK  status: ('A' for Active; 'I' for Inactive)
REMARK    1  A    between atoms: C_1  and  O_2
REMARK    2  A    between atoms: O_2  and  C_3
REMARK    3  A    between atoms: N_10  and  C_11
REMARK                            x       y       z     vdW  Elec       q    Type
REMARK                         _______ _______ _______ _____ _____    ______ ____
ROOT
ATOM      1  C   LIG A   1      -8.656  -2.777 125.530  0.00  0.00    +0.121 A 
ATOM      2  C   LIG A   1      -7.530  -2.335 124.834  0.00  0.00    +0.048 A 
ATOM      3  C   LIG A   1      -6.328  -2.041 125.488  0.00  0.00    +0.030 A 
ATOM      4  C   LIG A   1      -6.293  -2.210 126.875  0.00  0.00    +0.047 A 
ATOM      5  N   LIG A   1      -5.264  -1.994 127.770  0.00  0.00    -0.357 N 
ATOM      6  C   LIG A   1      -5.682  -2.297 129.034  0.00  0.00    +0.034 A 
ATOM      7  C   LIG A   1      -4.849  -2.225 130.267  0.00  0.00    +0.137 C 
ATOM      8  N   LIG A   1      -5.718  -2.236 131.465  0.00  0.00    -0.299 NA
ATOM      9  C   LIG A   1      -4.911  -2.393 132.672  0.00  0.00    +0.105 C 
ATOM     10  C   LIG A   1      -6.750  -3.299 131.379  0.00  0.00    +0.089 C 
ATOM     11  C   LIG A   1      -7.738  -3.082 130.201  0.00  0.00    +0.053 C 
ATOM     12  C   LIG A   1      -6.996  -2.708 128.966  0.00  0.00    -0.017 A 
ATOM     13  C   LIG A   1      -7.399  -2.655 127.605  0.00  0.00    +0.007 A 
ATOM     14  C   LIG A   1      -8.599  -2.942 126.920  0.00  0.00    +0.056 A 
ATOM     15  H   LIG A   1      -4.345  -1.662 127.516  0.00  0.00    +0.166 HD
ENDROOT
BRANCH   1  17
ATOM     16  C   LIG A   1      -9.511  -3.223 123.356  0.00  0.00    +0.277 C 
ATOM     17  O   LIG A   1      -9.751  -3.018 124.742  0.00  0.00    -0.495 OA
ENDBRANCH   1  17
TORSDOF 1
ENDMDL
MODEL 8
REMARK VINA RESULT:      -5.5      9.358     10.640
REMARK  Name = NuBBE_1854
REMARK  3 active torsions:
REMARK  status: ('A' for Active; 'I' for Inactive)
REMARK    1  A    between atoms: C_1  and  O_2
REMARK    2  A    between atoms: O_2  and  C_3
REMARK    3  A    between atoms: N_10  and  C_11
REMARK                            x       y       z     vdW  Elec       q    Type
REMARK                         _______ _______ _______ _____ _____    ______ ____
ROOT
ATOM      1  C   LIG A   1      -7.933  -2.745 128.837  0.00  0.00    +0.121 A 
ATOM      2  C   LIG A   1      -8.548  -3.758 128.099  0.00  0.00    +0.048 A 
ATOM      3  C   LIG A   1      -8.993  -3.549 126.789  0.00  0.00    +0.030 A 
ATOM      4  C   LIG A   1      -8.797  -2.279 126.239  0.00  0.00    +0.047 A 
ATOM      5  N   LIG A   1      -9.134  -1.791 124.993  0.00  0.00    -0.357 N 
ATOM      6  C   LIG A   1      -8.745  -0.486 124.889  0.00  0.00    +0.034 A 
ATOM      7  C   LIG A   1      -8.903   0.377 123.684  0.00  0.00    +0.137 C 
ATOM      8  N   LIG A   1      -8.740   1.800 124.057  0.00  0.00    -0.299 NA
ATOM      9  C   LIG A   1      -8.670   2.631 122.859  0.00  0.00    +0.105 C 
ATOM     10  C   LIG A   1      -7.544   2.005 124.912  0.00  0.00    +0.089 C 
ATOM     11  C   LIG A   1      -7.647   1.269 126.275  0.00  0.00    +0.053 C 
ATOM     12  C   LIG A   1      -8.153  -0.118 126.078  0.00  0.00    -0.017 A 
ATOM     13  C   LIG A   1      -8.181  -1.242 126.945  0.00  0.00    +0.007 A 
ATOM     14  C   LIG A   1      -7.744  -1.480 128.266  0.00  0.00    +0.056 A 
ATOM     15  H   LIG A   1      -9.600  -2.326 124.274  0.00  0.00    +0.166 HD
ENDROOT
BRANCH   1  17
ATOM     16  C   LIG A   1      -6.420  -3.956 130.215  0.00  0.00    +0.277 C 
ATOM     17  O   LIG A   1      -7.558  -3.113 130.103  0.00  0.00    -0.495 OA
ENDBRANCH   1  17
TORSDOF 1
ENDMDL
MODEL 9
REMARK VINA RESULT:      -5.5      2.390      3.699
REMARK  Name = NuBBE_1854
REMARK  3 active torsions:
REMARK  status: ('A' for Active; 'I' for Inactive)
REMARK    1  A    between atoms: C_1  and  O_2
REMARK    2  A    between atoms: O_2  and  C_3
REMARK    3  A    between atoms: N_10  and  C_11
REMARK                            x       y       z     vdW  Elec       q    Type
REMARK                         _______ _______ _______ _____ _____    ______ ____
ROOT
ATOM      1  C   LIG A   1      -9.686   6.664 131.112  0.00  0.00    +0.121 A 
ATOM      2  C   LIG A   1      -9.904   5.960 132.297  0.00  0.00    +0.048 A 
ATOM      3  C   LIG A   1      -8.845   5.558 133.119  0.00  0.00    +0.030 A 
ATOM      4  C   LIG A   1      -7.551   5.891 132.710  0.00  0.00    +0.047 A 
ATOM      5  N   LIG A   1      -6.335   5.625 133.307  0.00  0.00    -0.357 N 
ATOM      6  C   LIG A   1      -5.326   6.147 132.549  0.00  0.00    +0.034 A 
ATOM      7  C   LIG A   1      -3.874   6.095 132.878  0.00  0.00    +0.137 C 
ATOM      8  N   LIG A   1      -3.071   6.398 131.672  0.00  0.00    -0.299 NA
ATOM      9  C   LIG A   1      -1.667   6.570 132.031  0.00  0.00    +0.105 C 
ATOM     10  C   LIG A   1      -3.586   7.595 130.962  0.00  0.00    +0.089 C 
ATOM     11  C   LIG A   1      -5.025   7.397 130.415  0.00  0.00    +0.053 C 
ATOM     12  C   LIG A   1      -5.887   6.755 131.446  0.00  0.00    -0.017 A 
ATOM     13  C   LIG A   1      -7.295   6.599 131.532  0.00  0.00    +0.007 A 
ATOM     14  C   LIG A   1      -8.382   6.989 130.720  0.00  0.00    +0.056 A 
ATOM     15  H   LIG A   1      -6.221   5.117 134.172  0.00  0.00    +0.166 HD
ENDROOT
BRANCH   1  17
ATOM     16  C   LIG A   1     -10.793   6.811 129.011  0.00  0.00    +0.277 C 
ATOM     17  O   LIG A   1     -10.828   6.979 130.423  0.00  0.00    -0.495 OA
ENDBRANCH   1  17
TORSDOF 1
ENDMDL
