MODEL 1
REMARK VINA RESULT:      -9.8      0.000      0.000
REMARK  Name = NuBBE_1264
REMARK  9 active torsions:
REMARK  status: ('A' for Active; 'I' for Inactive)
REMARK    1  A    between atoms: C_1  and  C_2
REMARK    2  A    between atoms: C_2  and  C_3
REMARK    3  A    between atoms: C_7  and  O_8
REMARK    4  A    between atoms: C_12  and  C_14
REMARK    5  A    between atoms: C_17  and  O_18
REMARK    6  A    between atoms: C_24  and  C_25
REMARK    7  A    between atoms: C_25  and  C_26
REMARK    8  A    between atoms: C_27  and  C_28
REMARK    9  A    between atoms: C_27  and  C_29
REMARK                            x       y       z     vdW  Elec       q    Type
REMARK                         _______ _______ _______ _____ _____    ______ ____
ROOT
ATOM      1  C   LIG A   1      -5.219   2.453 130.050  0.00  0.00    +0.060 C 
ATOM      2  C   LIG A   1      -6.417   3.213 129.468  0.00  0.00    +0.123 C 
ATOM      3  C   LIG A   1      -6.624   4.520 130.242  0.00  0.00    +0.060 C 
ATOM      4  C   LIG A   1      -7.651   2.358 129.588  0.00  0.00    +0.020 C 
ATOM      5  C   LIG A   1      -8.343   1.925 128.532  0.00  0.00    +0.015 C 
ATOM      6  C   LIG A   1      -7.900   2.311 127.198  0.00  0.00    +0.059 A 
ATOM      7  C   LIG A   1      -8.590   1.894 126.051  0.00  0.00    +0.141 A 
ATOM      8  C   LIG A   1      -8.185   2.335 124.785  0.00  0.00    +0.102 A 
ATOM      9  C   LIG A   1      -8.957   1.982 123.578  0.00  0.00    +0.174 C 
ATOM     10  C   LIG A   1      -8.646   2.747 122.331  0.00  0.00    +0.129 C 
ATOM     11  C   LIG A   1      -7.146   2.990 122.282  0.00  0.00    +0.211 C 
ATOM     12  O   LIG A   1      -6.678   3.690 123.441  0.00  0.00    -0.483 OA
ATOM     13  O   LIG A   1      -9.867   1.159 123.645  0.00  0.00    -0.292 OA
ATOM     14  C   LIG A   1      -7.074   3.171 124.647  0.00  0.00    +0.142 A 
ATOM     15  C   LIG A   1      -6.340   3.561 125.782  0.00  0.00    +0.041 A 
ATOM     16  C   LIG A   1      -6.775   3.138 127.058  0.00  0.00    +0.139 A 
ATOM     17  O   LIG A   1      -6.049   3.592 128.127  0.00  0.00    -0.481 OA
ENDROOT
BRANCH  11  18
ATOM     18  C   LIG A   1      -6.779   3.832 121.072  0.00  0.00    -0.007 A 
ATOM     19  C   LIG A   1      -7.656   3.943 119.978  0.00  0.00    +0.011 A 
ATOM     20  C   LIG A   1      -7.306   4.686 118.848  0.00  0.00    +0.046 A 
ATOM     21  C   LIG A   1      -6.078   5.335 118.815  0.00  0.00    +0.117 A 
ATOM     22  C   LIG A   1      -5.204   5.258 119.891  0.00  0.00    +0.046 A 
ATOM     23  C   LIG A   1      -5.551   4.508 121.018  0.00  0.00    +0.011 A 
BRANCH  21  24
ATOM     24  O   LIG A   1      -5.692   6.066 117.731  0.00  0.00    -0.507 OA
ATOM     25  H   LIG A   1      -4.767   6.337 117.853  0.00  0.00    +0.292 HD
ENDBRANCH  21  24
ENDBRANCH  11  18
BRANCH   7  26
ATOM     26  O   LIG A   1      -9.682   1.071 126.212  0.00  0.00    -0.505 OA
ATOM     27  H   LIG A   1     -10.254   1.441 126.923  0.00  0.00    +0.292 HD
ENDBRANCH   7  26
BRANCH  15  28
ATOM     28  C   LIG A   1      -5.111   4.439 125.639  0.00  0.00    +0.069 C 
BRANCH  28  29
ATOM     29  C   LIG A   1      -3.826   3.665 125.763  0.00  0.00    -0.023 C 
ATOM     30  C   LIG A   1      -2.836   3.827 126.663  0.00  0.00    -0.079 C 
ATOM     31  C   LIG A   1      -2.825   4.840 127.776  0.00  0.00    +0.038 C 
ATOM     32  C   LIG A   1      -1.606   2.960 126.610  0.00  0.00    +0.038 C 
ENDBRANCH  28  29
ENDBRANCH  15  28
TORSDOF 5
ENDMDL
MODEL 2
REMARK VINA RESULT:      -9.1      3.010      4.915
REMARK  Name = NuBBE_1264
REMARK  9 active torsions:
REMARK  status: ('A' for Active; 'I' for Inactive)
REMARK    1  A    between atoms: C_1  and  C_2
REMARK    2  A    between atoms: C_2  and  C_3
REMARK    3  A    between atoms: C_7  and  O_8
REMARK    4  A    between atoms: C_12  and  C_14
REMARK    5  A    between atoms: C_17  and  O_18
REMARK    6  A    between atoms: C_24  and  C_25
REMARK    7  A    between atoms: C_25  and  C_26
REMARK    8  A    between atoms: C_27  and  C_28
REMARK    9  A    between atoms: C_27  and  C_29
REMARK                            x       y       z     vdW  Elec       q    Type
REMARK                         _______ _______ _______ _____ _____    ______ ____
ROOT
ATOM      1  C   LIG A   1      -8.407  -3.402 128.619  0.00  0.00    +0.060 C 
ATOM      2  C   LIG A   1      -7.308  -2.348 128.805  0.00  0.00    +0.123 C 
ATOM      3  C   LIG A   1      -5.988  -3.038 129.168  0.00  0.00    +0.060 C 
ATOM      4  C   LIG A   1      -7.706  -1.410 129.914  0.00  0.00    +0.020 C 
ATOM      5  C   LIG A   1      -7.910  -0.105 129.726  0.00  0.00    +0.015 C 
ATOM      6  C   LIG A   1      -7.724   0.448 128.390  0.00  0.00    +0.059 A 
ATOM      7  C   LIG A   1      -7.916   1.813 128.132  0.00  0.00    +0.141 A 
ATOM      8  C   LIG A   1      -7.663   2.332 126.856  0.00  0.00    +0.102 A 
ATOM      9  C   LIG A   1      -7.770   3.780 126.593  0.00  0.00    +0.174 C 
ATOM     10  C   LIG A   1      -7.180   4.278 125.312  0.00  0.00    +0.129 C 
ATOM     11  C   LIG A   1      -7.447   3.244 124.230  0.00  0.00    +0.211 C 
ATOM     12  O   LIG A   1      -6.913   1.959 124.572  0.00  0.00    -0.483 OA
ATOM     13  O   LIG A   1      -8.245   4.529 127.443  0.00  0.00    -0.292 OA
ATOM     14  C   LIG A   1      -7.243   1.494 125.819  0.00  0.00    +0.142 A 
ATOM     15  C   LIG A   1      -7.091   0.114 126.047  0.00  0.00    +0.041 A 
ATOM     16  C   LIG A   1      -7.317  -0.396 127.346  0.00  0.00    +0.139 A 
ATOM     17  O   LIG A   1      -7.103  -1.738 127.515  0.00  0.00    -0.481 OA
ENDROOT
BRANCH  11  18
ATOM     18  C   LIG A   1      -6.800   3.661 122.919  0.00  0.00    -0.007 A 
ATOM     19  C   LIG A   1      -5.509   4.218 122.897  0.00  0.00    +0.011 A 
ATOM     20  C   LIG A   1      -4.927   4.638 121.699  0.00  0.00    +0.046 A 
ATOM     21  C   LIG A   1      -5.633   4.489 120.512  0.00  0.00    +0.117 A 
ATOM     22  C   LIG A   1      -6.902   3.922 120.505  0.00  0.00    +0.046 A 
ATOM     23  C   LIG A   1      -7.486   3.509 121.705  0.00  0.00    +0.011 A 
BRANCH  21  24
ATOM     24  O   LIG A   1      -5.108   4.890 119.319  0.00  0.00    -0.507 OA
ATOM     25  H   LIG A   1      -4.472   5.606 119.485  0.00  0.00    +0.292 HD
ENDBRANCH  21  24
ENDBRANCH  11  18
BRANCH   7  26
ATOM     26  O   LIG A   1      -8.329   2.619 129.169  0.00  0.00    -0.505 OA
ATOM     27  H   LIG A   1      -7.572   3.181 129.452  0.00  0.00    +0.292 HD
ENDBRANCH   7  26
BRANCH  15  28
ATOM     28  C   LIG A   1      -6.671  -0.810 124.919  0.00  0.00    +0.069 C 
BRANCH  28  29
ATOM     29  C   LIG A   1      -7.843  -1.365 124.155  0.00  0.00    -0.023 C 
ATOM     30  C   LIG A   1      -8.258  -2.645 124.075  0.00  0.00    -0.079 C 
ATOM     31  C   LIG A   1      -7.621  -3.815 124.775  0.00  0.00    +0.038 C 
ATOM     32  C   LIG A   1      -9.453  -3.009 123.234  0.00  0.00    +0.038 C 
ENDBRANCH  28  29
ENDBRANCH  15  28
TORSDOF 5
ENDMDL
MODEL 3
REMARK VINA RESULT:      -8.8      3.318      4.852
REMARK  Name = NuBBE_1264
REMARK  9 active torsions:
REMARK  status: ('A' for Active; 'I' for Inactive)
REMARK    1  A    between atoms: C_1  and  C_2
REMARK    2  A    between atoms: C_2  and  C_3
REMARK    3  A    between atoms: C_7  and  O_8
REMARK    4  A    between atoms: C_12  and  C_14
REMARK    5  A    between atoms: C_17  and  O_18
REMARK    6  A    between atoms: C_24  and  C_25
REMARK    7  A    between atoms: C_25  and  C_26
REMARK    8  A    between atoms: C_27  and  C_28
REMARK    9  A    between atoms: C_27  and  C_29
REMARK                            x       y       z     vdW  Elec       q    Type
REMARK                         _______ _______ _______ _____ _____    ______ ____
ROOT
ATOM      1  C   LIG A   1      -6.750  -2.693 129.324  0.00  0.00    +0.060 C 
ATOM      2  C   LIG A   1      -5.509  -2.024 128.720  0.00  0.00    +0.123 C 
ATOM      3  C   LIG A   1      -4.446  -3.087 128.418  0.00  0.00    +0.060 C 
ATOM      4  C   LIG A   1      -4.957  -1.027 129.704  0.00  0.00    +0.020 C 
ATOM      5  C   LIG A   1      -4.885   0.282 129.453  0.00  0.00    +0.015 C 
ATOM      6  C   LIG A   1      -5.346   0.773 128.160  0.00  0.00    +0.059 A 
ATOM      7  C   LIG A   1      -5.289   2.136 127.835  0.00  0.00    +0.141 A 
ATOM      8  C   LIG A   1      -5.672   2.574 126.561  0.00  0.00    +0.102 A 
ATOM      9  C   LIG A   1      -5.529   3.990 126.173  0.00  0.00    +0.174 C 
ATOM     10  C   LIG A   1      -5.656   4.306 124.716  0.00  0.00    +0.129 C 
ATOM     11  C   LIG A   1      -6.740   3.418 124.128  0.00  0.00    +0.211 C 
ATOM     12  O   LIG A   1      -6.461   2.027 124.326  0.00  0.00    -0.483 OA
ATOM     13  O   LIG A   1      -5.232   4.835 127.014  0.00  0.00    -0.292 OA
ATOM     14  C   LIG A   1      -6.141   1.664 125.609  0.00  0.00    +0.142 A 
ATOM     15  C   LIG A   1      -6.250   0.299 125.933  0.00  0.00    +0.041 A 
ATOM     16  C   LIG A   1      -5.831  -0.138 127.210  0.00  0.00    +0.139 A 
ATOM     17  O   LIG A   1      -5.914  -1.485 127.447  0.00  0.00    -0.481 OA
ENDROOT
BRANCH  11  18
ATOM     18  C   LIG A   1      -6.860   3.640 122.629  0.00  0.00    -0.007 A 
ATOM     19  C   LIG A   1      -5.744   4.029 121.866  0.00  0.00    +0.011 A 
ATOM     20  C   LIG A   1      -5.859   4.272 120.496  0.00  0.00    +0.046 A 
ATOM     21  C   LIG A   1      -7.093   4.112 119.878  0.00  0.00    +0.117 A 
ATOM     22  C   LIG A   1      -8.205   3.708 120.606  0.00  0.00    +0.046 A 
ATOM     23  C   LIG A   1      -8.091   3.473 121.979  0.00  0.00    +0.011 A 
BRANCH  21  24
ATOM     24  O   LIG A   1      -7.253   4.343 118.544  0.00  0.00    -0.507 OA
ATOM     25  H   LIG A   1      -6.385   4.283 118.113  0.00  0.00    +0.292 HD
ENDBRANCH  21  24
ENDBRANCH  11  18
BRANCH   7  26
ATOM     26  O   LIG A   1      -4.823   3.013 128.788  0.00  0.00    -0.505 OA
ATOM     27  H   LIG A   1      -5.232   2.784 129.654  0.00  0.00    +0.292 HD
ENDBRANCH   7  26
BRANCH  15  28
ATOM     28  C   LIG A   1      -6.792  -0.691 124.919  0.00  0.00    +0.069 C 
BRANCH  28  29
ATOM     29  C   LIG A   1      -5.728  -1.601 124.368  0.00  0.00    -0.023 C 
ATOM     30  C   LIG A   1      -5.802  -2.925 124.126  0.00  0.00    -0.079 C 
ATOM     31  C   LIG A   1      -7.017  -3.785 124.348  0.00  0.00    +0.038 C 
ATOM     32  C   LIG A   1      -4.610  -3.672 123.590  0.00  0.00    +0.038 C 
ENDBRANCH  28  29
ENDBRANCH  15  28
TORSDOF 5
ENDMDL
MODEL 4
REMARK VINA RESULT:      -8.2      3.954      8.096
REMARK  Name = NuBBE_1264
REMARK  9 active torsions:
REMARK  status: ('A' for Active; 'I' for Inactive)
REMARK    1  A    between atoms: C_1  and  C_2
REMARK    2  A    between atoms: C_2  and  C_3
REMARK    3  A    between atoms: C_7  and  O_8
REMARK    4  A    between atoms: C_12  and  C_14
REMARK    5  A    between atoms: C_17  and  O_18
REMARK    6  A    between atoms: C_24  and  C_25
REMARK    7  A    between atoms: C_25  and  C_26
REMARK    8  A    between atoms: C_27  and  C_28
REMARK    9  A    between atoms: C_27  and  C_29
REMARK                            x       y       z     vdW  Elec       q    Type
REMARK                         _______ _______ _______ _____ _____    ______ ____
ROOT
ATOM      1  C   LIG A   1      -8.703  -3.319 123.616  0.00  0.00    +0.060 C 
ATOM      2  C   LIG A   1      -7.624  -2.261 123.879  0.00  0.00    +0.123 C 
ATOM      3  C   LIG A   1      -7.108  -1.709 122.545  0.00  0.00    +0.060 C 
ATOM      4  C   LIG A   1      -6.485  -2.895 124.634  0.00  0.00    +0.020 C 
ATOM      5  C   LIG A   1      -6.123  -2.515 125.861  0.00  0.00    +0.015 C 
ATOM      6  C   LIG A   1      -6.849  -1.423 126.498  0.00  0.00    +0.059 A 
ATOM      7  C   LIG A   1      -6.510  -0.973 127.783  0.00  0.00    +0.141 A 
ATOM      8  C   LIG A   1      -7.176   0.123 128.345  0.00  0.00    +0.102 A 
ATOM      9  C   LIG A   1      -6.768   0.666 129.654  0.00  0.00    +0.174 C 
ATOM     10  C   LIG A   1      -7.310   2.011 130.025  0.00  0.00    +0.129 C 
ATOM     11  C   LIG A   1      -8.744   2.100 129.530  0.00  0.00    +0.211 C 
ATOM     12  O   LIG A   1      -8.839   1.883 128.118  0.00  0.00    -0.483 OA
ATOM     13  O   LIG A   1      -5.952   0.063 130.347  0.00  0.00    -0.292 OA
ATOM     14  C   LIG A   1      -8.203   0.764 127.646  0.00  0.00    +0.142 A 
ATOM     15  C   LIG A   1      -8.589   0.297 126.376  0.00  0.00    +0.041 A 
ATOM     16  C   LIG A   1      -7.890  -0.789 125.803  0.00  0.00    +0.139 A 
ATOM     17  O   LIG A   1      -8.279  -1.164 124.544  0.00  0.00    -0.481 OA
ENDROOT
BRANCH  11  18
ATOM     18  C   LIG A   1      -9.322   3.478 129.811  0.00  0.00    -0.007 A 
ATOM     19  C   LIG A   1      -8.585   4.641 129.524  0.00  0.00    +0.011 A 
ATOM     20  C   LIG A   1      -9.098   5.907 129.816  0.00  0.00    +0.046 A 
ATOM     21  C   LIG A   1     -10.360   6.014 130.386  0.00  0.00    +0.117 A 
ATOM     22  C   LIG A   1     -11.116   4.881 130.659  0.00  0.00    +0.046 A 
ATOM     23  C   LIG A   1     -10.600   3.614 130.374  0.00  0.00    +0.011 A 
BRANCH  21  24
ATOM     24  O   LIG A   1     -10.898   7.229 130.693  0.00  0.00    -0.507 OA
ATOM     25  H   LIG A   1     -10.713   7.843 129.964  0.00  0.00    +0.292 HD
ENDBRANCH  21  24
ENDBRANCH  11  18
BRANCH   7  26
ATOM     26  O   LIG A   1      -5.495  -1.620 128.451  0.00  0.00    -0.505 OA
ATOM     27  H   LIG A   1      -4.634  -1.343 128.060  0.00  0.00    +0.292 HD
ENDBRANCH   7  26
BRANCH  15  28
ATOM     28  C   LIG A   1      -9.728   0.963 125.626  0.00  0.00    +0.069 C 
BRANCH  28  29
ATOM     29  C   LIG A   1      -9.245   1.898 124.550  0.00  0.00    -0.023 C 
ATOM     30  C   LIG A   1      -9.421   1.801 123.217  0.00  0.00    -0.079 C 
ATOM     31  C   LIG A   1     -10.180   0.708 122.514  0.00  0.00    +0.038 C 
ATOM     32  C   LIG A   1      -8.838   2.836 122.292  0.00  0.00    +0.038 C 
ENDBRANCH  28  29
ENDBRANCH  15  28
TORSDOF 5
ENDMDL
MODEL 5
REMARK VINA RESULT:      -8.2      3.160      7.190
REMARK  Name = NuBBE_1264
REMARK  9 active torsions:
REMARK  status: ('A' for Active; 'I' for Inactive)
REMARK    1  A    between atoms: C_1  and  C_2
REMARK    2  A    between atoms: C_2  and  C_3
REMARK    3  A    between atoms: C_7  and  O_8
REMARK    4  A    between atoms: C_12  and  C_14
REMARK    5  A    between atoms: C_17  and  O_18
REMARK    6  A    between atoms: C_24  and  C_25
REMARK    7  A    between atoms: C_25  and  C_26
REMARK    8  A    between atoms: C_27  and  C_28
REMARK    9  A    between atoms: C_27  and  C_29
REMARK                            x       y       z     vdW  Elec       q    Type
REMARK                         _______ _______ _______ _____ _____    ______ ____
ROOT
ATOM      1  C   LIG A   1      -7.402  -3.616 124.397  0.00  0.00    +0.060 C 
ATOM      2  C   LIG A   1      -8.186  -2.374 124.839  0.00  0.00    +0.123 C 
ATOM      3  C   LIG A   1      -9.390  -2.799 125.688  0.00  0.00    +0.060 C 
ATOM      4  C   LIG A   1      -8.669  -1.635 123.618  0.00  0.00    +0.020 C 
ATOM      5  C   LIG A   1      -8.288  -0.391 123.322  0.00  0.00    +0.015 C 
ATOM      6  C   LIG A   1      -7.376   0.297 124.227  0.00  0.00    +0.059 A 
ATOM      7  C   LIG A   1      -6.946   1.607 123.973  0.00  0.00    +0.141 A 
ATOM      8  C   LIG A   1      -6.125   2.271 124.894  0.00  0.00    +0.102 A 
ATOM      9  C   LIG A   1      -5.743   3.681 124.687  0.00  0.00    +0.174 C 
ATOM     10  C   LIG A   1      -5.143   4.395 125.857  0.00  0.00    +0.129 C 
ATOM     11  C   LIG A   1      -4.246   3.421 126.603  0.00  0.00    +0.211 C 
ATOM     12  O   LIG A   1      -4.959   2.254 127.028  0.00  0.00    -0.483 OA
ATOM     13  O   LIG A   1      -5.997   4.241 123.624  0.00  0.00    -0.292 OA
ATOM     14  C   LIG A   1      -5.703   1.628 126.060  0.00  0.00    +0.142 A 
ATOM     15  C   LIG A   1      -6.085   0.297 126.309  0.00  0.00    +0.041 A 
ATOM     16  C   LIG A   1      -6.939  -0.354 125.390  0.00  0.00    +0.139 A 
ATOM     17  O   LIG A   1      -7.316  -1.631 125.714  0.00  0.00    -0.481 OA
ENDROOT
BRANCH  11  18
ATOM     18  C   LIG A   1      -3.670   4.071 127.850  0.00  0.00    -0.007 A 
ATOM     19  C   LIG A   1      -3.911   3.528 129.124  0.00  0.00    +0.011 A 
ATOM     20  C   LIG A   1      -3.414   4.145 130.275  0.00  0.00    +0.046 A 
ATOM     21  C   LIG A   1      -2.659   5.305 130.152  0.00  0.00    +0.117 A 
ATOM     22  C   LIG A   1      -2.389   5.849 128.903  0.00  0.00    +0.046 A 
ATOM     23  C   LIG A   1      -2.893   5.235 127.753  0.00  0.00    +0.011 A 
BRANCH  21  24
ATOM     24  O   LIG A   1      -2.159   5.944 131.248  0.00  0.00    -0.507 OA
ATOM     25  H   LIG A   1      -1.505   5.365 131.672  0.00  0.00    +0.292 HD
ENDBRANCH  21  24
ENDBRANCH  11  18
BRANCH   7  26
ATOM     26  O   LIG A   1      -7.376   2.221 122.818  0.00  0.00    -0.505 OA
ATOM     27  H   LIG A   1      -8.353   2.330 122.864  0.00  0.00    +0.292 HD
ENDBRANCH   7  26
BRANCH  15  28
ATOM     28  C   LIG A   1      -5.601  -0.422 127.555  0.00  0.00    +0.069 C 
BRANCH  28  29
ATOM     29  C   LIG A   1      -6.475  -0.163 128.752  0.00  0.00    -0.023 C 
ATOM     30  C   LIG A   1      -7.291  -1.022 129.394  0.00  0.00    -0.079 C 
ATOM     31  C   LIG A   1      -7.483  -2.472 129.040  0.00  0.00    +0.038 C 
ATOM     32  C   LIG A   1      -8.110  -0.564 130.571  0.00  0.00    +0.038 C 
ENDBRANCH  28  29
ENDBRANCH  15  28
TORSDOF 5
ENDMDL
MODEL 6
REMARK VINA RESULT:      -8.2      6.947      8.008
REMARK  Name = NuBBE_1264
REMARK  9 active torsions:
REMARK  status: ('A' for Active; 'I' for Inactive)
REMARK    1  A    between atoms: C_1  and  C_2
REMARK    2  A    between atoms: C_2  and  C_3
REMARK    3  A    between atoms: C_7  and  O_8
REMARK    4  A    between atoms: C_12  and  C_14
REMARK    5  A    between atoms: C_17  and  O_18
REMARK    6  A    between atoms: C_24  and  C_25
REMARK    7  A    between atoms: C_25  and  C_26
REMARK    8  A    between atoms: C_27  and  C_28
REMARK    9  A    between atoms: C_27  and  C_29
REMARK                            x       y       z     vdW  Elec       q    Type
REMARK                         _______ _______ _______ _____ _____    ______ ____
ROOT
ATOM      1  C   LIG A   1      -2.534   4.090 132.933  0.00  0.00    +0.060 C 
ATOM      2  C   LIG A   1      -3.805   4.252 133.775  0.00  0.00    +0.123 C 
ATOM      3  C   LIG A   1      -3.482   5.035 135.052  0.00  0.00    +0.060 C 
ATOM      4  C   LIG A   1      -4.332   2.889 134.142  0.00  0.00    +0.020 C 
ATOM      5  C   LIG A   1      -5.525   2.439 133.750  0.00  0.00    +0.015 C 
ATOM      6  C   LIG A   1      -6.372   3.310 132.944  0.00  0.00    +0.059 A 
ATOM      7  C   LIG A   1      -7.639   2.896 132.509  0.00  0.00    +0.141 A 
ATOM      8  C   LIG A   1      -8.462   3.777 131.796  0.00  0.00    +0.102 A 
ATOM      9  C   LIG A   1      -9.833   3.389 131.414  0.00  0.00    +0.174 C 
ATOM     10  C   LIG A   1     -10.738   4.485 130.946  0.00  0.00    +0.129 C 
ATOM     11  C   LIG A   1      -9.918   5.459 130.116  0.00  0.00    +0.211 C 
ATOM     12  O   LIG A   1      -8.811   5.991 130.852  0.00  0.00    -0.483 OA
ATOM     13  O   LIG A   1     -10.214   2.231 131.566  0.00  0.00    -0.292 OA
ATOM     14  C   LIG A   1      -8.021   5.066 131.485  0.00  0.00    +0.142 A 
ATOM     15  C   LIG A   1      -6.733   5.482 131.871  0.00  0.00    +0.041 A 
ATOM     16  C   LIG A   1      -5.923   4.598 132.619  0.00  0.00    +0.139 A 
ATOM     17  O   LIG A   1      -4.701   5.080 133.009  0.00  0.00    -0.481 OA
ENDROOT
BRANCH  11  18
ATOM     18  C   LIG A   1     -10.771   6.638 129.678  0.00  0.00    -0.007 A 
ATOM     19  C   LIG A   1     -10.510   7.308 128.469  0.00  0.00    +0.011 A 
ATOM     20  C   LIG A   1     -11.269   8.415 128.082  0.00  0.00    +0.046 A 
ATOM     21  C   LIG A   1     -12.304   8.850 128.900  0.00  0.00    +0.117 A 
ATOM     22  C   LIG A   1     -12.595   8.192 130.089  0.00  0.00    +0.046 A 
ATOM     23  C   LIG A   1     -11.831   7.089 130.479  0.00  0.00    +0.011 A 
BRANCH  21  24
ATOM     24  O   LIG A   1     -13.066   9.929 128.566  0.00  0.00    -0.507 OA
ATOM     25  H   LIG A   1     -12.998  10.072 127.607  0.00  0.00    +0.292 HD
ENDBRANCH  21  24
ENDBRANCH  11  18
BRANCH   7  26
ATOM     26  O   LIG A   1      -8.053   1.622 132.828  0.00  0.00    -0.505 OA
ATOM     27  H   LIG A   1      -8.177   1.113 131.995  0.00  0.00    +0.292 HD
ENDBRANCH   7  26
BRANCH  15  28
ATOM     28  C   LIG A   1      -6.231   6.867 131.506  0.00  0.00    +0.069 C 
BRANCH  28  29
ATOM     29  C   LIG A   1      -5.283   6.852 130.338  0.00  0.00    -0.023 C 
ATOM     30  C   LIG A   1      -4.004   7.274 130.294  0.00  0.00    -0.079 C 
ATOM     31  C   LIG A   1      -3.234   7.848 131.453  0.00  0.00    +0.038 C 
ATOM     32  C   LIG A   1      -3.217   7.197 129.013  0.00  0.00    +0.038 C 
ENDBRANCH  28  29
ENDBRANCH  15  28
TORSDOF 5
ENDMDL
MODEL 7
REMARK VINA RESULT:      -8.0      4.427      7.729
REMARK  Name = NuBBE_1264
REMARK  9 active torsions:
REMARK  status: ('A' for Active; 'I' for Inactive)
REMARK    1  A    between atoms: C_1  and  C_2
REMARK    2  A    between atoms: C_2  and  C_3
REMARK    3  A    between atoms: C_7  and  O_8
REMARK    4  A    between atoms: C_12  and  C_14
REMARK    5  A    between atoms: C_17  and  O_18
REMARK    6  A    between atoms: C_24  and  C_25
REMARK    7  A    between atoms: C_25  and  C_26
REMARK    8  A    between atoms: C_27  and  C_28
REMARK    9  A    between atoms: C_27  and  C_29
REMARK                            x       y       z     vdW  Elec       q    Type
REMARK                         _______ _______ _______ _____ _____    ______ ____
ROOT
ATOM      1  C   LIG A   1      -7.555  -2.867 127.990  0.00  0.00    +0.060 C 
ATOM      2  C   LIG A   1      -6.721  -1.716 128.563  0.00  0.00    +0.123 C 
ATOM      3  C   LIG A   1      -5.398  -1.606 127.797  0.00  0.00    +0.060 C 
ATOM      4  C   LIG A   1      -6.437  -1.988 130.018  0.00  0.00    +0.020 C 
ATOM      5  C   LIG A   1      -6.867  -1.199 131.004  0.00  0.00    +0.015 C 
ATOM      6  C   LIG A   1      -7.634  -0.007 130.664  0.00  0.00    +0.059 A 
ATOM      7  C   LIG A   1      -8.107   0.865 131.656  0.00  0.00    +0.141 A 
ATOM      8  C   LIG A   1      -8.780   2.040 131.300  0.00  0.00    +0.102 A 
ATOM      9  C   LIG A   1      -9.199   3.012 132.327  0.00  0.00    +0.174 C 
ATOM     10  C   LIG A   1      -9.616   4.366 131.844  0.00  0.00    +0.129 C 
ATOM     11  C   LIG A   1     -10.380   4.193 130.541  0.00  0.00    +0.211 C 
ATOM     12  O   LIG A   1      -9.602   3.514 129.549  0.00  0.00    -0.483 OA
ATOM     13  O   LIG A   1      -9.116   2.727 133.519  0.00  0.00    -0.292 OA
ATOM     14  C   LIG A   1      -9.013   2.345 129.956  0.00  0.00    +0.142 A 
ATOM     15  C   LIG A   1      -8.588   1.459 128.949  0.00  0.00    +0.041 A 
ATOM     16  C   LIG A   1      -7.881   0.291 129.316  0.00  0.00    +0.139 A 
ATOM     17  O   LIG A   1      -7.450  -0.504 128.287  0.00  0.00    -0.481 OA
ENDROOT
BRANCH  11  18
ATOM     18  C   LIG A   1     -10.762   5.546 129.962  0.00  0.00    -0.007 A 
ATOM     19  C   LIG A   1      -9.785   6.528 129.719  0.00  0.00    +0.011 A 
ATOM     20  C   LIG A   1     -10.137   7.785 129.223  0.00  0.00    +0.046 A 
ATOM     21  C   LIG A   1     -11.472   8.060 128.953  0.00  0.00    +0.117 A 
ATOM     22  C   LIG A   1     -12.452   7.099 129.164  0.00  0.00    +0.046 A 
ATOM     23  C   LIG A   1     -12.100   5.844 129.668  0.00  0.00    +0.011 A 
BRANCH  21  24
ATOM     24  O   LIG A   1     -11.862   9.275 128.473  0.00  0.00    -0.507 OA
ATOM     25  H   LIG A   1     -11.993   9.202 127.513  0.00  0.00    +0.292 HD
ENDBRANCH  21  24
ENDBRANCH  11  18
BRANCH   7  26
ATOM     26  O   LIG A   1      -7.864   0.544 132.973  0.00  0.00    -0.505 OA
ATOM     27  H   LIG A   1      -7.741  -0.431 133.042  0.00  0.00    +0.292 HD
ENDBRANCH   7  26
BRANCH  15  28
ATOM     28  C   LIG A   1      -8.869   1.763 127.488  0.00  0.00    +0.069 C 
BRANCH  28  29
ATOM     29  C   LIG A   1      -7.731   2.482 126.815  0.00  0.00    -0.023 C 
ATOM     30  C   LIG A   1      -6.972   2.064 125.783  0.00  0.00    -0.079 C 
ATOM     31  C   LIG A   1      -7.129   0.755 125.057  0.00  0.00    +0.038 C 
ATOM     32  C   LIG A   1      -5.854   2.926 125.259  0.00  0.00    +0.038 C 
ENDBRANCH  28  29
ENDBRANCH  15  28
TORSDOF 5
ENDMDL
MODEL 8
REMARK VINA RESULT:      -7.8      3.633      8.007
REMARK  Name = NuBBE_1264
REMARK  9 active torsions:
REMARK  status: ('A' for Active; 'I' for Inactive)
REMARK    1  A    between atoms: C_1  and  C_2
REMARK    2  A    between atoms: C_2  and  C_3
REMARK    3  A    between atoms: C_7  and  O_8
REMARK    4  A    between atoms: C_12  and  C_14
REMARK    5  A    between atoms: C_17  and  O_18
REMARK    6  A    between atoms: C_24  and  C_25
REMARK    7  A    between atoms: C_25  and  C_26
REMARK    8  A    between atoms: C_27  and  C_28
REMARK    9  A    between atoms: C_27  and  C_29
REMARK                            x       y       z     vdW  Elec       q    Type
REMARK                         _______ _______ _______ _____ _____    ______ ____
ROOT
ATOM      1  C   LIG A   1      -6.500  -3.467 124.301  0.00  0.00    +0.060 C 
ATOM      2  C   LIG A   1      -7.563  -2.409 123.981  0.00  0.00    +0.123 C 
ATOM      3  C   LIG A   1      -8.867  -3.097 123.564  0.00  0.00    +0.060 C 
ATOM      4  C   LIG A   1      -7.071  -1.541 122.851  0.00  0.00    +0.020 C 
ATOM      5  C   LIG A   1      -6.855  -0.231 122.980  0.00  0.00    +0.015 C 
ATOM      6  C   LIG A   1      -7.122   0.400 124.267  0.00  0.00    +0.059 A 
ATOM      7  C   LIG A   1      -6.921   1.774 124.462  0.00  0.00    +0.141 A 
ATOM      8  C   LIG A   1      -7.251   2.369 125.687  0.00  0.00    +0.102 A 
ATOM      9  C   LIG A   1      -7.135   3.827 125.875  0.00  0.00    +0.174 C 
ATOM     10  C   LIG A   1      -7.802   4.406 127.083  0.00  0.00    +0.129 C 
ATOM     11  C   LIG A   1      -7.631   3.431 128.236  0.00  0.00    +0.211 C 
ATOM     12  O   LIG A   1      -8.164   2.138 127.929  0.00  0.00    -0.483 OA
ATOM     13  O   LIG A   1      -6.587   4.520 125.021  0.00  0.00    -0.292 OA
ATOM     14  C   LIG A   1      -7.758   1.598 126.736  0.00  0.00    +0.142 A 
ATOM     15  C   LIG A   1      -7.921   0.209 126.575  0.00  0.00    +0.041 A 
ATOM     16  C   LIG A   1      -7.616  -0.377 125.326  0.00  0.00    +0.139 A 
ATOM     17  O   LIG A   1      -7.844  -1.723 125.216  0.00  0.00    -0.481 OA
ENDROOT
BRANCH  11  18
ATOM     18  C   LIG A   1      -8.357   3.933 129.473  0.00  0.00    -0.007 A 
ATOM     19  C   LIG A   1      -7.952   5.116 130.118  0.00  0.00    +0.011 A 
ATOM     20  C   LIG A   1      -8.594   5.559 131.276  0.00  0.00    +0.046 A 
ATOM     21  C   LIG A   1      -9.657   4.824 131.788  0.00  0.00    +0.117 A 
ATOM     22  C   LIG A   1     -10.089   3.665 131.157  0.00  0.00    +0.046 A 
ATOM     23  C   LIG A   1      -9.442   3.218 130.002  0.00  0.00    +0.011 A 
BRANCH  21  24
ATOM     24  O   LIG A   1     -10.309   5.216 132.920  0.00  0.00    -0.507 OA
ATOM     25  H   LIG A   1     -10.095   4.592 133.633  0.00  0.00    +0.292 HD
ENDBRANCH  21  24
ENDBRANCH  11  18
BRANCH   7  26
ATOM     26  O   LIG A   1      -6.422   2.514 123.414  0.00  0.00    -0.505 OA
ATOM     27  H   LIG A   1      -7.043   2.442 122.653  0.00  0.00    +0.292 HD
ENDBRANCH   7  26
BRANCH  15  28
ATOM     28  C   LIG A   1      -8.436  -0.642 127.721  0.00  0.00    +0.069 C 
BRANCH  28  29
ATOM     29  C   LIG A   1      -7.338  -1.389 128.429  0.00  0.00    -0.023 C 
ATOM     30  C   LIG A   1      -7.293  -2.695 128.759  0.00  0.00    -0.079 C 
ATOM     31  C   LIG A   1      -8.364  -3.709 128.457  0.00  0.00    +0.038 C 
ATOM     32  C   LIG A   1      -6.105  -3.258 129.493  0.00  0.00    +0.038 C 
ENDBRANCH  28  29
ENDBRANCH  15  28
TORSDOF 5
ENDMDL
MODEL 9
REMARK VINA RESULT:      -7.7      4.065      5.949
REMARK  Name = NuBBE_1264
REMARK  9 active torsions:
REMARK  status: ('A' for Active; 'I' for Inactive)
REMARK    1  A    between atoms: C_1  and  C_2
REMARK    2  A    between atoms: C_2  and  C_3
REMARK    3  A    between atoms: C_7  and  O_8
REMARK    4  A    between atoms: C_12  and  C_14
REMARK    5  A    between atoms: C_17  and  O_18
REMARK    6  A    between atoms: C_24  and  C_25
REMARK    7  A    between atoms: C_25  and  C_26
REMARK    8  A    between atoms: C_27  and  C_28
REMARK    9  A    between atoms: C_27  and  C_29
REMARK                            x       y       z     vdW  Elec       q    Type
REMARK                         _______ _______ _______ _____ _____    ______ ____
ROOT
ATOM      1  C   LIG A   1      -8.851   2.988 133.343  0.00  0.00    +0.060 C 
ATOM      2  C   LIG A   1      -7.741   3.492 132.413  0.00  0.00    +0.123 C 
ATOM      3  C   LIG A   1      -6.460   3.730 133.221  0.00  0.00    +0.060 C 
ATOM      4  C   LIG A   1      -8.179   4.786 131.777  0.00  0.00    +0.020 C 
ATOM      5  C   LIG A   1      -8.344   4.931 130.461  0.00  0.00    +0.015 C 
ATOM      6  C   LIG A   1      -8.070   3.794 129.591  0.00  0.00    +0.059 A 
ATOM      7  C   LIG A   1      -8.217   3.888 128.199  0.00  0.00    +0.141 A 
ATOM      8  C   LIG A   1      -7.881   2.803 127.380  0.00  0.00    +0.102 A 
ATOM      9  C   LIG A   1      -7.940   2.918 125.910  0.00  0.00    +0.174 C 
ATOM     10  C   LIG A   1      -7.268   1.838 125.122  0.00  0.00    +0.129 C 
ATOM     11  C   LIG A   1      -7.497   0.515 125.834  0.00  0.00    +0.211 C 
ATOM     12  O   LIG A   1      -7.012   0.540 127.181  0.00  0.00    -0.483 OA
ATOM     13  O   LIG A   1      -8.446   3.908 125.387  0.00  0.00    -0.292 OA
ATOM     14  C   LIG A   1      -7.422   1.607 127.939  0.00  0.00    +0.142 A 
ATOM     15  C   LIG A   1      -7.314   1.478 129.335  0.00  0.00    +0.041 A 
ATOM     16  C   LIG A   1      -7.625   2.588 130.153  0.00  0.00    +0.139 A 
ATOM     17  O   LIG A   1      -7.451   2.416 131.501  0.00  0.00    -0.481 OA
ENDROOT
BRANCH  11  18
ATOM     18  C   LIG A   1      -6.768  -0.611 125.117  0.00  0.00    -0.007 A 
ATOM     19  C   LIG A   1      -6.809  -0.718 123.715  0.00  0.00    +0.011 A 
ATOM     20  C   LIG A   1      -6.172  -1.773 123.057  0.00  0.00    +0.046 A 
ATOM     21  C   LIG A   1      -5.479  -2.719 123.801  0.00  0.00    +0.117 A 
ATOM     22  C   LIG A   1      -5.406  -2.622 125.185  0.00  0.00    +0.046 A 
ATOM     23  C   LIG A   1      -6.049  -1.571 125.844  0.00  0.00    +0.011 A 
BRANCH  21  24
ATOM     24  O   LIG A   1      -4.847  -3.768 123.201  0.00  0.00    -0.507 OA
ATOM     25  H   LIG A   1      -4.398  -4.292 123.885  0.00  0.00    +0.292 HD
ENDBRANCH  21  24
ENDBRANCH  11  18
BRANCH   7  26
ATOM     26  O   LIG A   1      -8.670   5.076 127.672  0.00  0.00    -0.505 OA
ATOM     27  H   LIG A   1      -7.895   5.657 127.495  0.00  0.00    +0.292 HD
ENDBRANCH   7  26
BRANCH  15  28
ATOM     28  C   LIG A   1      -6.852   0.171 129.954  0.00  0.00    +0.069 C 
BRANCH  28  29
ATOM     29  C   LIG A   1      -7.752  -0.985 129.609  0.00  0.00    -0.023 C 
ATOM     30  C   LIG A   1      -7.409  -2.259 129.336  0.00  0.00    -0.079 C 
ATOM     31  C   LIG A   1      -6.007  -2.806 129.339  0.00  0.00    +0.038 C 
ATOM     32  C   LIG A   1      -8.463  -3.277 128.989  0.00  0.00    +0.038 C 
ENDBRANCH  28  29
ENDBRANCH  15  28
TORSDOF 5
ENDMDL
