MODEL 1
REMARK VINA RESULT:      -8.2      0.000      0.000
REMARK  Name = NuBBE_2010
REMARK  11 active torsions:
REMARK  status: ('A' for Active; 'I' for Inactive)
REMARK    1  A    between atoms: O_1  and  C_2
REMARK    2  A    between atoms: C_4  and  C_5
REMARK    3  A    between atoms: C_6  and  C_12
REMARK    4  A    between atoms: C_21  and  C_42
REMARK    5  A    between atoms: C_22  and  O_41
REMARK    6  A    between atoms: C_29  and  C_40
REMARK    7  A    between atoms: C_30  and  C_32
REMARK    8  A    between atoms: C_32  and  C_34
REMARK    9  A    between atoms: C_32  and  O_38
REMARK   10  A    between atoms: C_34  and  O_36
REMARK   11  A    between atoms: O_36  and  C_37
REMARK                            x       y       z     vdW  Elec       q    Type
REMARK                         _______ _______ _______ _____ _____    ______ ____
ROOT
ATOM      1  C   LIG A   1      -5.778  -0.796 127.513  0.00  0.00    +0.108 C 
ATOM      2  C   LIG A   1      -6.612  -1.902 126.872  0.00  0.00    +0.119 C 
ATOM      3  C   LIG A   1      -7.914  -1.241 126.157  0.00  0.00    +0.042 C 
ATOM      4  C   LIG A   1      -8.992  -2.340 126.021  0.00  0.00    +0.018 C 
ATOM      5  C   LIG A   1      -7.454  -0.724 124.744  0.00  0.00    +0.218 C 
ATOM      6  O   LIG A   1      -6.801  -1.743 123.976  0.00  0.00    -0.456 OA
ATOM      7  C   LIG A   1      -5.717  -2.339 124.494  0.00  0.00    +0.311 C 
ATOM      8  O   LIG A   1      -4.767  -2.674 123.791  0.00  0.00    -0.251 OA
ATOM      9  C   LIG A   1      -5.852  -2.812 125.902  0.00  0.00    +0.159 C 
ATOM     10  C   LIG A   1      -8.601   0.007 126.924  0.00  0.00    +0.014 C 
ATOM     11  C   LIG A   1      -7.633   0.971 127.700  0.00  0.00    +0.008 C 
ATOM     12  C   LIG A   1      -6.694   0.069 128.466  0.00  0.00    +0.033 C 
ATOM     13  C   LIG A   1      -6.422  -0.272 129.966  0.00  0.00    +0.009 C 
ATOM     14  C   LIG A   1      -4.803  -0.577 129.569  0.00  0.00    +0.081 C 
ATOM     15  C   LIG A   1      -4.873  -1.546 128.452  0.00  0.00    +0.092 C 
ATOM     16  C   LIG A   1      -5.650  -2.757 128.942  0.00  0.00    +0.194 C 
ATOM     17  O   LIG A   1      -6.839  -2.773 128.072  0.00  0.00    -0.358 OA
ATOM     18  C   LIG A   1      -5.689  -2.826 130.632  0.00  0.00    +0.169 C 
ATOM     19  O   LIG A   1      -6.073  -3.849 131.193  0.00  0.00    -0.294 OA
ATOM     20  C   LIG A   1      -5.178  -1.503 131.531  0.00  0.00    +0.038 C 
ATOM     21  C   LIG A   1      -5.949  -0.052 131.402  0.00  0.00    +0.051 C 
ATOM     22  C   LIG A   1      -3.985  -1.125 130.719  0.00  0.00    +0.050 C 
ATOM     23  C   LIG A   1      -4.791  -1.881 132.951  0.00  0.00    +0.019 C 
ATOM     24  C   LIG A   1      -7.751  -1.158 130.349  0.00  0.00    +0.015 C 
ENDROOT
BRANCH   5  25
ATOM     25  C   LIG A   1      -8.545  -0.131 123.879  0.00  0.00    +0.031 A 
ATOM     26  C   LIG A   1      -8.890   1.248 123.730  0.00  0.00    +0.048 A 
ATOM     27  C   LIG A   1      -9.929   1.302 122.833  0.00  0.00    +0.195 A 
ATOM     28  O   LIG A   1     -10.230   0.059 122.385  0.00  0.00    -0.471 OA
ATOM     29  C   LIG A   1      -9.383  -0.800 123.005  0.00  0.00    +0.202 A 
ENDBRANCH   5  25
BRANCH   1  30
ATOM     30  O   LIG A   1      -5.070  -0.007 126.585  0.00  0.00    -0.385 OA
ATOM     31  H   LIG A   1      -5.741   0.381 125.986  0.00  0.00    +0.210 HD
ENDBRANCH   1  30
BRANCH  14  32
ATOM     32  O   LIG A   1      -4.164   0.634 129.119  0.00  0.00    -0.388 OA
ATOM     33  H   LIG A   1      -4.327   1.335 129.781  0.00  0.00    +0.210 HD
ENDBRANCH  14  32
BRANCH  21  34
ATOM     34  C   LIG A   1      -6.865   0.359 132.598  0.00  0.00    +0.227 C 
BRANCH  34  35
ATOM     35  C   LIG A   1      -7.567   1.691 132.314  0.00  0.00    +0.336 C 
ATOM     36  O   LIG A   1      -7.061   2.594 131.658  0.00  0.00    -0.248 OA
BRANCH  35  37
ATOM     37  O   LIG A   1      -8.798   1.715 132.884  0.00  0.00    -0.466 OA
ATOM     38  C   LIG A   1      -9.887   1.896 131.982  0.00  0.00    +0.280 C 
ENDBRANCH  35  37
ENDBRANCH  34  35
BRANCH  34  39
ATOM     39  O   LIG A   1      -7.785  -0.638 133.016  0.00  0.00    -0.380 OA
ATOM     40  H   LIG A   1      -7.382  -1.507 132.814  0.00  0.00    +0.210 HD
ENDBRANCH  34  39
ENDBRANCH  21  34
TORSDOF 7
ENDMDL
MODEL 2
REMARK VINA RESULT:      -7.9      2.615      8.201
REMARK  Name = NuBBE_2010
REMARK  11 active torsions:
REMARK  status: ('A' for Active; 'I' for Inactive)
REMARK    1  A    between atoms: O_1  and  C_2
REMARK    2  A    between atoms: C_4  and  C_5
REMARK    3  A    between atoms: C_6  and  C_12
REMARK    4  A    between atoms: C_21  and  C_42
REMARK    5  A    between atoms: C_22  and  O_41
REMARK    6  A    between atoms: C_29  and  C_40
REMARK    7  A    between atoms: C_30  and  C_32
REMARK    8  A    between atoms: C_32  and  C_34
REMARK    9  A    between atoms: C_32  and  O_38
REMARK   10  A    between atoms: C_34  and  O_36
REMARK   11  A    between atoms: O_36  and  C_37
REMARK                            x       y       z     vdW  Elec       q    Type
REMARK                         _______ _______ _______ _____ _____    ______ ____
ROOT
ATOM      1  C   LIG A   1      -4.665  -2.236 130.678  0.00  0.00    +0.108 C 
ATOM      2  C   LIG A   1      -5.049  -1.751 132.074  0.00  0.00    +0.119 C 
ATOM      3  C   LIG A   1      -5.255  -3.037 133.047  0.00  0.00    +0.042 C 
ATOM      4  C   LIG A   1      -6.155  -2.603 134.226  0.00  0.00    +0.018 C 
ATOM      5  C   LIG A   1      -3.829  -3.466 133.554  0.00  0.00    +0.218 C 
ATOM      6  O   LIG A   1      -3.108  -2.377 134.145  0.00  0.00    -0.456 OA
ATOM      7  C   LIG A   1      -2.895  -1.277 133.407  0.00  0.00    +0.311 C 
ATOM      8  O   LIG A   1      -1.850  -0.636 133.493  0.00  0.00    -0.251 OA
ATOM      9  C   LIG A   1      -4.089  -0.734 132.698  0.00  0.00    +0.159 C 
ATOM     10  C   LIG A   1      -5.940  -4.342 132.380  0.00  0.00    +0.014 C 
ATOM     11  C   LIG A   1      -5.595  -4.622 130.874  0.00  0.00    +0.008 C 
ATOM     12  C   LIG A   1      -5.729  -3.289 130.176  0.00  0.00    +0.033 C 
ATOM     13  C   LIG A   1      -6.682  -2.658 129.111  0.00  0.00    +0.009 C 
ATOM     14  C   LIG A   1      -5.397  -1.687 128.584  0.00  0.00    +0.081 C 
ATOM     15  C   LIG A   1      -4.904  -1.029 129.815  0.00  0.00    +0.092 C 
ATOM     16  C   LIG A   1      -6.068  -0.269 130.429  0.00  0.00    +0.194 C 
ATOM     17  O   LIG A   1      -6.259  -0.933 131.730  0.00  0.00    -0.358 OA
ATOM     18  C   LIG A   1      -7.295   0.005 129.296  0.00  0.00    +0.169 C 
ATOM     19  O   LIG A   1      -8.200   0.795 129.555  0.00  0.00    -0.294 OA
ATOM     20  C   LIG A   1      -7.253  -0.785 127.815  0.00  0.00    +0.038 C 
ATOM     21  C   LIG A   1      -7.317  -2.430 127.740  0.00  0.00    +0.051 C 
ATOM     22  C   LIG A   1      -5.792  -0.667 127.538  0.00  0.00    +0.050 C 
ATOM     23  C   LIG A   1      -8.082  -0.078 126.757  0.00  0.00    +0.019 C 
ATOM     24  C   LIG A   1      -8.060  -2.456 129.981  0.00  0.00    +0.015 C 
ENDROOT
BRANCH   5  25
ATOM     25  C   LIG A   1      -3.805  -4.615 134.539  0.00  0.00    +0.031 A 
ATOM     26  C   LIG A   1      -3.639  -6.006 134.257  0.00  0.00    +0.048 A 
ATOM     27  C   LIG A   1      -3.670  -6.662 135.464  0.00  0.00    +0.195 A 
ATOM     28  O   LIG A   1      -3.806  -5.775 136.479  0.00  0.00    -0.471 OA
ATOM     29  C   LIG A   1      -3.871  -4.541 135.919  0.00  0.00    +0.202 A 
ENDBRANCH   5  25
BRANCH   1  30
ATOM     30  O   LIG A   1      -3.344  -2.720 130.588  0.00  0.00    -0.385 OA
ATOM     31  H   LIG A   1      -3.327  -3.566 131.084  0.00  0.00    +0.210 HD
ENDBRANCH   1  30
BRANCH  14  32
ATOM     32  O   LIG A   1      -4.352  -2.505 128.021  0.00  0.00    -0.388 OA
ATOM     33  H   LIG A   1      -4.296  -2.320 127.063  0.00  0.00    +0.210 HD
ENDBRANCH  14  32
BRANCH  21  34
ATOM     34  C   LIG A   1      -8.664  -3.054 127.258  0.00  0.00    +0.227 C 
BRANCH  34  35
ATOM     35  C   LIG A   1      -8.752  -3.047 125.728  0.00  0.00    +0.336 C 
ATOM     36  O   LIG A   1      -9.804  -2.918 125.114  0.00  0.00    -0.248 OA
BRANCH  35  37
ATOM     37  O   LIG A   1      -7.522  -3.200 125.177  0.00  0.00    -0.466 OA
ATOM     38  C   LIG A   1      -7.416  -2.829 123.805  0.00  0.00    +0.280 C 
ENDBRANCH  35  37
ENDBRANCH  34  35
BRANCH  34  39
ATOM     39  O   LIG A   1      -8.953  -4.337 127.792  0.00  0.00    -0.380 OA
ATOM     40  H   LIG A   1      -9.498  -4.810 127.131  0.00  0.00    +0.210 HD
ENDBRANCH  34  39
ENDBRANCH  21  34
TORSDOF 7
ENDMDL
MODEL 3
REMARK VINA RESULT:      -7.9      5.495      8.032
REMARK  Name = NuBBE_2010
REMARK  11 active torsions:
REMARK  status: ('A' for Active; 'I' for Inactive)
REMARK    1  A    between atoms: O_1  and  C_2
REMARK    2  A    between atoms: C_4  and  C_5
REMARK    3  A    between atoms: C_6  and  C_12
REMARK    4  A    between atoms: C_21  and  C_42
REMARK    5  A    between atoms: C_22  and  O_41
REMARK    6  A    between atoms: C_29  and  C_40
REMARK    7  A    between atoms: C_30  and  C_32
REMARK    8  A    between atoms: C_32  and  C_34
REMARK    9  A    between atoms: C_32  and  O_38
REMARK   10  A    between atoms: C_34  and  O_36
REMARK   11  A    between atoms: O_36  and  C_37
REMARK                            x       y       z     vdW  Elec       q    Type
REMARK                         _______ _______ _______ _____ _____    ______ ____
ROOT
ATOM      1  C   LIG A   1      -6.363   4.893 130.175  0.00  0.00    +0.108 C 
ATOM      2  C   LIG A   1      -7.461   4.210 130.986  0.00  0.00    +0.119 C 
ATOM      3  C   LIG A   1      -8.665   5.270 131.251  0.00  0.00    +0.042 C 
ATOM      4  C   LIG A   1      -9.458   4.790 132.488  0.00  0.00    +0.018 C 
ATOM      5  C   LIG A   1      -9.572   5.271 129.966  0.00  0.00    +0.218 C 
ATOM      6  O   LIG A   1     -10.003   3.954 129.600  0.00  0.00    -0.456 OA
ATOM      7  C   LIG A   1      -9.070   3.019 129.363  0.00  0.00    +0.311 C 
ATOM      8  O   LIG A   1      -9.216   2.170 128.487  0.00  0.00    -0.251 OA
ATOM      9  C   LIG A   1      -7.996   2.905 130.391  0.00  0.00    +0.159 C 
ATOM     10  C   LIG A   1      -8.227   6.802 131.531  0.00  0.00    +0.014 C 
ATOM     11  C   LIG A   1      -6.962   7.322 130.758  0.00  0.00    +0.008 C 
ATOM     12  C   LIG A   1      -5.929   6.229 130.897  0.00  0.00    +0.033 C 
ATOM     13  C   LIG A   1      -4.551   6.057 131.613  0.00  0.00    +0.009 C 
ATOM     14  C   LIG A   1      -4.089   4.974 130.393  0.00  0.00    +0.081 C 
ATOM     15  C   LIG A   1      -5.183   3.978 130.351  0.00  0.00    +0.092 C 
ATOM     16  C   LIG A   1      -5.301   3.365 131.737  0.00  0.00    +0.194 C 
ATOM     17  O   LIG A   1      -6.655   3.757 132.168  0.00  0.00    -0.358 OA
ATOM     18  C   LIG A   1      -3.893   3.605 132.643  0.00  0.00    +0.169 C 
ATOM     19  O   LIG A   1      -3.728   2.986 133.691  0.00  0.00    -0.294 OA
ATOM     20  C   LIG A   1      -2.717   4.669 132.089  0.00  0.00    +0.038 C 
ATOM     21  C   LIG A   1      -3.062   6.268 131.884  0.00  0.00    +0.051 C 
ATOM     22  C   LIG A   1      -2.752   4.310 130.641  0.00  0.00    +0.050 C 
ATOM     23  C   LIG A   1      -1.354   4.397 132.700  0.00  0.00    +0.019 C 
ATOM     24  C   LIG A   1      -5.009   5.965 133.188  0.00  0.00    +0.015 C 
ENDROOT
BRANCH   5  25
ATOM     25  C   LIG A   1     -10.803   6.150 130.036  0.00  0.00    +0.031 A 
ATOM     26  C   LIG A   1     -10.982   7.451 129.473  0.00  0.00    +0.048 A 
ATOM     27  C   LIG A   1     -12.261   7.843 129.781  0.00  0.00    +0.195 A 
ATOM     28  O   LIG A   1     -12.903   6.864 130.464  0.00  0.00    -0.471 OA
ATOM     29  C   LIG A   1     -12.026   5.838 130.600  0.00  0.00    +0.202 A 
ENDBRANCH   5  25
BRANCH   1  30
ATOM     30  O   LIG A   1      -6.699   5.097 128.821  0.00  0.00    -0.385 OA
ATOM     31  H   LIG A   1      -7.610   5.460 128.817  0.00  0.00    +0.210 HD
ENDBRANCH   1  30
BRANCH  14  32
ATOM     32  O   LIG A   1      -4.008   5.657 129.126  0.00  0.00    -0.388 OA
ATOM     33  H   LIG A   1      -3.309   6.339 129.186  0.00  0.00    +0.210 HD
ENDBRANCH  14  32
BRANCH  21  34
ATOM     34  C   LIG A   1      -2.472   7.249 132.945  0.00  0.00    +0.227 C 
BRANCH  34  35
ATOM     35  C   LIG A   1      -2.582   8.700 132.466  0.00  0.00    +0.336 C 
ATOM     36  O   LIG A   1      -3.082   9.021 131.395  0.00  0.00    -0.248 OA
BRANCH  35  37
ATOM     37  O   LIG A   1      -2.058   9.549 133.386  0.00  0.00    -0.466 OA
ATOM     38  C   LIG A   1      -2.132  10.933 133.055  0.00  0.00    +0.280 C 
ENDBRANCH  35  37
ENDBRANCH  34  35
BRANCH  34  39
ATOM     39  O   LIG A   1      -2.988   7.091 134.258  0.00  0.00    -0.380 OA
ATOM     40  H   LIG A   1      -2.305   7.417 134.879  0.00  0.00    +0.210 HD
ENDBRANCH  34  39
ENDBRANCH  21  34
TORSDOF 7
ENDMDL
MODEL 4
REMARK VINA RESULT:      -7.8      2.690      6.764
REMARK  Name = NuBBE_2010
REMARK  11 active torsions:
REMARK  status: ('A' for Active; 'I' for Inactive)
REMARK    1  A    between atoms: O_1  and  C_2
REMARK    2  A    between atoms: C_4  and  C_5
REMARK    3  A    between atoms: C_6  and  C_12
REMARK    4  A    between atoms: C_21  and  C_42
REMARK    5  A    between atoms: C_22  and  O_41
REMARK    6  A    between atoms: C_29  and  C_40
REMARK    7  A    between atoms: C_30  and  C_32
REMARK    8  A    between atoms: C_32  and  C_34
REMARK    9  A    between atoms: C_32  and  O_38
REMARK   10  A    between atoms: C_34  and  O_36
REMARK   11  A    between atoms: O_36  and  C_37
REMARK                            x       y       z     vdW  Elec       q    Type
REMARK                         _______ _______ _______ _____ _____    ______ ____
ROOT
ATOM      1  C   LIG A   1      -5.793   1.513 127.566  0.00  0.00    +0.108 C 
ATOM      2  C   LIG A   1      -6.416   2.853 127.185  0.00  0.00    +0.119 C 
ATOM      3  C   LIG A   1      -7.323   3.390 128.424  0.00  0.00    +0.042 C 
ATOM      4  C   LIG A   1      -8.355   4.392 127.859  0.00  0.00    +0.018 C 
ATOM      5  C   LIG A   1      -6.350   4.095 129.438  0.00  0.00    +0.218 C 
ATOM      6  O   LIG A   1      -5.539   5.098 128.811  0.00  0.00    -0.456 OA
ATOM      7  C   LIG A   1      -4.760   4.736 127.781  0.00  0.00    +0.311 C 
ATOM      8  O   LIG A   1      -3.647   5.228 127.611  0.00  0.00    -0.251 OA
ATOM      9  C   LIG A   1      -5.426   3.925 126.721  0.00  0.00    +0.159 C 
ATOM     10  C   LIG A   1      -8.149   2.270 129.250  0.00  0.00    +0.014 C 
ATOM     11  C   LIG A   1      -7.458   0.868 129.412  0.00  0.00    +0.008 C 
ATOM     12  C   LIG A   1      -6.926   0.521 128.042  0.00  0.00    +0.033 C 
ATOM     13  C   LIG A   1      -7.237  -0.543 126.941  0.00  0.00    +0.009 C 
ATOM     14  C   LIG A   1      -5.609  -0.485 126.471  0.00  0.00    +0.081 C 
ATOM     15  C   LIG A   1      -5.342   0.954 126.245  0.00  0.00    +0.092 C 
ATOM     16  C   LIG A   1      -6.328   1.446 125.197  0.00  0.00    +0.194 C 
ATOM     17  O   LIG A   1      -7.122   2.452 125.924  0.00  0.00    -0.358 OA
ATOM     18  C   LIG A   1      -6.977   0.162 124.307  0.00  0.00    +0.169 C 
ATOM     19  O   LIG A   1      -7.610   0.391 123.279  0.00  0.00    -0.294 OA
ATOM     20  C   LIG A   1      -6.731  -1.417 124.821  0.00  0.00    +0.038 C 
ATOM     21  C   LIG A   1      -7.298  -1.921 126.284  0.00  0.00    +0.051 C 
ATOM     22  C   LIG A   1      -5.302  -1.300 125.233  0.00  0.00    +0.050 C 
ATOM     23  C   LIG A   1      -6.909  -2.427 123.700  0.00  0.00    +0.019 C 
ATOM     24  C   LIG A   1      -8.674  -0.003 126.358  0.00  0.00    +0.015 C 
ENDROOT
BRANCH   5  25
ATOM     25  C   LIG A   1      -7.011   4.732 130.642  0.00  0.00    +0.031 A 
ATOM     26  C   LIG A   1      -7.512   6.066 130.761  0.00  0.00    +0.048 A 
ATOM     27  C   LIG A   1      -8.035   6.181 132.026  0.00  0.00    +0.195 A 
ATOM     28  O   LIG A   1      -7.929   5.004 132.689  0.00  0.00    -0.471 OA
ATOM     29  C   LIG A   1      -7.327   4.128 131.846  0.00  0.00    +0.202 A 
ENDBRANCH   5  25
BRANCH   1  30
ATOM     30  O   LIG A   1      -4.743   1.620 128.501  0.00  0.00    -0.385 OA
ATOM     31  H   LIG A   1      -5.161   1.847 129.358  0.00  0.00    +0.210 HD
ENDBRANCH   1  30
BRANCH  14  32
ATOM     32  O   LIG A   1      -4.766  -0.972 127.534  0.00  0.00    -0.388 OA
ATOM     33  H   LIG A   1      -4.711  -0.283 128.226  0.00  0.00    +0.210 HD
ENDBRANCH  14  32
BRANCH  21  34
ATOM     34  C   LIG A   1      -8.551  -2.852 126.263  0.00  0.00    +0.227 C 
BRANCH  34  35
ATOM     35  C   LIG A   1      -8.745  -3.537 127.620  0.00  0.00    +0.336 C 
ATOM     36  O   LIG A   1      -9.749  -4.171 127.918  0.00  0.00    -0.248 OA
BRANCH  35  37
ATOM     37  O   LIG A   1      -7.663  -3.338 128.415  0.00  0.00    -0.466 OA
ATOM     38  C   LIG A   1      -7.953  -3.001 129.769  0.00  0.00    +0.280 C 
ENDBRANCH  35  37
ENDBRANCH  34  35
BRANCH  34  39
ATOM     39  O   LIG A   1      -9.747  -2.234 125.813  0.00  0.00    -0.380 OA
ATOM     40  H   LIG A   1     -10.478  -2.863 125.980  0.00  0.00    +0.210 HD
ENDBRANCH  34  39
ENDBRANCH  21  34
TORSDOF 7
ENDMDL
MODEL 5
REMARK VINA RESULT:      -7.8      3.589      4.788
REMARK  Name = NuBBE_2010
REMARK  11 active torsions:
REMARK  status: ('A' for Active; 'I' for Inactive)
REMARK    1  A    between atoms: O_1  and  C_2
REMARK    2  A    between atoms: C_4  and  C_5
REMARK    3  A    between atoms: C_6  and  C_12
REMARK    4  A    between atoms: C_21  and  C_42
REMARK    5  A    between atoms: C_22  and  O_41
REMARK    6  A    between atoms: C_29  and  C_40
REMARK    7  A    between atoms: C_30  and  C_32
REMARK    8  A    between atoms: C_32  and  C_34
REMARK    9  A    between atoms: C_32  and  O_38
REMARK   10  A    between atoms: C_34  and  O_36
REMARK   11  A    between atoms: O_36  and  C_37
REMARK                            x       y       z     vdW  Elec       q    Type
REMARK                         _______ _______ _______ _____ _____    ______ ____
ROOT
ATOM      1  C   LIG A   1      -5.497   1.920 126.795  0.00  0.00    +0.108 C 
ATOM      2  C   LIG A   1      -6.924   1.793 126.269  0.00  0.00    +0.119 C 
ATOM      3  C   LIG A   1      -7.132   2.835 125.038  0.00  0.00    +0.042 C 
ATOM      4  C   LIG A   1      -8.647   3.107 124.896  0.00  0.00    +0.018 C 
ATOM      5  C   LIG A   1      -6.560   2.144 123.746  0.00  0.00    +0.218 C 
ATOM      6  O   LIG A   1      -7.119   0.841 123.529  0.00  0.00    -0.456 OA
ATOM      7  C   LIG A   1      -6.989  -0.078 124.497  0.00  0.00    +0.311 C 
ATOM      8  O   LIG A   1      -6.809  -1.265 124.239  0.00  0.00    -0.251 OA
ATOM      9  C   LIG A   1      -7.349   0.377 125.871  0.00  0.00    +0.159 C 
ATOM     10  C   LIG A   1      -6.401   4.271 125.178  0.00  0.00    +0.014 C 
ATOM     11  C   LIG A   1      -5.009   4.280 125.907  0.00  0.00    +0.008 C 
ATOM     12  C   LIG A   1      -5.196   3.431 127.142  0.00  0.00    +0.033 C 
ATOM     13  C   LIG A   1      -5.217   3.666 128.687  0.00  0.00    +0.009 C 
ATOM     14  C   LIG A   1      -4.625   2.092 128.901  0.00  0.00    +0.081 C 
ATOM     15  C   LIG A   1      -5.561   1.239 128.134  0.00  0.00    +0.092 C 
ATOM     16  C   LIG A   1      -6.957   1.477 128.686  0.00  0.00    +0.194 C 
ATOM     17  O   LIG A   1      -7.683   2.049 127.538  0.00  0.00    -0.358 OA
ATOM     18  C   LIG A   1      -6.905   2.161 130.232  0.00  0.00    +0.169 C 
ATOM     19  O   LIG A   1      -7.926   2.208 130.914  0.00  0.00    -0.294 OA
ATOM     20  C   LIG A   1      -5.451   2.747 130.835  0.00  0.00    +0.038 C 
ATOM     21  C   LIG A   1      -4.665   3.981 130.076  0.00  0.00    +0.051 C 
ATOM     22  C   LIG A   1      -4.551   1.660 130.350  0.00  0.00    +0.050 C 
ATOM     23  C   LIG A   1      -5.447   2.842 132.351  0.00  0.00    +0.019 C 
ATOM     24  C   LIG A   1      -6.649   4.447 128.882  0.00  0.00    +0.015 C 
ENDROOT
BRANCH   5  25
ATOM     25  C   LIG A   1      -6.722   2.928 122.461  0.00  0.00    +0.031 A 
ATOM     26  C   LIG A   1      -5.693   3.477 121.635  0.00  0.00    +0.048 A 
ATOM     27  C   LIG A   1      -6.319   4.086 120.574  0.00  0.00    +0.195 A 
ATOM     28  O   LIG A   1      -7.661   3.922 120.661  0.00  0.00    -0.471 OA
ATOM     29  C   LIG A   1      -7.899   3.209 121.790  0.00  0.00    +0.202 A 
ENDBRANCH   5  25
BRANCH   1  30
ATOM     30  O   LIG A   1      -4.524   1.359 125.943  0.00  0.00    -0.385 OA
ATOM     31  H   LIG A   1      -3.655   1.657 126.285  0.00  0.00    +0.210 HD
ENDBRANCH   1  30
BRANCH  14  32
ATOM     32  O   LIG A   1      -3.300   1.978 128.345  0.00  0.00    -0.388 OA
ATOM     33  H   LIG A   1      -2.667   1.845 129.077  0.00  0.00    +0.210 HD
ENDBRANCH  14  32
BRANCH  21  34
ATOM     34  C   LIG A   1      -4.725   5.378 130.772  0.00  0.00    +0.227 C 
BRANCH  34  35
ATOM     35  C   LIG A   1      -4.062   6.450 129.901  0.00  0.00    +0.336 C 
ATOM     36  O   LIG A   1      -4.620   7.488 129.568  0.00  0.00    -0.248 OA
BRANCH  35  37
ATOM     37  O   LIG A   1      -2.799   6.082 129.567  0.00  0.00    -0.466 OA
ATOM     38  C   LIG A   1      -2.401   6.398 128.236  0.00  0.00    +0.280 C 
ENDBRANCH  35  37
ENDBRANCH  34  35
BRANCH  34  39
ATOM     39  O   LIG A   1      -6.018   5.777 131.199  0.00  0.00    -0.380 OA
ATOM     40  H   LIG A   1      -5.930   6.668 131.596  0.00  0.00    +0.210 HD
ENDBRANCH  34  39
ENDBRANCH  21  34
TORSDOF 7
ENDMDL
MODEL 6
REMARK VINA RESULT:      -7.7      4.009      7.104
REMARK  Name = NuBBE_2010
REMARK  11 active torsions:
REMARK  status: ('A' for Active; 'I' for Inactive)
REMARK    1  A    between atoms: O_1  and  C_2
REMARK    2  A    between atoms: C_4  and  C_5
REMARK    3  A    between atoms: C_6  and  C_12
REMARK    4  A    between atoms: C_21  and  C_42
REMARK    5  A    between atoms: C_22  and  O_41
REMARK    6  A    between atoms: C_29  and  C_40
REMARK    7  A    between atoms: C_30  and  C_32
REMARK    8  A    between atoms: C_32  and  C_34
REMARK    9  A    between atoms: C_32  and  O_38
REMARK   10  A    between atoms: C_34  and  O_36
REMARK   11  A    between atoms: O_36  and  C_37
REMARK                            x       y       z     vdW  Elec       q    Type
REMARK                         _______ _______ _______ _____ _____    ______ ____
ROOT
ATOM      1  C   LIG A   1      -6.237   1.633 131.634  0.00  0.00    +0.108 C 
ATOM      2  C   LIG A   1      -6.263   0.656 132.807  0.00  0.00    +0.119 C 
ATOM      3  C   LIG A   1      -6.716  -0.811 132.268  0.00  0.00    +0.042 C 
ATOM      4  C   LIG A   1      -7.272  -1.607 133.470  0.00  0.00    +0.018 C 
ATOM      5  C   LIG A   1      -5.433  -1.503 131.678  0.00  0.00    +0.218 C 
ATOM      6  O   LIG A   1      -4.342  -1.517 132.609  0.00  0.00    -0.456 OA
ATOM      7  C   LIG A   1      -3.906  -0.347 133.100  0.00  0.00    +0.311 C 
ATOM      8  O   LIG A   1      -2.715  -0.144 133.321  0.00  0.00    -0.251 OA
ATOM      9  C   LIG A   1      -4.964   0.571 133.614  0.00  0.00    +0.159 C 
ATOM     10  C   LIG A   1      -7.849  -0.835 131.114  0.00  0.00    +0.014 C 
ATOM     11  C   LIG A   1      -7.813   0.339 130.072  0.00  0.00    +0.008 C 
ATOM     12  C   LIG A   1      -7.629   1.597 130.888  0.00  0.00    +0.033 C 
ATOM     13  C   LIG A   1      -8.480   2.861 131.230  0.00  0.00    +0.009 C 
ATOM     14  C   LIG A   1      -7.045   3.753 131.358  0.00  0.00    +0.081 C 
ATOM     15  C   LIG A   1      -6.212   2.978 132.306  0.00  0.00    +0.092 C 
ATOM     16  C   LIG A   1      -6.997   2.840 133.601  0.00  0.00    +0.194 C 
ATOM     17  O   LIG A   1      -7.202   1.386 133.721  0.00  0.00    -0.358 OA
ATOM     18  C   LIG A   1      -8.224   4.000 133.708  0.00  0.00    +0.169 C 
ATOM     19  O   LIG A   1      -8.802   4.180 134.777  0.00  0.00    -0.294 OA
ATOM     20  C   LIG A   1      -8.625   4.915 132.359  0.00  0.00    +0.038 C 
ATOM     21  C   LIG A   1      -9.195   4.191 130.993  0.00  0.00    +0.051 C 
ATOM     22  C   LIG A   1      -7.249   5.172 131.843  0.00  0.00    +0.050 C 
ATOM     23  C   LIG A   1      -9.336   6.207 132.724  0.00  0.00    +0.019 C 
ATOM     24  C   LIG A   1      -9.600   2.236 132.256  0.00  0.00    +0.015 C 
ENDROOT
BRANCH   5  25
ATOM     25  C   LIG A   1      -5.626  -2.920 131.182  0.00  0.00    +0.031 A 
ATOM     26  C   LIG A   1      -5.185  -4.131 131.800  0.00  0.00    +0.048 A 
ATOM     27  C   LIG A   1      -5.603  -5.162 130.995  0.00  0.00    +0.195 A 
ATOM     28  O   LIG A   1      -6.303  -4.682 129.939  0.00  0.00    -0.471 OA
ATOM     29  C   LIG A   1      -6.330  -3.331 130.065  0.00  0.00    +0.202 A 
ENDBRANCH   5  25
BRANCH   1  30
ATOM     30  O   LIG A   1      -5.151   1.440 130.757  0.00  0.00    -0.385 OA
ATOM     31  H   LIG A   1      -4.502   2.145 130.965  0.00  0.00    +0.210 HD
ENDBRANCH   1  30
BRANCH  14  32
ATOM     32  O   LIG A   1      -6.384   3.821 130.079  0.00  0.00    -0.388 OA
ATOM     33  H   LIG A   1      -5.425   3.934 130.231  0.00  0.00    +0.210 HD
ENDBRANCH  14  32
BRANCH  21  34
ATOM     34  C   LIG A   1     -10.721   4.351 130.703  0.00  0.00    +0.227 C 
BRANCH  34  35
ATOM     35  C   LIG A   1     -10.991   5.626 129.896  0.00  0.00    +0.336 C 
ATOM     36  O   LIG A   1     -10.277   6.007 128.978  0.00  0.00    -0.248 OA
BRANCH  35  37
ATOM     37  O   LIG A   1     -12.112   6.246 130.344  0.00  0.00    -0.466 OA
ATOM     38  C   LIG A   1     -12.125   7.664 130.203  0.00  0.00    +0.280 C 
ENDBRANCH  35  37
ENDBRANCH  34  35
BRANCH  34  39
ATOM     39  O   LIG A   1     -11.340   3.218 130.114  0.00  0.00    -0.380 OA
ATOM     40  H   LIG A   1     -12.257   3.474 129.887  0.00  0.00    +0.210 HD
ENDBRANCH  34  39
ENDBRANCH  21  34
TORSDOF 7
ENDMDL
MODEL 7
REMARK VINA RESULT:      -7.7      2.046      7.408
REMARK  Name = NuBBE_2010
REMARK  11 active torsions:
REMARK  status: ('A' for Active; 'I' for Inactive)
REMARK    1  A    between atoms: O_1  and  C_2
REMARK    2  A    between atoms: C_4  and  C_5
REMARK    3  A    between atoms: C_6  and  C_12
REMARK    4  A    between atoms: C_21  and  C_42
REMARK    5  A    between atoms: C_22  and  O_41
REMARK    6  A    between atoms: C_29  and  C_40
REMARK    7  A    between atoms: C_30  and  C_32
REMARK    8  A    between atoms: C_32  and  C_34
REMARK    9  A    between atoms: C_32  and  O_38
REMARK   10  A    between atoms: C_34  and  O_36
REMARK   11  A    between atoms: O_36  and  C_37
REMARK                            x       y       z     vdW  Elec       q    Type
REMARK                         _______ _______ _______ _____ _____    ______ ____
ROOT
ATOM      1  C   LIG A   1      -5.944   0.440 128.384  0.00  0.00    +0.108 C 
ATOM      2  C   LIG A   1      -6.753   0.954 129.572  0.00  0.00    +0.119 C 
ATOM      3  C   LIG A   1      -7.378  -0.312 130.378  0.00  0.00    +0.042 C 
ATOM      4  C   LIG A   1      -8.598   0.192 131.183  0.00  0.00    +0.018 C 
ATOM      5  C   LIG A   1      -6.254  -0.851 131.337  0.00  0.00    +0.218 C 
ATOM      6  O   LIG A   1      -5.706   0.179 132.170  0.00  0.00    -0.456 OA
ATOM      7  C   LIG A   1      -5.169   1.259 131.582  0.00  0.00    +0.311 C 
ATOM      8  O   LIG A   1      -4.176   1.816 132.043  0.00  0.00    -0.251 OA
ATOM      9  C   LIG A   1      -5.999   1.893 130.517  0.00  0.00    +0.159 C 
ATOM     10  C   LIG A   1      -7.882  -1.560 129.480  0.00  0.00    +0.014 C 
ATOM     11  C   LIG A   1      -7.056  -1.866 128.180  0.00  0.00    +0.008 C 
ATOM     12  C   LIG A   1      -6.840  -0.527 127.515  0.00  0.00    +0.033 C 
ATOM     13  C   LIG A   1      -7.315   0.176 126.203  0.00  0.00    +0.009 C 
ATOM     14  C   LIG A   1      -5.859   1.044 126.181  0.00  0.00    +0.081 C 
ATOM     15  C   LIG A   1      -5.778   1.662 127.524  0.00  0.00    +0.092 C 
ATOM     16  C   LIG A   1      -7.024   2.511 127.716  0.00  0.00    +0.194 C 
ATOM     17  O   LIG A   1      -7.704   1.864 128.852  0.00  0.00    -0.358 OA
ATOM     18  C   LIG A   1      -7.757   2.880 126.236  0.00  0.00    +0.169 C 
ATOM     19  O   LIG A   1      -8.635   3.737 126.186  0.00  0.00    -0.294 OA
ATOM     20  C   LIG A   1      -7.259   2.088 124.840  0.00  0.00    +0.038 C 
ATOM     21  C   LIG A   1      -7.413   0.453 124.703  0.00  0.00    +0.051 C 
ATOM     22  C   LIG A   1      -5.789   2.092 125.091  0.00  0.00    +0.050 C 
ATOM     23  C   LIG A   1      -7.615   2.857 123.579  0.00  0.00    +0.019 C 
ATOM     24  C   LIG A   1      -8.891   0.485 126.546  0.00  0.00    +0.015 C 
ENDROOT
BRANCH   5  25
ATOM     25  C   LIG A   1      -6.659  -1.998 132.238  0.00  0.00    +0.031 A 
ATOM     26  C   LIG A   1      -7.644  -1.992 133.273  0.00  0.00    +0.048 A 
ATOM     27  C   LIG A   1      -7.671  -3.259 133.802  0.00  0.00    +0.195 A 
ATOM     28  O   LIG A   1      -6.800  -4.063 133.146  0.00  0.00    -0.471 OA
ATOM     29  C   LIG A   1      -6.204  -3.304 132.192  0.00  0.00    +0.202 A 
ENDBRANCH   5  25
BRANCH   1  30
ATOM     30  O   LIG A   1      -4.713  -0.145 128.745  0.00  0.00    -0.385 OA
ATOM     31  H   LIG A   1      -4.082   0.082 128.030  0.00  0.00    +0.210 HD
ENDBRANCH   1  30
BRANCH  14  32
ATOM     32  O   LIG A   1      -4.746   0.147 125.994  0.00  0.00    -0.388 OA
ATOM     33  H   LIG A   1      -5.089  -0.768 125.959  0.00  0.00    +0.210 HD
ENDBRANCH  14  32
BRANCH  21  34
ATOM     34  C   LIG A   1      -8.550  -0.064 123.767  0.00  0.00    +0.227 C 
BRANCH  34  35
ATOM     35  C   LIG A   1      -8.480  -1.587 123.614  0.00  0.00    +0.336 C 
ATOM     36  O   LIG A   1      -7.564  -2.166 123.043  0.00  0.00    -0.248 OA
BRANCH  35  37
ATOM     37  O   LIG A   1      -9.558  -2.176 124.191  0.00  0.00    -0.466 OA
ATOM     38  C   LIG A   1      -9.278  -2.970 125.342  0.00  0.00    +0.280 C 
ENDBRANCH  35  37
ENDBRANCH  34  35
BRANCH  34  39
ATOM     39  O   LIG A   1      -9.856   0.366 124.119  0.00  0.00    -0.380 OA
ATOM     40  H   LIG A   1     -10.471  -0.362 123.896  0.00  0.00    +0.210 HD
ENDBRANCH  34  39
ENDBRANCH  21  34
TORSDOF 7
ENDMDL
MODEL 8
REMARK VINA RESULT:      -7.7      1.558      7.034
REMARK  Name = NuBBE_2010
REMARK  11 active torsions:
REMARK  status: ('A' for Active; 'I' for Inactive)
REMARK    1  A    between atoms: O_1  and  C_2
REMARK    2  A    between atoms: C_4  and  C_5
REMARK    3  A    between atoms: C_6  and  C_12
REMARK    4  A    between atoms: C_21  and  C_42
REMARK    5  A    between atoms: C_22  and  O_41
REMARK    6  A    between atoms: C_29  and  C_40
REMARK    7  A    between atoms: C_30  and  C_32
REMARK    8  A    between atoms: C_32  and  C_34
REMARK    9  A    between atoms: C_32  and  O_38
REMARK   10  A    between atoms: C_34  and  O_36
REMARK   11  A    between atoms: O_36  and  C_37
REMARK                            x       y       z     vdW  Elec       q    Type
REMARK                         _______ _______ _______ _____ _____    ______ ____
ROOT
ATOM      1  C   LIG A   1      -7.452  -1.979 127.940  0.00  0.00    +0.108 C 
ATOM      2  C   LIG A   1      -6.070  -1.810 128.566  0.00  0.00    +0.119 C 
ATOM      3  C   LIG A   1      -6.099  -0.545 129.587  0.00  0.00    +0.042 C 
ATOM      4  C   LIG A   1      -4.648  -0.044 129.765  0.00  0.00    +0.018 C 
ATOM      5  C   LIG A   1      -6.689  -1.063 130.950  0.00  0.00    +0.218 C 
ATOM      6  O   LIG A   1      -5.993  -2.216 131.443  0.00  0.00    -0.456 OA
ATOM      7  C   LIG A   1      -5.924  -3.304 130.661  0.00  0.00    +0.311 C 
ATOM      8  O   LIG A   1      -5.976  -4.438 131.130  0.00  0.00    -0.251 OA
ATOM      9  C   LIG A   1      -5.508  -3.059 129.250  0.00  0.00    +0.159 C 
ATOM     10  C   LIG A   1      -6.989   0.728 129.132  0.00  0.00    +0.014 C 
ATOM     11  C   LIG A   1      -8.304   0.413 128.332  0.00  0.00    +0.008 C 
ATOM     12  C   LIG A   1      -7.908  -0.611 127.294  0.00  0.00    +0.033 C 
ATOM     13  C   LIG A   1      -7.785  -0.658 125.737  0.00  0.00    +0.009 C 
ATOM     14  C   LIG A   1      -8.156  -2.311 125.790  0.00  0.00    +0.081 C 
ATOM     15  C   LIG A   1      -7.190  -2.874 126.761  0.00  0.00    +0.092 C 
ATOM     16  C   LIG A   1      -5.792  -2.549 126.260  0.00  0.00    +0.194 C 
ATOM     17  O   LIG A   1      -5.244  -1.685 127.320  0.00  0.00    -0.358 OA
ATOM     18  C   LIG A   1      -5.797  -2.169 124.611  0.00  0.00    +0.169 C 
ATOM     19  O   LIG A   1      -4.736  -2.105 123.996  0.00  0.00    -0.294 OA
ATOM     20  C   LIG A   1      -7.256  -1.908 123.821  0.00  0.00    +0.038 C 
ATOM     21  C   LIG A   1      -8.251  -0.678 124.282  0.00  0.00    +0.051 C 
ATOM     22  C   LIG A   1      -8.051  -3.003 124.449  0.00  0.00    +0.050 C 
ATOM     23  C   LIG A   1      -7.142  -2.090 122.317  0.00  0.00    +0.019 C 
ATOM     24  C   LIG A   1      -6.450   0.265 125.485  0.00  0.00    +0.015 C 
ENDROOT
BRANCH   5  25
ATOM     25  C   LIG A   1      -6.736  -0.046 132.070  0.00  0.00    +0.031 A 
ATOM     26  C   LIG A   1      -5.675   0.341 132.945  0.00  0.00    +0.048 A 
ATOM     27  C   LIG A   1      -6.184   1.302 133.785  0.00  0.00    +0.195 A 
ATOM     28  O   LIG A   1      -7.475   1.567 133.470  0.00  0.00    -0.471 OA
ATOM     29  C   LIG A   1      -7.799   0.765 132.425  0.00  0.00    +0.202 A 
ENDBRANCH   5  25
BRANCH   1  30
ATOM     30  O   LIG A   1      -8.417  -2.505 128.822  0.00  0.00    -0.385 OA
ATOM     31  H   LIG A   1      -8.754  -1.747 129.344  0.00  0.00    +0.210 HD
ENDBRANCH   1  30
BRANCH  14  32
ATOM     32  O   LIG A   1      -9.499  -2.505 126.277  0.00  0.00    -0.388 OA
ATOM     33  H   LIG A   1      -9.772  -1.701 126.762  0.00  0.00    +0.210 HD
ENDBRANCH  14  32
BRANCH  21  34
ATOM     34  C   LIG A   1      -8.307   0.565 123.339  0.00  0.00    +0.227 C 
BRANCH  34  35
ATOM     35  C   LIG A   1      -9.325   1.590 123.847  0.00  0.00    +0.336 C 
ATOM     36  O   LIG A   1     -10.464   1.298 124.188  0.00  0.00    -0.248 OA
BRANCH  35  37
ATOM     37  O   LIG A   1      -8.784   2.835 123.861  0.00  0.00    -0.466 OA
ATOM     38  C   LIG A   1      -8.504   3.366 125.154  0.00  0.00    +0.280 C 
ENDBRANCH  35  37
ENDBRANCH  34  35
BRANCH  34  39
ATOM     39  O   LIG A   1      -7.050   1.165 123.068  0.00  0.00    -0.380 OA
ATOM     40  H   LIG A   1      -6.930   1.161 122.096  0.00  0.00    +0.210 HD
ENDBRANCH  34  39
ENDBRANCH  21  34
TORSDOF 7
ENDMDL
MODEL 9
REMARK VINA RESULT:      -7.6      3.338      4.868
REMARK  Name = NuBBE_2010
REMARK  11 active torsions:
REMARK  status: ('A' for Active; 'I' for Inactive)
REMARK    1  A    between atoms: O_1  and  C_2
REMARK    2  A    between atoms: C_4  and  C_5
REMARK    3  A    between atoms: C_6  and  C_12
REMARK    4  A    between atoms: C_21  and  C_42
REMARK    5  A    between atoms: C_22  and  O_41
REMARK    6  A    between atoms: C_29  and  C_40
REMARK    7  A    between atoms: C_30  and  C_32
REMARK    8  A    between atoms: C_32  and  C_34
REMARK    9  A    between atoms: C_32  and  O_38
REMARK   10  A    between atoms: C_34  and  O_36
REMARK   11  A    between atoms: O_36  and  C_37
REMARK                            x       y       z     vdW  Elec       q    Type
REMARK                         _______ _______ _______ _____ _____    ______ ____
ROOT
ATOM      1  C   LIG A   1      -5.819   0.475 128.261  0.00  0.00    +0.108 C 
ATOM      2  C   LIG A   1      -7.300   0.164 128.066  0.00  0.00    +0.119 C 
ATOM      3  C   LIG A   1      -7.616   0.053 126.474  0.00  0.00    +0.042 C 
ATOM      4  C   LIG A   1      -9.127   0.303 126.270  0.00  0.00    +0.018 C 
ATOM      5  C   LIG A   1      -7.219  -1.401 126.025  0.00  0.00    +0.218 C 
ATOM      6  O   LIG A   1      -7.840  -2.411 126.830  0.00  0.00    -0.456 OA
ATOM      7  C   LIG A   1      -7.629  -2.391 128.155  0.00  0.00    +0.311 C 
ATOM      8  O   LIG A   1      -7.518  -3.427 128.806  0.00  0.00    -0.251 OA
ATOM      9  C   LIG A   1      -7.813  -1.067 128.817  0.00  0.00    +0.159 C 
ATOM     10  C   LIG A   1      -6.827   1.086 125.510  0.00  0.00    +0.014 C 
ATOM     11  C   LIG A   1      -5.362   1.460 125.934  0.00  0.00    +0.008 C 
ATOM     12  C   LIG A   1      -5.432   1.751 127.414  0.00  0.00    +0.033 C 
ATOM     13  C   LIG A   1      -5.267   3.004 128.332  0.00  0.00    +0.009 C 
ATOM     14  C   LIG A   1      -4.705   1.986 129.566  0.00  0.00    +0.081 C 
ATOM     15  C   LIG A   1      -5.750   0.944 129.688  0.00  0.00    +0.092 C 
ATOM     16  C   LIG A   1      -7.065   1.644 129.988  0.00  0.00    +0.194 C 
ATOM     17  O   LIG A   1      -7.900   1.315 128.819  0.00  0.00    -0.358 OA
ATOM     18  C   LIG A   1      -6.813   3.207 130.585  0.00  0.00    +0.169 C 
ATOM     19  O   LIG A   1      -7.747   3.826 131.089  0.00  0.00    -0.294 OA
ATOM     20  C   LIG A   1      -5.281   3.892 130.506  0.00  0.00    +0.038 C 
ATOM     21  C   LIG A   1      -4.549   4.145 129.051  0.00  0.00    +0.051 C 
ATOM     22  C   LIG A   1      -4.479   2.693 130.884  0.00  0.00    +0.050 C 
ATOM     23  C   LIG A   1      -5.100   5.024 131.502  0.00  0.00    +0.019 C 
ATOM     24  C   LIG A   1      -6.642   3.839 127.999  0.00  0.00    +0.015 C 
ENDROOT
BRANCH   5  25
ATOM     25  C   LIG A   1      -7.503  -1.736 124.576  0.00  0.00    +0.031 A 
ATOM     26  C   LIG A   1      -8.726  -2.215 124.012  0.00  0.00    +0.048 A 
ATOM     27  C   LIG A   1      -8.510  -2.360 122.663  0.00  0.00    +0.195 A 
ATOM     28  O   LIG A   1      -7.253  -1.971 122.342  0.00  0.00    -0.471 OA
ATOM     29  C   LIG A   1      -6.654  -1.580 123.495  0.00  0.00    +0.202 A 
ENDBRANCH   5  25
BRANCH   1  30
ATOM     30  O   LIG A   1      -4.969  -0.620 128.004  0.00  0.00    -0.385 OA
ATOM     31  H   LIG A   1      -5.399  -1.402 128.411  0.00  0.00    +0.210 HD
ENDBRANCH   1  30
BRANCH  14  32
ATOM     32  O   LIG A   1      -3.457   1.376 129.178  0.00  0.00    -0.388 OA
ATOM     33  H   LIG A   1      -3.325   1.524 128.221  0.00  0.00    +0.210 HD
ENDBRANCH  14  32
BRANCH  21  34
ATOM     34  C   LIG A   1      -4.484   5.623 128.551  0.00  0.00    +0.227 C 
BRANCH  34  35
ATOM     35  C   LIG A   1      -3.222   6.319 129.070  0.00  0.00    +0.336 C 
ATOM     36  O   LIG A   1      -2.267   5.717 129.546  0.00  0.00    -0.248 OA
BRANCH  35  37
ATOM     37  O   LIG A   1      -3.323   7.664 128.923  0.00  0.00    -0.466 OA
ATOM     38  C   LIG A   1      -4.120   8.328 129.900  0.00  0.00    +0.280 C 
ENDBRANCH  35  37
ENDBRANCH  34  35
BRANCH  34  39
ATOM     39  O   LIG A   1      -4.633   5.786 127.149  0.00  0.00    -0.380 OA
ATOM     40  H   LIG A   1      -4.488   4.909 126.739  0.00  0.00    +0.210 HD
ENDBRANCH  34  39
ENDBRANCH  21  34
TORSDOF 7
ENDMDL
