MODEL 1
REMARK VINA RESULT:      -5.8      0.000      0.000
REMARK  Name = NuBBE_2131
REMARK  9 active torsions:
REMARK  status: ('A' for Active; 'I' for Inactive)
REMARK    1  A    between atoms: C_1  and  C_2
REMARK    2  A    between atoms: C_2  and  C_3
REMARK    3  A    between atoms: C_3  and  C_4
REMARK    4  A    between atoms: C_4  and  C_5
REMARK    5  A    between atoms: C_5  and  C_6
REMARK    6  A    between atoms: C_6  and  C_7
REMARK    7  A    between atoms: C_7  and  C_8
REMARK    8  A    between atoms: C_8  and  C_9
REMARK    9  A    between atoms: C_9  and  C_10
REMARK                            x       y       z     vdW  Elec       q    Type
REMARK                         _______ _______ _______ _____ _____    ______ ____
ROOT
ATOM      1  C   LIG A   1      -9.303  -3.481 126.929  0.00  0.00    +0.000 C 
ENDROOT
BRANCH   1   2
ATOM      2  C   LIG A   1      -8.470  -3.667 125.658  0.00  0.00    +0.000 C 
BRANCH   2   3
ATOM      3  C   LIG A   1      -8.979  -2.805 124.494  0.00  0.00    -0.000 C 
BRANCH   3   4
ATOM      4  C   LIG A   1      -8.044  -2.700 123.284  0.00  0.00    -0.000 C 
BRANCH   4   5
ATOM      5  C   LIG A   1      -6.760  -1.871 123.423  0.00  0.00    -0.000 C 
BRANCH   5   6
ATOM      6  C   LIG A   1      -5.443  -2.591 123.091  0.00  0.00    -0.000 C 
BRANCH   6   8
ATOM      7  C   LIG A   1      -4.285  -4.825 123.489  0.00  0.00    +0.004 C 
ATOM      8  C   LIG A   1      -5.031  -3.656 124.103  0.00  0.00    -0.003 C 
ENDBRANCH   6   8
ENDBRANCH   5   6
ENDBRANCH   4   5
ENDBRANCH   3   4
ENDBRANCH   2   3
ENDBRANCH   1   2
BRANCH   1   9
ATOM      9  C   LIG A   1      -8.508  -3.894 128.174  0.00  0.00    +0.003 C 
BRANCH   9  10
ATOM     10  C   LIG A   1      -8.081  -2.705 129.064  0.00  0.00    -0.011 C 
ATOM     11  C   LIG A   1      -7.333  -3.186 130.312  0.00  0.00    +0.003 C 
ATOM     12  C   LIG A   1      -5.969  -3.804 129.990  0.00  0.00    +0.000 C 
ATOM     13  C   LIG A   1      -5.105  -2.939 129.072  0.00  0.00    +0.000 C 
ATOM     14  C   LIG A   1      -5.853  -2.260 127.925  0.00  0.00    +0.000 C 
ATOM     15  C   LIG A   1      -7.199  -1.678 128.342  0.00  0.00    +0.003 C 
ENDBRANCH   9  10
ENDBRANCH   1   9
TORSDOF 8
ENDMDL
MODEL 2
REMARK VINA RESULT:      -5.8      1.432      5.203
REMARK  Name = NuBBE_2131
REMARK  9 active torsions:
REMARK  status: ('A' for Active; 'I' for Inactive)
REMARK    1  A    between atoms: C_1  and  C_2
REMARK    2  A    between atoms: C_2  and  C_3
REMARK    3  A    between atoms: C_3  and  C_4
REMARK    4  A    between atoms: C_4  and  C_5
REMARK    5  A    between atoms: C_5  and  C_6
REMARK    6  A    between atoms: C_6  and  C_7
REMARK    7  A    between atoms: C_7  and  C_8
REMARK    8  A    between atoms: C_8  and  C_9
REMARK    9  A    between atoms: C_9  and  C_10
REMARK                            x       y       z     vdW  Elec       q    Type
REMARK                         _______ _______ _______ _____ _____    ______ ____
ROOT
ATOM      1  C   LIG A   1      -8.906  -3.704 127.229  0.00  0.00    +0.000 C 
ENDROOT
BRANCH   1   2
ATOM      2  C   LIG A   1      -8.101  -2.881 128.237  0.00  0.00    +0.000 C 
BRANCH   2   3
ATOM      3  C   LIG A   1      -7.722  -1.496 127.692  0.00  0.00    -0.000 C 
BRANCH   3   4
ATOM      4  C   LIG A   1      -6.220  -1.208 127.587  0.00  0.00    -0.000 C 
BRANCH   4   5
ATOM      5  C   LIG A   1      -5.239  -2.376 127.771  0.00  0.00    -0.000 C 
BRANCH   5   6
ATOM      6  C   LIG A   1      -4.458  -2.409 129.095  0.00  0.00    -0.000 C 
BRANCH   6   8
ATOM      7  C   LIG A   1      -5.481  -4.310 130.447  0.00  0.00    +0.004 C 
ATOM      8  C   LIG A   1      -4.272  -3.804 129.685  0.00  0.00    -0.003 C 
ENDBRANCH   6   8
ENDBRANCH   5   6
ENDBRANCH   4   5
ENDBRANCH   3   4
ENDBRANCH   2   3
ENDBRANCH   1   2
BRANCH   1   9
ATOM      9  C   LIG A   1      -9.098  -2.934 125.917  0.00  0.00    +0.003 C 
BRANCH   9  10
ATOM     10  C   LIG A   1      -8.694  -3.733 124.658  0.00  0.00    -0.011 C 
ATOM     11  C   LIG A   1      -9.400  -3.197 123.409  0.00  0.00    +0.003 C 
ATOM     12  C   LIG A   1      -8.933  -1.792 123.015  0.00  0.00    +0.000 C 
ATOM     13  C   LIG A   1      -7.413  -1.646 122.951  0.00  0.00    +0.000 C 
ATOM     14  C   LIG A   1      -6.644  -2.350 124.069  0.00  0.00    +0.000 C 
ATOM     15  C   LIG A   1      -7.183  -3.739 124.390  0.00  0.00    +0.003 C 
ENDBRANCH   9  10
ENDBRANCH   1   9
TORSDOF 8
ENDMDL
MODEL 3
REMARK VINA RESULT:      -5.5      1.859      5.340
REMARK  Name = NuBBE_2131
REMARK  9 active torsions:
REMARK  status: ('A' for Active; 'I' for Inactive)
REMARK    1  A    between atoms: C_1  and  C_2
REMARK    2  A    between atoms: C_2  and  C_3
REMARK    3  A    between atoms: C_3  and  C_4
REMARK    4  A    between atoms: C_4  and  C_5
REMARK    5  A    between atoms: C_5  and  C_6
REMARK    6  A    between atoms: C_6  and  C_7
REMARK    7  A    between atoms: C_7  and  C_8
REMARK    8  A    between atoms: C_8  and  C_9
REMARK    9  A    between atoms: C_9  and  C_10
REMARK                            x       y       z     vdW  Elec       q    Type
REMARK                         _______ _______ _______ _____ _____    ______ ____
ROOT
ATOM      1  C   LIG A   1      -9.012  -3.743 127.323  0.00  0.00    +0.000 C 
ENDROOT
BRANCH   1   2
ATOM      2  C   LIG A   1      -8.186  -3.088 128.433  0.00  0.00    +0.000 C 
BRANCH   2   3
ATOM      3  C   LIG A   1      -6.859  -2.516 127.915  0.00  0.00    -0.000 C 
BRANCH   3   4
ATOM      4  C   LIG A   1      -6.592  -1.044 128.247  0.00  0.00    -0.000 C 
BRANCH   4   5
ATOM      5  C   LIG A   1      -7.749  -0.043 128.109  0.00  0.00    -0.000 C 
BRANCH   5   6
ATOM      6  C   LIG A   1      -7.573   1.062 127.055  0.00  0.00    -0.000 C 
BRANCH   6   8
ATOM      7  C   LIG A   1      -9.680   0.633 125.688  0.00  0.00    +0.004 C 
ATOM      8  C   LIG A   1      -8.166   0.733 125.688  0.00  0.00    -0.003 C 
ENDBRANCH   6   8
ENDBRANCH   5   6
ENDBRANCH   4   5
ENDBRANCH   3   4
ENDBRANCH   2   3
ENDBRANCH   1   2
BRANCH   1   9
ATOM      9  C   LIG A   1      -8.944  -2.924 126.029  0.00  0.00    +0.003 C 
BRANCH   9  10
ATOM     10  C   LIG A   1      -8.593  -3.760 124.777  0.00  0.00    -0.011 C 
ATOM     11  C   LIG A   1      -9.422  -3.322 123.566  0.00  0.00    +0.003 C 
ATOM     12  C   LIG A   1      -9.067  -1.915 123.076  0.00  0.00    +0.000 C 
ATOM     13  C   LIG A   1      -7.567  -1.692 122.884  0.00  0.00    +0.000 C 
ATOM     14  C   LIG A   1      -6.676  -2.300 123.967  0.00  0.00    +0.000 C 
ATOM     15  C   LIG A   1      -7.109  -3.699 124.391  0.00  0.00    +0.003 C 
ENDBRANCH   9  10
ENDBRANCH   1   9
TORSDOF 8
ENDMDL
MODEL 4
REMARK VINA RESULT:      -5.5      1.387      5.616
REMARK  Name = NuBBE_2131
REMARK  9 active torsions:
REMARK  status: ('A' for Active; 'I' for Inactive)
REMARK    1  A    between atoms: C_1  and  C_2
REMARK    2  A    between atoms: C_2  and  C_3
REMARK    3  A    between atoms: C_3  and  C_4
REMARK    4  A    between atoms: C_4  and  C_5
REMARK    5  A    between atoms: C_5  and  C_6
REMARK    6  A    between atoms: C_6  and  C_7
REMARK    7  A    between atoms: C_7  and  C_8
REMARK    8  A    between atoms: C_8  and  C_9
REMARK    9  A    between atoms: C_9  and  C_10
REMARK                            x       y       z     vdW  Elec       q    Type
REMARK                         _______ _______ _______ _____ _____    ______ ____
ROOT
ATOM      1  C   LIG A   1      -5.681  -1.546 126.207  0.00  0.00    +0.000 C 
ENDROOT
BRANCH   1   2
ATOM      2  C   LIG A   1      -6.372  -1.257 127.542  0.00  0.00    +0.000 C 
BRANCH   2   3
ATOM      3  C   LIG A   1      -7.818  -1.772 127.576  0.00  0.00    -0.000 C 
BRANCH   3   4
ATOM      4  C   LIG A   1      -8.029  -3.123 128.268  0.00  0.00    -0.000 C 
BRANCH   4   5
ATOM      5  C   LIG A   1      -7.630  -3.255 129.745  0.00  0.00    -0.000 C 
BRANCH   5   6
ATOM      6  C   LIG A   1      -6.382  -4.103 130.042  0.00  0.00    -0.000 C 
BRANCH   6   8
ATOM      7  C   LIG A   1      -4.014  -3.560 129.274  0.00  0.00    +0.004 C 
ATOM      8  C   LIG A   1      -5.111  -3.294 130.286  0.00  0.00    -0.003 C 
ENDBRANCH   6   8
ENDBRANCH   5   6
ENDBRANCH   4   5
ENDBRANCH   3   4
ENDBRANCH   2   3
ENDBRANCH   1   2
BRANCH   1   9
ATOM      9  C   LIG A   1      -6.616  -1.255 125.028  0.00  0.00    +0.003 C 
BRANCH   9  10
ATOM     10  C   LIG A   1      -6.507  -2.279 123.876  0.00  0.00    -0.011 C 
ATOM     11  C   LIG A   1      -6.970  -3.670 124.324  0.00  0.00    +0.003 C 
ATOM     12  C   LIG A   1      -8.471  -3.733 124.620  0.00  0.00    +0.000 C 
ATOM     13  C   LIG A   1      -9.341  -3.144 123.510  0.00  0.00    +0.000 C 
ATOM     14  C   LIG A   1      -8.807  -1.858 122.880  0.00  0.00    +0.000 C 
ATOM     15  C   LIG A   1      -7.305  -1.888 122.625  0.00  0.00    +0.003 C 
ENDBRANCH   9  10
ENDBRANCH   1   9
TORSDOF 8
ENDMDL
MODEL 5
REMARK VINA RESULT:      -5.4      9.610     12.239
REMARK  Name = NuBBE_2131
REMARK  9 active torsions:
REMARK  status: ('A' for Active; 'I' for Inactive)
REMARK    1  A    between atoms: C_1  and  C_2
REMARK    2  A    between atoms: C_2  and  C_3
REMARK    3  A    between atoms: C_3  and  C_4
REMARK    4  A    between atoms: C_4  and  C_5
REMARK    5  A    between atoms: C_5  and  C_6
REMARK    6  A    between atoms: C_6  and  C_7
REMARK    7  A    between atoms: C_7  and  C_8
REMARK    8  A    between atoms: C_8  and  C_9
REMARK    9  A    between atoms: C_9  and  C_10
REMARK                            x       y       z     vdW  Elec       q    Type
REMARK                         _______ _______ _______ _____ _____    ______ ____
ROOT
ATOM      1  C   LIG A   1      -9.558   7.108 130.237  0.00  0.00    +0.000 C 
ENDROOT
BRANCH   1   2
ATOM      2  C   LIG A   1      -9.561   5.815 131.055  0.00  0.00    +0.000 C 
BRANCH   2   3
ATOM      3  C   LIG A   1      -9.712   6.075 132.560  0.00  0.00    -0.000 C 
BRANCH   3   4
ATOM      4  C   LIG A   1      -8.453   5.849 133.406  0.00  0.00    -0.000 C 
BRANCH   4   5
ATOM      5  C   LIG A   1      -8.351   4.558 134.232  0.00  0.00    -0.000 C 
BRANCH   5   6
ATOM      6  C   LIG A   1      -9.310   3.421 133.843  0.00  0.00    -0.000 C 
BRANCH   6   8
ATOM      7  C   LIG A   1      -9.782   1.745 131.984  0.00  0.00    +0.004 C 
ATOM      8  C   LIG A   1      -8.734   2.419 132.847  0.00  0.00    -0.003 C 
ENDBRANCH   6   8
ENDBRANCH   5   6
ENDBRANCH   4   5
ENDBRANCH   3   4
ENDBRANCH   2   3
ENDBRANCH   1   2
BRANCH   1   9
ATOM      9  C   LIG A   1     -10.648   7.081 129.159  0.00  0.00    +0.003 C 
BRANCH   9  10
ATOM     10  C   LIG A   1     -12.077   6.907 129.720  0.00  0.00    -0.011 C 
ATOM     11  C   LIG A   1     -12.549   8.173 130.443  0.00  0.00    +0.003 C 
ATOM     12  C   LIG A   1     -12.758   9.359 129.496  0.00  0.00    +0.000 C 
ATOM     13  C   LIG A   1     -13.604   9.022 128.268  0.00  0.00    +0.000 C 
ATOM     14  C   LIG A   1     -13.314   7.663 127.632  0.00  0.00    +0.000 C 
ATOM     15  C   LIG A   1     -13.119   6.547 128.652  0.00  0.00    +0.003 C 
ENDBRANCH   9  10
ENDBRANCH   1   9
TORSDOF 8
ENDMDL
MODEL 6
REMARK VINA RESULT:      -5.4      1.543      6.278
REMARK  Name = NuBBE_2131
REMARK  9 active torsions:
REMARK  status: ('A' for Active; 'I' for Inactive)
REMARK    1  A    between atoms: C_1  and  C_2
REMARK    2  A    between atoms: C_2  and  C_3
REMARK    3  A    between atoms: C_3  and  C_4
REMARK    4  A    between atoms: C_4  and  C_5
REMARK    5  A    between atoms: C_5  and  C_6
REMARK    6  A    between atoms: C_6  and  C_7
REMARK    7  A    between atoms: C_7  and  C_8
REMARK    8  A    between atoms: C_8  and  C_9
REMARK    9  A    between atoms: C_9  and  C_10
REMARK                            x       y       z     vdW  Elec       q    Type
REMARK                         _______ _______ _______ _____ _____    ______ ____
ROOT
ATOM      1  C   LIG A   1      -7.968  -2.675 127.092  0.00  0.00    +0.000 C 
ENDROOT
BRANCH   1   2
ATOM      2  C   LIG A   1      -8.279  -3.705 128.180  0.00  0.00    +0.000 C 
BRANCH   2   3
ATOM      3  C   LIG A   1      -8.427  -3.063 129.567  0.00  0.00    -0.000 C 
BRANCH   3   4
ATOM      4  C   LIG A   1      -7.175  -3.091 130.451  0.00  0.00    -0.000 C 
BRANCH   4   5
ATOM      5  C   LIG A   1      -5.972  -3.925 129.988  0.00  0.00    -0.000 C 
BRANCH   5   6
ATOM      6  C   LIG A   1      -5.631  -5.160 130.837  0.00  0.00    -0.000 C 
BRANCH   6   8
ATOM      7  C   LIG A   1      -5.821  -5.113 133.377  0.00  0.00    +0.004 C 
ATOM      8  C   LIG A   1      -4.949  -4.846 132.165  0.00  0.00    -0.003 C 
ENDBRANCH   6   8
ENDBRANCH   5   6
ENDBRANCH   4   5
ENDBRANCH   3   4
ENDBRANCH   2   3
ENDBRANCH   1   2
BRANCH   1   9
ATOM      9  C   LIG A   1      -9.020  -2.716 125.977  0.00  0.00    +0.003 C 
BRANCH   9  10
ATOM     10  C   LIG A   1      -8.668  -3.678 124.821  0.00  0.00    -0.011 C 
ATOM     11  C   LIG A   1      -9.484  -3.359 123.564  0.00  0.00    +0.003 C 
ATOM     12  C   LIG A   1      -9.112  -2.013 122.936  0.00  0.00    +0.000 C 
ATOM     13  C   LIG A   1      -7.608  -1.824 122.735  0.00  0.00    +0.000 C 
ATOM     14  C   LIG A   1      -6.732  -2.326 123.882  0.00  0.00    +0.000 C 
ATOM     15  C   LIG A   1      -7.181  -3.671 124.442  0.00  0.00    +0.003 C 
ENDBRANCH   9  10
ENDBRANCH   1   9
TORSDOF 8
ENDMDL
MODEL 7
REMARK VINA RESULT:      -5.1      1.775      5.249
REMARK  Name = NuBBE_2131
REMARK  9 active torsions:
REMARK  status: ('A' for Active; 'I' for Inactive)
REMARK    1  A    between atoms: C_1  and  C_2
REMARK    2  A    between atoms: C_2  and  C_3
REMARK    3  A    between atoms: C_3  and  C_4
REMARK    4  A    between atoms: C_4  and  C_5
REMARK    5  A    between atoms: C_5  and  C_6
REMARK    6  A    between atoms: C_6  and  C_7
REMARK    7  A    between atoms: C_7  and  C_8
REMARK    8  A    between atoms: C_8  and  C_9
REMARK    9  A    between atoms: C_9  and  C_10
REMARK                            x       y       z     vdW  Elec       q    Type
REMARK                         _______ _______ _______ _____ _____    ______ ____
ROOT
ATOM      1  C   LIG A   1      -8.804   0.337 125.628  0.00  0.00    +0.000 C 
ENDROOT
BRANCH   1   2
ATOM      2  C   LIG A   1      -8.296   0.642 127.039  0.00  0.00    +0.000 C 
BRANCH   2   3
ATOM      3  C   LIG A   1      -6.809   1.023 127.055  0.00  0.00    -0.000 C 
BRANCH   3   4
ATOM      4  C   LIG A   1      -5.821  -0.146 127.120  0.00  0.00    -0.000 C 
BRANCH   4   5
ATOM      5  C   LIG A   1      -5.962  -1.158 128.267  0.00  0.00    -0.000 C 
BRANCH   5   6
ATOM      6  C   LIG A   1      -6.614  -2.504 127.913  0.00  0.00    -0.000 C 
BRANCH   6   8
ATOM      7  C   LIG A   1      -8.814  -3.785 128.017  0.00  0.00    +0.004 C 
ATOM      8  C   LIG A   1      -7.867  -2.832 128.721  0.00  0.00    -0.003 C 
ENDBRANCH   6   8
ENDBRANCH   5   6
ENDBRANCH   4   5
ENDBRANCH   3   4
ENDBRANCH   2   3
ENDBRANCH   1   2
BRANCH   1   9
ATOM      9  C   LIG A   1      -8.999  -1.171 125.426  0.00  0.00    +0.003 C 
BRANCH   9  10
ATOM     10  C   LIG A   1      -8.795  -1.637 123.967  0.00  0.00    -0.011 C 
ATOM     11  C   LIG A   1      -7.452  -1.154 123.411  0.00  0.00    +0.003 C 
ATOM     12  C   LIG A   1      -6.250  -1.818 124.091  0.00  0.00    +0.000 C 
ATOM     13  C   LIG A   1      -6.352  -3.341 124.166  0.00  0.00    +0.000 C 
ATOM     14  C   LIG A   1      -7.739  -3.883 124.513  0.00  0.00    +0.000 C 
ATOM     15  C   LIG A   1      -8.869  -3.159 123.789  0.00  0.00    +0.003 C 
ENDBRANCH   9  10
ENDBRANCH   1   9
TORSDOF 8
ENDMDL
MODEL 8
REMARK VINA RESULT:      -5.1     10.487     12.011
REMARK  Name = NuBBE_2131
REMARK  9 active torsions:
REMARK  status: ('A' for Active; 'I' for Inactive)
REMARK    1  A    between atoms: C_1  and  C_2
REMARK    2  A    between atoms: C_2  and  C_3
REMARK    3  A    between atoms: C_3  and  C_4
REMARK    4  A    between atoms: C_4  and  C_5
REMARK    5  A    between atoms: C_5  and  C_6
REMARK    6  A    between atoms: C_6  and  C_7
REMARK    7  A    between atoms: C_7  and  C_8
REMARK    8  A    between atoms: C_8  and  C_9
REMARK    9  A    between atoms: C_9  and  C_10
REMARK                            x       y       z     vdW  Elec       q    Type
REMARK                         _______ _______ _______ _____ _____    ______ ____
ROOT
ATOM      1  C   LIG A   1      -9.345   7.256 130.220  0.00  0.00    +0.000 C 
ENDROOT
BRANCH   1   2
ATOM      2  C   LIG A   1      -8.781   6.065 130.998  0.00  0.00    +0.000 C 
BRANCH   2   3
ATOM      3  C   LIG A   1      -7.522   6.430 131.797  0.00  0.00    -0.000 C 
BRANCH   3   4
ATOM      4  C   LIG A   1      -6.287   6.796 130.965  0.00  0.00    -0.000 C 
BRANCH   4   5
ATOM      5  C   LIG A   1      -4.909   6.729 131.638  0.00  0.00    -0.000 C 
BRANCH   5   6
ATOM      6  C   LIG A   1      -3.710   6.463 130.713  0.00  0.00    -0.000 C 
BRANCH   6   8
ATOM      7  C   LIG A   1      -2.756   7.007 128.415  0.00  0.00    +0.004 C 
ATOM      8  C   LIG A   1      -3.496   7.521 129.634  0.00  0.00    -0.003 C 
ENDBRANCH   6   8
ENDBRANCH   5   6
ENDBRANCH   4   5
ENDBRANCH   3   4
ENDBRANCH   2   3
ENDBRANCH   1   2
BRANCH   1   9
ATOM      9  C   LIG A   1     -10.855   7.106 130.001  0.00  0.00    +0.003 C 
BRANCH   9  10
ATOM     10  C   LIG A   1     -11.498   8.292 129.247  0.00  0.00    -0.011 C 
ATOM     11  C   LIG A   1     -10.826   8.517 127.888  0.00  0.00    +0.003 C 
ATOM     12  C   LIG A   1     -11.085   7.377 126.898  0.00  0.00    +0.000 C 
ATOM     13  C   LIG A   1     -12.559   6.991 126.779  0.00  0.00    +0.000 C 
ATOM     14  C   LIG A   1     -13.332   6.960 128.097  0.00  0.00    +0.000 C 
ATOM     15  C   LIG A   1     -13.006   8.132 129.016  0.00  0.00    +0.003 C 
ENDBRANCH   9  10
ENDBRANCH   1   9
TORSDOF 8
ENDMDL
MODEL 9
REMARK VINA RESULT:      -5.1      3.094      5.568
REMARK  Name = NuBBE_2131
REMARK  9 active torsions:
REMARK  status: ('A' for Active; 'I' for Inactive)
REMARK    1  A    between atoms: C_1  and  C_2
REMARK    2  A    between atoms: C_2  and  C_3
REMARK    3  A    between atoms: C_3  and  C_4
REMARK    4  A    between atoms: C_4  and  C_5
REMARK    5  A    between atoms: C_5  and  C_6
REMARK    6  A    between atoms: C_6  and  C_7
REMARK    7  A    between atoms: C_7  and  C_8
REMARK    8  A    between atoms: C_8  and  C_9
REMARK    9  A    between atoms: C_9  and  C_10
REMARK                            x       y       z     vdW  Elec       q    Type
REMARK                         _______ _______ _______ _____ _____    ______ ____
ROOT
ATOM      1  C   LIG A   1      -5.878  -0.093 126.028  0.00  0.00    +0.000 C 
ENDROOT
BRANCH   1   2
ATOM      2  C   LIG A   1      -5.687  -1.436 125.318  0.00  0.00    +0.000 C 
BRANCH   2   3
ATOM      3  C   LIG A   1      -6.824  -1.743 124.333  0.00  0.00    -0.000 C 
BRANCH   3   4
ATOM      4  C   LIG A   1      -7.304  -3.199 124.303  0.00  0.00    -0.000 C 
BRANCH   4   5
ATOM      5  C   LIG A   1      -8.800  -3.478 124.511  0.00  0.00    -0.000 C 
BRANCH   5   6
ATOM      6  C   LIG A   1      -9.409  -2.984 125.833  0.00  0.00    -0.000 C 
BRANCH   6   8
ATOM      7  C   LIG A   1      -8.069  -2.634 127.972  0.00  0.00    +0.004 C 
ATOM      8  C   LIG A   1      -8.806  -3.618 127.084  0.00  0.00    -0.003 C 
ENDBRANCH   6   8
ENDBRANCH   5   6
ENDBRANCH   4   5
ENDBRANCH   3   4
ENDBRANCH   2   3
ENDBRANCH   1   2
BRANCH   1   9
ATOM      9  C   LIG A   1      -6.547   0.929 125.102  0.00  0.00    +0.003 C 
BRANCH   9  10
ATOM     10  C   LIG A   1      -7.513   1.892 125.830  0.00  0.00    -0.011 C 
ATOM     11  C   LIG A   1      -8.099   2.926 124.863  0.00  0.00    +0.003 C 
ATOM     12  C   LIG A   1      -9.043   2.308 123.827  0.00  0.00    +0.000 C 
ATOM     13  C   LIG A   1     -10.103   1.389 124.434  0.00  0.00    +0.000 C 
ATOM     14  C   LIG A   1      -9.608   0.480 125.558  0.00  0.00    +0.000 C 
ATOM     15  C   LIG A   1      -8.675   1.183 126.537  0.00  0.00    +0.003 C 
ENDBRANCH   9  10
ENDBRANCH   1   9
TORSDOF 8
ENDMDL
