MODEL 1
REMARK VINA RESULT:      -7.1      0.000      0.000
REMARK  Name = NuBBE_1541
REMARK  3 active torsions:
REMARK  status: ('A' for Active; 'I' for Inactive)
REMARK    1  A    between atoms: C_1  and  C_2
REMARK    2  A    between atoms: C_2  and  C_3
REMARK    3  A    between atoms: C_16  and  C_18
REMARK                            x       y       z     vdW  Elec       q    Type
REMARK                         _______ _______ _______ _____ _____    ______ ____
ROOT
ATOM      1  C   LIG A   1      -7.228  -3.388 124.375  0.00  0.00    +0.011 C 
ATOM      2  C   LIG A   1      -8.651  -2.984 124.713  0.00  0.00    -0.028 C 
ATOM      3  C   LIG A   1      -9.584  -3.418 123.602  0.00  0.00    +0.011 C 
ATOM      4  C   LIG A   1      -8.767  -1.708 125.580  0.00  0.00    +0.002 C 
ATOM      5  C   LIG A   1      -9.406  -2.978 126.062  0.00  0.00    -0.001 C 
ATOM      6  C   LIG A   1      -9.017  -3.955 127.121  0.00  0.00    +0.009 C 
ATOM      7  C   LIG A   1      -8.599  -3.393 128.479  0.00  0.00    +0.031 C 
ATOM      8  C   LIG A   1      -7.386  -2.478 128.560  0.00  0.00    -0.073 C 
ATOM      9  C   LIG A   1      -6.911  -2.173 129.762  0.00  0.00    +0.008 C 
ATOM     10  C   LIG A   1      -6.786  -2.025 127.234  0.00  0.00    +0.018 C 
ATOM     11  C   LIG A   1      -7.706  -1.056 126.449  0.00  0.00    +0.003 C 
ATOM     12  C   LIG A   1      -6.789  -0.033 125.726  0.00  0.00    -0.010 C 
ATOM     13  C   LIG A   1      -6.929   0.140 124.209  0.00  0.00    +0.008 C 
ATOM     14  C   LIG A   1      -5.351  -0.357 126.134  0.00  0.00    +0.004 C 
ATOM     15  C   LIG A   1      -5.395  -1.387 127.251  0.00  0.00    +0.008 C 
ENDROOT
TORSDOF 0
ENDMDL
MODEL 2
REMARK VINA RESULT:      -6.7      1.143      3.707
REMARK  Name = NuBBE_1541
REMARK  3 active torsions:
REMARK  status: ('A' for Active; 'I' for Inactive)
REMARK    1  A    between atoms: C_1  and  C_2
REMARK    2  A    between atoms: C_2  and  C_3
REMARK    3  A    between atoms: C_16  and  C_18
REMARK                            x       y       z     vdW  Elec       q    Type
REMARK                         _______ _______ _______ _____ _____    ______ ____
ROOT
ATOM      1  C   LIG A   1      -7.409   0.464 125.371  0.00  0.00    +0.011 C 
ATOM      2  C   LIG A   1      -6.158  -0.021 126.078  0.00  0.00    -0.028 C 
ATOM      3  C   LIG A   1      -5.127   1.087 126.114  0.00  0.00    +0.011 C 
ATOM      4  C   LIG A   1      -5.889  -1.538 125.935  0.00  0.00    +0.002 C 
ATOM      5  C   LIG A   1      -5.987  -0.942 127.308  0.00  0.00    -0.001 C 
ATOM      6  C   LIG A   1      -7.060  -0.984 128.344  0.00  0.00    +0.009 C 
ATOM      7  C   LIG A   1      -7.689  -2.342 128.652  0.00  0.00    +0.031 C 
ATOM      8  C   LIG A   1      -8.416  -3.089 127.544  0.00  0.00    -0.073 C 
ATOM      9  C   LIG A   1      -9.135  -4.156 127.875  0.00  0.00    +0.008 C 
ATOM     10  C   LIG A   1      -8.292  -2.512 126.139  0.00  0.00    +0.018 C 
ATOM     11  C   LIG A   1      -6.863  -2.640 125.552  0.00  0.00    +0.003 C 
ATOM     12  C   LIG A   1      -7.011  -2.899 124.030  0.00  0.00    -0.010 C 
ATOM     13  C   LIG A   1      -6.289  -1.967 123.048  0.00  0.00    +0.008 C 
ATOM     14  C   LIG A   1      -8.510  -2.988 123.735  0.00  0.00    +0.004 C 
ATOM     15  C   LIG A   1      -9.252  -3.020 125.061  0.00  0.00    +0.008 C 
ENDROOT
TORSDOF 0
ENDMDL
MODEL 3
REMARK VINA RESULT:      -6.6      2.193      4.088
REMARK  Name = NuBBE_1541
REMARK  3 active torsions:
REMARK  status: ('A' for Active; 'I' for Inactive)
REMARK    1  A    between atoms: C_1  and  C_2
REMARK    2  A    between atoms: C_2  and  C_3
REMARK    3  A    between atoms: C_16  and  C_18
REMARK                            x       y       z     vdW  Elec       q    Type
REMARK                         _______ _______ _______ _____ _____    ______ ____
ROOT
ATOM      1  C   LIG A   1      -8.887  -2.427 125.256  0.00  0.00    +0.011 C 
ATOM      2  C   LIG A   1      -8.962  -2.407 123.741  0.00  0.00    -0.028 C 
ATOM      3  C   LIG A   1      -9.871  -3.517 123.259  0.00  0.00    +0.011 C 
ATOM      4  C   LIG A   1      -7.687  -1.878 123.043  0.00  0.00    +0.002 C 
ATOM      5  C   LIG A   1      -9.004  -1.222 122.749  0.00  0.00    -0.001 C 
ATOM      6  C   LIG A   1      -9.595   0.077 123.186  0.00  0.00    +0.009 C 
ATOM      7  C   LIG A   1      -8.711   1.319 123.099  0.00  0.00    +0.031 C 
ATOM      8  C   LIG A   1      -7.426   1.370 123.913  0.00  0.00    -0.073 C 
ATOM      9  C   LIG A   1      -6.782   2.530 123.993  0.00  0.00    +0.008 C 
ATOM     10  C   LIG A   1      -7.011   0.082 124.613  0.00  0.00    +0.018 C 
ATOM     11  C   LIG A   1      -6.570  -1.031 123.628  0.00  0.00    +0.003 C 
ATOM     12  C   LIG A   1      -5.422  -1.821 124.309  0.00  0.00    -0.010 C 
ATOM     13  C   LIG A   1      -5.557  -3.342 124.456  0.00  0.00    +0.008 C 
ATOM     14  C   LIG A   1      -5.146  -1.141 125.652  0.00  0.00    +0.004 C 
ATOM     15  C   LIG A   1      -5.930   0.161 125.693  0.00  0.00    +0.008 C 
ENDROOT
TORSDOF 0
ENDMDL
MODEL 4
REMARK VINA RESULT:      -6.3      1.544      5.043
REMARK  Name = NuBBE_1541
REMARK  3 active torsions:
REMARK  status: ('A' for Active; 'I' for Inactive)
REMARK    1  A    between atoms: C_1  and  C_2
REMARK    2  A    between atoms: C_2  and  C_3
REMARK    3  A    between atoms: C_16  and  C_18
REMARK                            x       y       z     vdW  Elec       q    Type
REMARK                         _______ _______ _______ _____ _____    ______ ____
ROOT
ATOM      1  C   LIG A   1      -5.933  -1.787 125.375  0.00  0.00    +0.011 C 
ATOM      2  C   LIG A   1      -6.501  -0.747 126.323  0.00  0.00    -0.028 C 
ATOM      3  C   LIG A   1      -5.522  -0.491 127.449  0.00  0.00    +0.011 C 
ATOM      4  C   LIG A   1      -8.045  -0.736 126.411  0.00  0.00    +0.002 C 
ATOM      5  C   LIG A   1      -7.327   0.530 126.042  0.00  0.00    -0.001 C 
ATOM      6  C   LIG A   1      -7.156   1.240 124.742  0.00  0.00    +0.009 C 
ATOM      7  C   LIG A   1      -8.398   1.437 123.876  0.00  0.00    +0.031 C 
ATOM      8  C   LIG A   1      -9.147   0.213 123.367  0.00  0.00    -0.073 C 
ATOM      9  C   LIG A   1     -10.090   0.393 122.449  0.00  0.00    +0.008 C 
ATOM     10  C   LIG A   1      -8.709  -1.134 123.928  0.00  0.00    +0.018 C 
ATOM     11  C   LIG A   1      -9.053  -1.309 125.429  0.00  0.00    +0.003 C 
ATOM     12  C   LIG A   1      -9.421  -2.801 125.648  0.00  0.00    -0.010 C 
ATOM     13  C   LIG A   1      -8.667  -3.598 126.719  0.00  0.00    +0.008 C 
ATOM     14  C   LIG A   1      -9.358  -3.481 124.279  0.00  0.00    +0.004 C 
ATOM     15  C   LIG A   1      -9.190  -2.403 123.221  0.00  0.00    +0.008 C 
ENDROOT
TORSDOF 0
ENDMDL
MODEL 5
REMARK VINA RESULT:      -6.1      3.318      5.821
REMARK  Name = NuBBE_1541
REMARK  3 active torsions:
REMARK  status: ('A' for Active; 'I' for Inactive)
REMARK    1  A    between atoms: C_1  and  C_2
REMARK    2  A    between atoms: C_2  and  C_3
REMARK    3  A    between atoms: C_16  and  C_18
REMARK                            x       y       z     vdW  Elec       q    Type
REMARK                         _______ _______ _______ _____ _____    ______ ____
ROOT
ATOM      1  C   LIG A   1      -4.368  -1.843 130.412  0.00  0.00    +0.011 C 
ATOM      2  C   LIG A   1      -4.579  -3.303 130.059  0.00  0.00    -0.028 C 
ATOM      3  C   LIG A   1      -3.477  -3.770 129.132  0.00  0.00    +0.011 C 
ATOM      4  C   LIG A   1      -6.059  -3.752 130.046  0.00  0.00    +0.002 C 
ATOM      5  C   LIG A   1      -5.083  -4.486 130.918  0.00  0.00    -0.001 C 
ATOM      6  C   LIG A   1      -4.849  -4.471 132.392  0.00  0.00    +0.009 C 
ATOM      7  C   LIG A   1      -6.072  -4.577 133.300  0.00  0.00    +0.031 C 
ATOM      8  C   LIG A   1      -7.141  -3.495 133.231  0.00  0.00    -0.073 C 
ATOM      9  C   LIG A   1      -8.083  -3.485 134.167  0.00  0.00    +0.008 C 
ATOM     10  C   LIG A   1      -7.006  -2.477 132.105  0.00  0.00    +0.018 C 
ATOM     11  C   LIG A   1      -7.256  -3.085 130.701  0.00  0.00    +0.003 C 
ATOM     12  C   LIG A   1      -7.964  -1.999 129.848  0.00  0.00    -0.010 C 
ATOM     13  C   LIG A   1      -7.345  -1.597 128.503  0.00  0.00    +0.008 C 
ATOM     14  C   LIG A   1      -8.186  -0.790 130.758  0.00  0.00    +0.004 C 
ATOM     15  C   LIG A   1      -7.845  -1.199 132.181  0.00  0.00    +0.008 C 
ENDROOT
TORSDOF 0
ENDMDL
MODEL 6
REMARK VINA RESULT:      -6.0      1.402      3.782
REMARK  Name = NuBBE_1541
REMARK  3 active torsions:
REMARK  status: ('A' for Active; 'I' for Inactive)
REMARK    1  A    between atoms: C_1  and  C_2
REMARK    2  A    between atoms: C_2  and  C_3
REMARK    3  A    between atoms: C_16  and  C_18
REMARK                            x       y       z     vdW  Elec       q    Type
REMARK                         _______ _______ _______ _____ _____    ______ ____
ROOT
ATOM      1  C   LIG A   1      -9.305   0.560 124.153  0.00  0.00    +0.011 C 
ATOM      2  C   LIG A   1      -7.823   0.803 124.371  0.00  0.00    -0.028 C 
ATOM      3  C   LIG A   1      -7.401   2.069 123.656  0.00  0.00    +0.011 C 
ATOM      4  C   LIG A   1      -6.984  -0.482 124.561  0.00  0.00    +0.002 C 
ATOM      5  C   LIG A   1      -6.937   0.581 125.619  0.00  0.00    -0.001 C 
ATOM      6  C   LIG A   1      -7.551   0.672 126.976  0.00  0.00    +0.009 C 
ATOM      7  C   LIG A   1      -7.424  -0.546 127.889  0.00  0.00    +0.031 C 
ATOM      8  C   LIG A   1      -8.041  -1.867 127.450  0.00  0.00    -0.073 C 
ATOM      9  C   LIG A   1      -8.110  -2.851 128.339  0.00  0.00    +0.008 C 
ATOM     10  C   LIG A   1      -8.576  -1.928 126.025  0.00  0.00    +0.018 C 
ATOM     11  C   LIG A   1      -7.458  -1.872 124.953  0.00  0.00    +0.003 C 
ATOM     12  C   LIG A   1      -7.902  -2.780 123.775  0.00  0.00    -0.010 C 
ATOM     13  C   LIG A   1      -7.956  -2.185 122.363  0.00  0.00    +0.008 C 
ATOM     14  C   LIG A   1      -9.235  -3.414 124.178  0.00  0.00    +0.004 C 
ATOM     15  C   LIG A   1      -9.487  -3.097 125.643  0.00  0.00    +0.008 C 
ENDROOT
TORSDOF 0
ENDMDL
MODEL 7
REMARK VINA RESULT:      -5.8      1.436      4.258
REMARK  Name = NuBBE_1541
REMARK  3 active torsions:
REMARK  status: ('A' for Active; 'I' for Inactive)
REMARK    1  A    between atoms: C_1  and  C_2
REMARK    2  A    between atoms: C_2  and  C_3
REMARK    3  A    between atoms: C_16  and  C_18
REMARK                            x       y       z     vdW  Elec       q    Type
REMARK                         _______ _______ _______ _____ _____    ______ ____
ROOT
ATOM      1  C   LIG A   1      -8.053  -1.152 130.569  0.00  0.00    +0.011 C 
ATOM      2  C   LIG A   1      -7.309  -2.457 130.364  0.00  0.00    -0.028 C 
ATOM      3  C   LIG A   1      -6.990  -3.082 131.706  0.00  0.00    +0.011 C 
ATOM      4  C   LIG A   1      -6.439  -2.505 129.085  0.00  0.00    +0.002 C 
ATOM      5  C   LIG A   1      -7.483  -3.562 129.296  0.00  0.00    -0.001 C 
ATOM      6  C   LIG A   1      -8.826  -3.779 128.682  0.00  0.00    +0.009 C 
ATOM      7  C   LIG A   1      -8.932  -3.671 127.163  0.00  0.00    +0.031 C 
ATOM      8  C   LIG A   1      -8.588  -2.350 126.490  0.00  0.00    -0.073 C 
ATOM      9  C   LIG A   1      -8.888  -2.206 125.204  0.00  0.00    +0.008 C 
ATOM     10  C   LIG A   1      -7.966  -1.277 127.375  0.00  0.00    +0.018 C 
ATOM     11  C   LIG A   1      -6.532  -1.633 127.845  0.00  0.00    +0.003 C 
ATOM     12  C   LIG A   1      -5.723  -0.310 127.900  0.00  0.00    -0.010 C 
ATOM     13  C   LIG A   1      -5.019   0.073 129.208  0.00  0.00    +0.008 C 
ATOM     14  C   LIG A   1      -6.650   0.802 127.405  0.00  0.00    +0.004 C 
ATOM     15  C   LIG A   1      -7.905   0.156 126.841  0.00  0.00    +0.008 C 
ENDROOT
TORSDOF 0
ENDMDL
MODEL 8
REMARK VINA RESULT:      -5.8      1.100      3.855
REMARK  Name = NuBBE_1541
REMARK  3 active torsions:
REMARK  status: ('A' for Active; 'I' for Inactive)
REMARK    1  A    between atoms: C_1  and  C_2
REMARK    2  A    between atoms: C_2  and  C_3
REMARK    3  A    between atoms: C_16  and  C_18
REMARK                            x       y       z     vdW  Elec       q    Type
REMARK                         _______ _______ _______ _____ _____    ______ ____
ROOT
ATOM      1  C   LIG A   1      -7.623   0.021 128.761  0.00  0.00    +0.011 C 
ATOM      2  C   LIG A   1      -6.773  -1.220 128.955  0.00  0.00    -0.028 C 
ATOM      3  C   LIG A   1      -6.112  -1.180 130.317  0.00  0.00    +0.011 C 
ATOM      4  C   LIG A   1      -6.180  -1.801 127.650  0.00  0.00    +0.002 C 
ATOM      5  C   LIG A   1      -7.015  -2.686 128.529  0.00  0.00    -0.001 C 
ATOM      6  C   LIG A   1      -8.414  -3.189 128.403  0.00  0.00    +0.009 C 
ATOM      7  C   LIG A   1      -8.838  -3.763 127.053  0.00  0.00    +0.031 C 
ATOM      8  C   LIG A   1      -8.810  -2.865 125.824  0.00  0.00    -0.073 C 
ATOM      9  C   LIG A   1      -9.378  -3.311 124.710  0.00  0.00    +0.008 C 
ATOM     10  C   LIG A   1      -8.166  -1.495 125.998  0.00  0.00    +0.018 C 
ATOM     11  C   LIG A   1      -6.633  -1.567 126.219  0.00  0.00    +0.003 C 
ATOM     12  C   LIG A   1      -6.007  -0.333 125.516  0.00  0.00    -0.010 C 
ATOM     13  C   LIG A   1      -5.110   0.606 126.332  0.00  0.00    +0.008 C 
ATOM     14  C   LIG A   1      -7.151   0.420 124.834  0.00  0.00    +0.004 C 
ATOM     15  C   LIG A   1      -8.400  -0.443 124.912  0.00  0.00    +0.008 C 
ENDROOT
TORSDOF 0
ENDMDL
MODEL 9
REMARK VINA RESULT:      -5.7      4.050      6.482
REMARK  Name = NuBBE_1541
REMARK  3 active torsions:
REMARK  status: ('A' for Active; 'I' for Inactive)
REMARK    1  A    between atoms: C_1  and  C_2
REMARK    2  A    between atoms: C_2  and  C_3
REMARK    3  A    between atoms: C_16  and  C_18
REMARK                            x       y       z     vdW  Elec       q    Type
REMARK                         _______ _______ _______ _____ _____    ______ ____
ROOT
ATOM      1  C   LIG A   1      -7.523   4.571 125.094  0.00  0.00    +0.011 C 
ATOM      2  C   LIG A   1      -6.763   3.341 125.555  0.00  0.00    -0.028 C 
ATOM      3  C   LIG A   1      -5.908   3.688 126.755  0.00  0.00    +0.011 C 
ATOM      4  C   LIG A   1      -6.422   2.338 124.428  0.00  0.00    +0.002 C 
ATOM      5  C   LIG A   1      -7.191   1.857 125.624  0.00  0.00    -0.001 C 
ATOM      6  C   LIG A   1      -8.632   1.520 125.818  0.00  0.00    +0.009 C 
ATOM      7  C   LIG A   1      -9.298   0.639 124.764  0.00  0.00    +0.031 C 
ATOM      8  C   LIG A   1      -9.374   1.134 123.327  0.00  0.00    -0.073 C 
ATOM      9  C   LIG A   1     -10.138   0.461 122.472  0.00  0.00    +0.008 C 
ATOM     10  C   LIG A   1      -8.596   2.403 123.002  0.00  0.00    +0.018 C 
ATOM     11  C   LIG A   1      -7.059   2.205 123.055  0.00  0.00    +0.003 C 
ATOM     12  C   LIG A   1      -6.440   3.094 121.945  0.00  0.00    -0.010 C 
ATOM     13  C   LIG A   1      -5.355   4.107 122.328  0.00  0.00    +0.008 C 
ATOM     14  C   LIG A   1      -7.603   3.757 121.203  0.00  0.00    +0.004 C 
ATOM     15  C   LIG A   1      -8.896   3.118 121.683  0.00  0.00    +0.008 C 
ENDROOT
TORSDOF 0
ENDMDL
