MODEL 1
REMARK VINA RESULT:      -7.4      0.000      0.000
REMARK  Name = NuBBE_1169
REMARK  9 active torsions:
REMARK  status: ('A' for Active; 'I' for Inactive)
REMARK    1  A    between atoms: O_1  and  C_2
REMARK    2  A    between atoms: C_4  and  C_7
REMARK    3  A    between atoms: C_8  and  C_9
REMARK    4  A    between atoms: N_10  and  C_11
REMARK    5  A    between atoms: C_11  and  C_12
REMARK    6  A    between atoms: C_12  and  C_13
REMARK    7  A    between atoms: C_16  and  O_19
REMARK    8  A    between atoms: C_21  and  O_22
REMARK    9  A    between atoms: O_22  and  C_23
REMARK                            x       y       z     vdW  Elec       q    Type
REMARK                         _______ _______ _______ _____ _____    ______ ____
ROOT
ATOM      1  C   LIG A   1      -6.135   2.053 126.180  0.00  0.00    +0.237 C 
ATOM      2  N   LIG A   1      -6.003   0.710 125.948  0.00  0.00    -0.311 N 
ATOM      3  O   LIG A   1      -6.176   2.582 127.283  0.00  0.00    -0.271 OA
ATOM      4  H   LIG A   1      -6.077   0.357 125.000  0.00  0.00    +0.149 HD
ENDROOT
BRANCH   1   6
ATOM      5  C   LIG A   1      -6.814   2.298 123.816  0.00  0.00    +0.013 C 
ATOM      6  C   LIG A   1      -6.244   2.816 124.916  0.00  0.00    +0.068 C 
BRANCH   5   9
ATOM      7  C   LIG A   1      -8.148   3.744 120.596  0.00  0.00    +0.159 A 
ATOM      8  C   LIG A   1      -8.100   3.163 121.864  0.00  0.00    +0.057 A 
ATOM      9  C   LIG A   1      -6.868   2.983 122.508  0.00  0.00    -0.021 A 
ATOM     10  C   LIG A   1      -5.711   3.435 121.850  0.00  0.00    +0.012 A 
ATOM     11  C   LIG A   1      -5.768   4.036 120.587  0.00  0.00    +0.050 A 
ATOM     12  C   LIG A   1      -6.989   4.173 119.942  0.00  0.00    +0.161 A 
BRANCH   7  13
ATOM     13  O   LIG A   1      -9.362   3.852 119.973  0.00  0.00    -0.503 OA
ATOM     14  H   LIG A   1      -9.244   4.557 119.307  0.00  0.00    +0.292 HD
ENDBRANCH   7  13
BRANCH  12  15
ATOM     15  O   LIG A   1      -7.159   4.715 118.694  0.00  0.00    -0.491 OA
ATOM     16  C   LIG A   1      -6.127   5.611 118.289  0.00  0.00    +0.277 C 
ENDBRANCH  12  15
ENDBRANCH   5   9
ENDBRANCH   1   6
BRANCH   2  17
ATOM     17  C   LIG A   1      -5.932  -0.279 127.007  0.00  0.00    +0.109 C 
BRANCH  17  18
ATOM     18  C   LIG A   1      -5.804  -1.709 126.465  0.00  0.00    +0.054 C 
BRANCH  18  19
ATOM     19  C   LIG A   1      -6.982  -2.155 125.624  0.00  0.00    -0.046 A 
ATOM     20  C   LIG A   1      -6.870  -2.299 124.232  0.00  0.00    +0.007 A 
ATOM     21  C   LIG A   1      -7.948  -2.773 123.477  0.00  0.00    +0.045 A 
ATOM     22  C   LIG A   1      -9.146  -3.082 124.112  0.00  0.00    +0.117 A 
ATOM     23  C   LIG A   1      -9.287  -2.911 125.483  0.00  0.00    +0.045 A 
ATOM     24  C   LIG A   1      -8.210  -2.446 126.237  0.00  0.00    +0.007 A 
BRANCH  22  25
ATOM     25  O   LIG A   1     -10.218  -3.559 123.418  0.00  0.00    -0.507 OA
ATOM     26  H   LIG A   1     -10.995  -3.549 124.001  0.00  0.00    +0.292 HD
ENDBRANCH  22  25
ENDBRANCH  18  19
ENDBRANCH  17  18
ENDBRANCH   2  17
TORSDOF 8
ENDMDL
MODEL 2
REMARK VINA RESULT:      -7.3      7.500     11.544
REMARK  Name = NuBBE_1169
REMARK  9 active torsions:
REMARK  status: ('A' for Active; 'I' for Inactive)
REMARK    1  A    between atoms: O_1  and  C_2
REMARK    2  A    between atoms: C_4  and  C_7
REMARK    3  A    between atoms: C_8  and  C_9
REMARK    4  A    between atoms: N_10  and  C_11
REMARK    5  A    between atoms: C_11  and  C_12
REMARK    6  A    between atoms: C_12  and  C_13
REMARK    7  A    between atoms: C_16  and  O_19
REMARK    8  A    between atoms: C_21  and  O_22
REMARK    9  A    between atoms: O_22  and  C_23
REMARK                            x       y       z     vdW  Elec       q    Type
REMARK                         _______ _______ _______ _____ _____    ______ ____
ROOT
ATOM      1  C   LIG A   1     -10.209   5.585 132.047  0.00  0.00    +0.237 C 
ATOM      2  N   LIG A   1     -11.475   5.765 131.555  0.00  0.00    -0.311 N 
ATOM      3  O   LIG A   1      -9.520   6.453 132.565  0.00  0.00    -0.271 OA
ATOM      4  H   LIG A   1     -11.928   5.008 131.053  0.00  0.00    +0.149 HD
ENDROOT
BRANCH   1   6
ATOM      5  C   LIG A   1      -9.200   3.479 132.858  0.00  0.00    +0.013 C 
ATOM      6  C   LIG A   1      -9.745   4.192 131.858  0.00  0.00    +0.068 C 
BRANCH   5   9
ATOM      7  C   LIG A   1      -6.822   0.554 133.025  0.00  0.00    +0.159 A 
ATOM      8  C   LIG A   1      -7.384   1.815 133.234  0.00  0.00    +0.057 A 
ATOM      9  C   LIG A   1      -8.642   2.120 132.699  0.00  0.00    -0.021 A 
ATOM     10  C   LIG A   1      -9.315   1.112 131.985  0.00  0.00    +0.012 A 
ATOM     11  C   LIG A   1      -8.754  -0.156 131.795  0.00  0.00    +0.050 A 
ATOM     12  C   LIG A   1      -7.490  -0.435 132.296  0.00  0.00    +0.161 A 
BRANCH   7  13
ATOM     13  O   LIG A   1      -5.567   0.310 133.513  0.00  0.00    -0.503 OA
ATOM     14  H   LIG A   1      -5.047   0.011 132.742  0.00  0.00    +0.292 HD
ENDBRANCH   7  13
BRANCH  12  15
ATOM     15  O   LIG A   1      -6.832  -1.627 132.143  0.00  0.00    -0.491 OA
ATOM     16  C   LIG A   1      -7.372  -2.479 131.135  0.00  0.00    +0.277 C 
ENDBRANCH  12  15
ENDBRANCH   5   9
ENDBRANCH   1   6
BRANCH   2  17
ATOM     17  C   LIG A   1     -12.156   7.046 131.555  0.00  0.00    +0.109 C 
BRANCH  17  18
ATOM     18  C   LIG A   1     -13.146   7.182 130.390  0.00  0.00    +0.054 C 
BRANCH  18  19
ATOM     19  C   LIG A   1     -12.488   7.455 129.054  0.00  0.00    -0.046 A 
ATOM     20  C   LIG A   1     -11.295   8.189 128.966  0.00  0.00    +0.007 A 
ATOM     21  C   LIG A   1     -10.665   8.378 127.731  0.00  0.00    +0.045 A 
ATOM     22  C   LIG A   1     -11.240   7.851 126.580  0.00  0.00    +0.117 A 
ATOM     23  C   LIG A   1     -12.440   7.153 126.643  0.00  0.00    +0.045 A 
ATOM     24  C   LIG A   1     -13.064   6.958 127.875  0.00  0.00    +0.007 A 
BRANCH  22  25
ATOM     25  O   LIG A   1     -10.656   7.999 125.358  0.00  0.00    -0.507 OA
ATOM     26  H   LIG A   1     -10.457   7.119 124.999  0.00  0.00    +0.292 HD
ENDBRANCH  22  25
ENDBRANCH  18  19
ENDBRANCH  17  18
ENDBRANCH   2  17
TORSDOF 8
ENDMDL
MODEL 3
REMARK VINA RESULT:      -7.2      8.783     11.065
REMARK  Name = NuBBE_1169
REMARK  9 active torsions:
REMARK  status: ('A' for Active; 'I' for Inactive)
REMARK    1  A    between atoms: O_1  and  C_2
REMARK    2  A    between atoms: C_4  and  C_7
REMARK    3  A    between atoms: C_8  and  C_9
REMARK    4  A    between atoms: N_10  and  C_11
REMARK    5  A    between atoms: C_11  and  C_12
REMARK    6  A    between atoms: C_12  and  C_13
REMARK    7  A    between atoms: C_16  and  O_19
REMARK    8  A    between atoms: C_21  and  O_22
REMARK    9  A    between atoms: O_22  and  C_23
REMARK                            x       y       z     vdW  Elec       q    Type
REMARK                         _______ _______ _______ _____ _____    ______ ____
ROOT
ATOM      1  C   LIG A   1     -10.231   5.370 130.790  0.00  0.00    +0.237 C 
ATOM      2  N   LIG A   1     -10.878   6.306 131.553  0.00  0.00    -0.311 N 
ATOM      3  O   LIG A   1     -10.771   4.586 130.021  0.00  0.00    -0.271 OA
ATOM      4  H   LIG A   1     -10.352   6.844 132.234  0.00  0.00    +0.149 HD
ENDROOT
BRANCH   1   6
ATOM      5  C   LIG A   1      -8.144   6.473 131.525  0.00  0.00    +0.013 C 
ATOM      6  C   LIG A   1      -8.768   5.398 131.018  0.00  0.00    +0.068 C 
BRANCH   5   9
ATOM      7  C   LIG A   1      -4.526   7.289 130.832  0.00  0.00    +0.159 A 
ATOM      8  C   LIG A   1      -5.917   7.246 130.719  0.00  0.00    +0.057 A 
ATOM      9  C   LIG A   1      -6.680   6.583 131.688  0.00  0.00    -0.021 A 
ATOM     10  C   LIG A   1      -6.002   6.003 132.775  0.00  0.00    +0.012 A 
ATOM     11  C   LIG A   1      -4.609   6.067 132.893  0.00  0.00    +0.050 A 
ATOM     12  C   LIG A   1      -3.859   6.692 131.906  0.00  0.00    +0.161 A 
BRANCH   7  13
ATOM     13  O   LIG A   1      -3.809   7.896 129.837  0.00  0.00    -0.503 OA
ATOM     14  H   LIG A   1      -4.402   7.899 129.061  0.00  0.00    +0.292 HD
ENDBRANCH   7  13
BRANCH  12  15
ATOM     15  O   LIG A   1      -2.492   6.786 131.902  0.00  0.00    -0.491 OA
ATOM     16  C   LIG A   1      -1.811   5.538 131.796  0.00  0.00    +0.277 C 
ENDBRANCH  12  15
ENDBRANCH   5   9
ENDBRANCH   1   6
BRANCH   2  17
ATOM     17  C   LIG A   1     -12.320   6.461 131.572  0.00  0.00    +0.109 C 
BRANCH  17  18
ATOM     18  C   LIG A   1     -12.784   7.707 130.804  0.00  0.00    +0.054 C 
BRANCH  18  19
ATOM     19  C   LIG A   1     -12.308   7.756 129.368  0.00  0.00    -0.046 A 
ATOM     20  C   LIG A   1     -11.101   8.382 129.021  0.00  0.00    +0.007 A 
ATOM     21  C   LIG A   1     -10.644   8.364 127.700  0.00  0.00    +0.045 A 
ATOM     22  C   LIG A   1     -11.405   7.738 126.719  0.00  0.00    +0.117 A 
ATOM     23  C   LIG A   1     -12.620   7.145 127.036  0.00  0.00    +0.045 A 
ATOM     24  C   LIG A   1     -13.073   7.156 128.356  0.00  0.00    +0.007 A 
BRANCH  22  25
ATOM     25  O   LIG A   1     -10.993   7.684 125.421  0.00  0.00    -0.507 OA
ATOM     26  H   LIG A   1     -11.357   6.881 125.012  0.00  0.00    +0.292 HD
ENDBRANCH  22  25
ENDBRANCH  18  19
ENDBRANCH  17  18
ENDBRANCH   2  17
TORSDOF 8
ENDMDL
MODEL 4
REMARK VINA RESULT:      -7.2      6.824     10.569
REMARK  Name = NuBBE_1169
REMARK  9 active torsions:
REMARK  status: ('A' for Active; 'I' for Inactive)
REMARK    1  A    between atoms: O_1  and  C_2
REMARK    2  A    between atoms: C_4  and  C_7
REMARK    3  A    between atoms: C_8  and  C_9
REMARK    4  A    between atoms: N_10  and  C_11
REMARK    5  A    between atoms: C_11  and  C_12
REMARK    6  A    between atoms: C_12  and  C_13
REMARK    7  A    between atoms: C_16  and  O_19
REMARK    8  A    between atoms: C_21  and  O_22
REMARK    9  A    between atoms: O_22  and  C_23
REMARK                            x       y       z     vdW  Elec       q    Type
REMARK                         _______ _______ _______ _____ _____    ______ ____
ROOT
ATOM      1  C   LIG A   1     -10.033   5.616 131.493  0.00  0.00    +0.237 C 
ATOM      2  N   LIG A   1     -11.381   5.657 131.253  0.00  0.00    -0.311 N 
ATOM      3  O   LIG A   1      -9.384   6.493 132.046  0.00  0.00    -0.271 OA
ATOM      4  H   LIG A   1     -11.812   4.924 130.699  0.00  0.00    +0.149 HD
ENDROOT
BRANCH   1   6
ATOM      5  C   LIG A   1      -9.669   3.171 131.535  0.00  0.00    +0.013 C 
ATOM      6  C   LIG A   1      -9.426   4.368 130.977  0.00  0.00    +0.068 C 
BRANCH   5   9
ATOM      7  C   LIG A   1      -7.743   0.662 129.478  0.00  0.00    +0.159 A 
ATOM      8  C   LIG A   1      -8.296   1.867 129.916  0.00  0.00    +0.057 A 
ATOM      9  C   LIG A   1      -9.020   1.912 131.114  0.00  0.00    -0.021 A 
ATOM     10  C   LIG A   1      -9.135   0.724 131.858  0.00  0.00    +0.012 A 
ATOM     11  C   LIG A   1      -8.562  -0.475 131.423  0.00  0.00    +0.050 A 
ATOM     12  C   LIG A   1      -7.880  -0.518 130.215  0.00  0.00    +0.161 A 
BRANCH   7  13
ATOM     13  O   LIG A   1      -7.091   0.642 128.275  0.00  0.00    -0.503 OA
ATOM     14  H   LIG A   1      -6.277   0.127 128.435  0.00  0.00    +0.292 HD
ENDBRANCH   7  13
BRANCH  12  15
ATOM     15  O   LIG A   1      -7.307  -1.642 129.677  0.00  0.00    -0.491 OA
ATOM     16  C   LIG A   1      -8.217  -2.710 129.426  0.00  0.00    +0.277 C 
ENDBRANCH  12  15
ENDBRANCH   5   9
ENDBRANCH   1   6
BRANCH   2  17
ATOM     17  C   LIG A   1     -12.219   6.789 131.601  0.00  0.00    +0.109 C 
BRANCH  17  18
ATOM     18  C   LIG A   1     -13.197   7.160 130.478  0.00  0.00    +0.054 C 
BRANCH  18  19
ATOM     19  C   LIG A   1     -12.528   7.436 129.147  0.00  0.00    -0.046 A 
ATOM     20  C   LIG A   1     -11.356   8.204 129.067  0.00  0.00    +0.007 A 
ATOM     21  C   LIG A   1     -10.715   8.397 127.839  0.00  0.00    +0.045 A 
ATOM     22  C   LIG A   1     -11.258   7.838 126.687  0.00  0.00    +0.117 A 
ATOM     23  C   LIG A   1     -12.437   7.106 126.741  0.00  0.00    +0.045 A 
ATOM     24  C   LIG A   1     -13.073   6.907 127.967  0.00  0.00    +0.007 A 
BRANCH  22  25
ATOM     25  O   LIG A   1     -10.661   7.989 125.471  0.00  0.00    -0.507 OA
ATOM     26  H   LIG A   1      -9.717   8.173 125.608  0.00  0.00    +0.292 HD
ENDBRANCH  22  25
ENDBRANCH  18  19
ENDBRANCH  17  18
ENDBRANCH   2  17
TORSDOF 8
ENDMDL
MODEL 5
REMARK VINA RESULT:      -7.1      6.358      9.867
REMARK  Name = NuBBE_1169
REMARK  9 active torsions:
REMARK  status: ('A' for Active; 'I' for Inactive)
REMARK    1  A    between atoms: O_1  and  C_2
REMARK    2  A    between atoms: C_4  and  C_7
REMARK    3  A    between atoms: C_8  and  C_9
REMARK    4  A    between atoms: N_10  and  C_11
REMARK    5  A    between atoms: C_11  and  C_12
REMARK    6  A    between atoms: C_12  and  C_13
REMARK    7  A    between atoms: C_16  and  O_19
REMARK    8  A    between atoms: C_21  and  O_22
REMARK    9  A    between atoms: O_22  and  C_23
REMARK                            x       y       z     vdW  Elec       q    Type
REMARK                         _______ _______ _______ _____ _____    ______ ____
ROOT
ATOM      1  C   LIG A   1     -10.122   4.938 130.985  0.00  0.00    +0.237 C 
ATOM      2  N   LIG A   1     -11.451   5.268 131.021  0.00  0.00    -0.311 N 
ATOM      3  O   LIG A   1      -9.207   5.633 131.404  0.00  0.00    -0.271 OA
ATOM      4  H   LIG A   1     -12.127   4.669 130.558  0.00  0.00    +0.149 HD
ENDROOT
BRANCH   1   6
ATOM      5  C   LIG A   1      -8.677   3.129 130.118  0.00  0.00    +0.013 C 
ATOM      6  C   LIG A   1      -9.906   3.619 130.346  0.00  0.00    +0.068 C 
BRANCH   5   9
ATOM      7  C   LIG A   1      -7.741  -0.466 129.459  0.00  0.00    +0.159 A 
ATOM      8  C   LIG A   1      -8.066   0.713 130.131  0.00  0.00    +0.057 A 
ATOM      9  C   LIG A   1      -8.409   1.862 129.406  0.00  0.00    -0.021 A 
ATOM     10  C   LIG A   1      -8.443   1.769 128.003  0.00  0.00    +0.012 A 
ATOM     11  C   LIG A   1      -8.135   0.578 127.336  0.00  0.00    +0.050 A 
ATOM     12  C   LIG A   1      -7.758  -0.544 128.062  0.00  0.00    +0.161 A 
BRANCH   7  13
ATOM     13  O   LIG A   1      -7.356  -1.553 130.196  0.00  0.00    -0.503 OA
ATOM     14  H   LIG A   1      -7.436  -2.314 129.589  0.00  0.00    +0.292 HD
ENDBRANCH   7  13
BRANCH  12  15
ATOM     15  O   LIG A   1      -7.405  -1.750 127.515  0.00  0.00    -0.491 OA
ATOM     16  C   LIG A   1      -8.405  -2.343 126.689  0.00  0.00    +0.277 C 
ENDBRANCH  12  15
ENDBRANCH   5   9
ENDBRANCH   1   6
BRANCH   2  17
ATOM     17  C   LIG A   1     -11.946   6.530 131.540  0.00  0.00    +0.109 C 
BRANCH  17  18
ATOM     18  C   LIG A   1     -12.891   7.236 130.558  0.00  0.00    +0.054 C 
BRANCH  18  19
ATOM     19  C   LIG A   1     -12.319   7.399 129.165  0.00  0.00    -0.046 A 
ATOM     20  C   LIG A   1     -12.972   6.863 128.043  0.00  0.00    +0.007 A 
ATOM     21  C   LIG A   1     -12.465   7.076 126.757  0.00  0.00    +0.045 A 
ATOM     22  C   LIG A   1     -11.294   7.807 126.594  0.00  0.00    +0.117 A 
ATOM     23  C   LIG A   1     -10.615   8.314 127.695  0.00  0.00    +0.045 A 
ATOM     24  C   LIG A   1     -11.123   8.108 128.977  0.00  0.00    +0.007 A 
BRANCH  22  25
ATOM     25  O   LIG A   1     -10.771   8.051 125.359  0.00  0.00    -0.507 OA
ATOM     26  H   LIG A   1     -10.175   7.321 125.124  0.00  0.00    +0.292 HD
ENDBRANCH  22  25
ENDBRANCH  18  19
ENDBRANCH  17  18
ENDBRANCH   2  17
TORSDOF 8
ENDMDL
MODEL 6
REMARK VINA RESULT:      -7.1      1.417      1.908
REMARK  Name = NuBBE_1169
REMARK  9 active torsions:
REMARK  status: ('A' for Active; 'I' for Inactive)
REMARK    1  A    between atoms: O_1  and  C_2
REMARK    2  A    between atoms: C_4  and  C_7
REMARK    3  A    between atoms: C_8  and  C_9
REMARK    4  A    between atoms: N_10  and  C_11
REMARK    5  A    between atoms: C_11  and  C_12
REMARK    6  A    between atoms: C_12  and  C_13
REMARK    7  A    between atoms: C_16  and  O_19
REMARK    8  A    between atoms: C_21  and  O_22
REMARK    9  A    between atoms: O_22  and  C_23
REMARK                            x       y       z     vdW  Elec       q    Type
REMARK                         _______ _______ _______ _____ _____    ______ ____
ROOT
ATOM      1  C   LIG A   1      -7.269   2.394 125.765  0.00  0.00    +0.237 C 
ATOM      2  N   LIG A   1      -6.324   1.425 125.974  0.00  0.00    -0.311 N 
ATOM      3  O   LIG A   1      -8.270   2.567 126.446  0.00  0.00    -0.271 OA
ATOM      4  H   LIG A   1      -5.579   1.299 125.295  0.00  0.00    +0.149 HD
ENDROOT
BRANCH   1   6
ATOM      5  C   LIG A   1      -6.701   2.678 123.375  0.00  0.00    +0.013 C 
ATOM      6  C   LIG A   1      -6.949   3.220 124.578  0.00  0.00    +0.068 C 
BRANCH   5   9
ATOM      7  C   LIG A   1      -4.873   5.133 121.169  0.00  0.00    +0.159 A 
ATOM      8  C   LIG A   1      -5.218   4.348 122.270  0.00  0.00    +0.057 A 
ATOM      9  C   LIG A   1      -6.291   3.451 122.185  0.00  0.00    -0.021 A 
ATOM     10  C   LIG A   1      -6.971   3.354 120.957  0.00  0.00    +0.012 A 
ATOM     11  C   LIG A   1      -6.608   4.130 119.851  0.00  0.00    +0.050 A 
ATOM     12  C   LIG A   1      -5.568   5.044 119.959  0.00  0.00    +0.161 A 
BRANCH   7  13
ATOM     13  O   LIG A   1      -3.856   6.039 121.305  0.00  0.00    -0.503 OA
ATOM     14  H   LIG A   1      -4.116   6.799 120.749  0.00  0.00    +0.292 HD
ENDBRANCH   7  13
BRANCH  12  15
ATOM     15  O   LIG A   1      -5.149   5.876 118.953  0.00  0.00    -0.491 OA
ATOM     16  C   LIG A   1      -6.174   6.278 118.048  0.00  0.00    +0.277 C 
ENDBRANCH  12  15
ENDBRANCH   5   9
ENDBRANCH   1   6
BRANCH   2  17
ATOM     17  C   LIG A   1      -6.415   0.437 127.032  0.00  0.00    +0.109 C 
BRANCH  17  18
ATOM     18  C   LIG A   1      -6.084  -0.979 126.541  0.00  0.00    +0.054 C 
BRANCH  18  19
ATOM     19  C   LIG A   1      -7.172  -1.604 125.692  0.00  0.00    -0.046 A 
ATOM     20  C   LIG A   1      -7.069  -1.648 124.293  0.00  0.00    +0.007 A 
ATOM     21  C   LIG A   1      -8.051  -2.285 123.528  0.00  0.00    +0.045 A 
ATOM     22  C   LIG A   1      -9.148  -2.859 124.160  0.00  0.00    +0.117 A 
ATOM     23  C   LIG A   1      -9.285  -2.794 125.540  0.00  0.00    +0.045 A 
ATOM     24  C   LIG A   1      -8.303  -2.165 126.305  0.00  0.00    +0.007 A 
BRANCH  22  25
ATOM     25  O   LIG A   1     -10.122  -3.502 123.455  0.00  0.00    -0.507 OA
ATOM     26  H   LIG A   1      -9.772  -4.352 123.145  0.00  0.00    +0.292 HD
ENDBRANCH  22  25
ENDBRANCH  18  19
ENDBRANCH  17  18
ENDBRANCH   2  17
TORSDOF 8
ENDMDL
MODEL 7
REMARK VINA RESULT:      -7.0      7.187      9.744
REMARK  Name = NuBBE_1169
REMARK  9 active torsions:
REMARK  status: ('A' for Active; 'I' for Inactive)
REMARK    1  A    between atoms: O_1  and  C_2
REMARK    2  A    between atoms: C_4  and  C_7
REMARK    3  A    between atoms: C_8  and  C_9
REMARK    4  A    between atoms: N_10  and  C_11
REMARK    5  A    between atoms: C_11  and  C_12
REMARK    6  A    between atoms: C_12  and  C_13
REMARK    7  A    between atoms: C_16  and  O_19
REMARK    8  A    between atoms: C_21  and  O_22
REMARK    9  A    between atoms: O_22  and  C_23
REMARK                            x       y       z     vdW  Elec       q    Type
REMARK                         _______ _______ _______ _____ _____    ______ ____
ROOT
ATOM      1  C   LIG A   1      -6.008   6.257 131.747  0.00  0.00    +0.237 C 
ATOM      2  N   LIG A   1      -4.871   6.717 131.135  0.00  0.00    -0.311 N 
ATOM      3  O   LIG A   1      -6.045   5.415 132.634  0.00  0.00    -0.271 OA
ATOM      4  H   LIG A   1      -4.951   7.344 130.341  0.00  0.00    +0.149 HD
ENDROOT
BRANCH   1   6
ATOM      5  C   LIG A   1      -8.447   6.370 131.358  0.00  0.00    +0.013 C 
ATOM      6  C   LIG A   1      -7.222   6.895 131.190  0.00  0.00    +0.068 C 
BRANCH   5   9
ATOM      7  C   LIG A   1     -12.081   7.206 130.787  0.00  0.00    +0.159 A 
ATOM      8  C   LIG A   1     -10.909   6.754 131.394  0.00  0.00    +0.057 A 
ATOM      9  C   LIG A   1      -9.676   6.918 130.749  0.00  0.00    -0.021 A 
ATOM     10  C   LIG A   1      -9.667   7.575 129.505  0.00  0.00    +0.012 A 
ATOM     11  C   LIG A   1     -10.844   8.044 128.912  0.00  0.00    +0.050 A 
ATOM     12  C   LIG A   1     -12.065   7.841 129.541  0.00  0.00    +0.161 A 
BRANCH   7  13
ATOM     13  O   LIG A   1     -13.274   6.978 131.419  0.00  0.00    -0.503 OA
ATOM     14  H   LIG A   1     -13.512   7.831 131.830  0.00  0.00    +0.292 HD
ENDBRANCH   7  13
BRANCH  12  15
ATOM     15  O   LIG A   1     -13.280   8.228 129.038  0.00  0.00    -0.491 OA
ATOM     16  C   LIG A   1     -13.383   9.617 128.736  0.00  0.00    +0.277 C 
ENDBRANCH  12  15
ENDBRANCH   5   9
ENDBRANCH   1   6
BRANCH   2  17
ATOM     17  C   LIG A   1      -3.543   6.222 131.444  0.00  0.00    +0.109 C 
BRANCH  17  18
ATOM     18  C   LIG A   1      -2.628   6.195 130.212  0.00  0.00    +0.054 C 
BRANCH  18  19
ATOM     19  C   LIG A   1      -2.881   5.025 129.284  0.00  0.00    -0.046 A 
ATOM     20  C   LIG A   1      -3.534   3.867 129.734  0.00  0.00    +0.007 A 
ATOM     21  C   LIG A   1      -3.817   2.822 128.849  0.00  0.00    +0.045 A 
ATOM     22  C   LIG A   1      -3.427   2.925 127.518  0.00  0.00    +0.117 A 
ATOM     23  C   LIG A   1      -2.747   4.047 127.064  0.00  0.00    +0.045 A 
ATOM     24  C   LIG A   1      -2.471   5.094 127.944  0.00  0.00    +0.007 A 
BRANCH  22  25
ATOM     25  O   LIG A   1      -3.693   1.936 126.618  0.00  0.00    -0.507 OA
ATOM     26  H   LIG A   1      -2.862   1.675 126.189  0.00  0.00    +0.292 HD
ENDBRANCH  22  25
ENDBRANCH  18  19
ENDBRANCH  17  18
ENDBRANCH   2  17
TORSDOF 8
ENDMDL
MODEL 8
REMARK VINA RESULT:      -7.0      8.530     10.323
REMARK  Name = NuBBE_1169
REMARK  9 active torsions:
REMARK  status: ('A' for Active; 'I' for Inactive)
REMARK    1  A    between atoms: O_1  and  C_2
REMARK    2  A    between atoms: C_4  and  C_7
REMARK    3  A    between atoms: C_8  and  C_9
REMARK    4  A    between atoms: N_10  and  C_11
REMARK    5  A    between atoms: C_11  and  C_12
REMARK    6  A    between atoms: C_12  and  C_13
REMARK    7  A    between atoms: C_16  and  O_19
REMARK    8  A    between atoms: C_21  and  O_22
REMARK    9  A    between atoms: O_22  and  C_23
REMARK                            x       y       z     vdW  Elec       q    Type
REMARK                         _______ _______ _______ _____ _____    ______ ____
ROOT
ATOM      1  C   LIG A   1      -7.029   5.652 131.971  0.00  0.00    +0.237 C 
ATOM      2  N   LIG A   1      -5.913   6.390 132.269  0.00  0.00    -0.311 N 
ATOM      3  O   LIG A   1      -7.146   4.445 132.136  0.00  0.00    -0.271 OA
ATOM      4  H   LIG A   1      -5.877   7.369 132.003  0.00  0.00    +0.149 HD
ENDROOT
BRANCH   1   6
ATOM      5  C   LIG A   1      -9.370   6.068 131.292  0.00  0.00    +0.013 C 
ATOM      6  C   LIG A   1      -8.100   6.494 131.391  0.00  0.00    +0.068 C 
BRANCH   5   9
ATOM      7  C   LIG A   1     -11.213   8.274 128.849  0.00  0.00    +0.159 A 
ATOM      8  C   LIG A   1     -10.215   7.490 129.428  0.00  0.00    +0.057 A 
ATOM      9  C   LIG A   1     -10.454   6.834 130.643  0.00  0.00    -0.021 A 
ATOM     10  C   LIG A   1     -11.727   6.969 131.224  0.00  0.00    +0.012 A 
ATOM     11  C   LIG A   1     -12.730   7.740 130.627  0.00  0.00    +0.050 A 
ATOM     12  C   LIG A   1     -12.470   8.418 129.444  0.00  0.00    +0.161 A 
BRANCH   7  13
ATOM     13  O   LIG A   1     -10.927   8.946 127.692  0.00  0.00    -0.503 OA
ATOM     14  H   LIG A   1     -11.598   9.653 127.635  0.00  0.00    +0.292 HD
ENDBRANCH   7  13
BRANCH  12  15
ATOM     15  O   LIG A   1     -13.365   9.225 128.790  0.00  0.00    -0.491 OA
ATOM     16  C   LIG A   1     -13.501  10.532 129.345  0.00  0.00    +0.277 C 
ENDBRANCH  12  15
ENDBRANCH   5   9
ENDBRANCH   1   6
BRANCH   2  17
ATOM     17  C   LIG A   1      -4.692   5.811 132.795  0.00  0.00    +0.109 C 
BRANCH  17  18
ATOM     18  C   LIG A   1      -3.435   6.423 132.162  0.00  0.00    +0.054 C 
BRANCH  18  19
ATOM     19  C   LIG A   1      -3.138   5.910 130.768  0.00  0.00    -0.046 A 
ATOM     20  C   LIG A   1      -2.525   6.729 129.806  0.00  0.00    +0.007 A 
ATOM     21  C   LIG A   1      -2.200   6.222 128.544  0.00  0.00    +0.045 A 
ATOM     22  C   LIG A   1      -2.506   4.901 128.236  0.00  0.00    +0.117 A 
ATOM     23  C   LIG A   1      -3.145   4.087 129.162  0.00  0.00    +0.045 A 
ATOM     24  C   LIG A   1      -3.464   4.590 130.423  0.00  0.00    +0.007 A 
BRANCH  22  25
ATOM     25  O   LIG A   1      -2.196   4.361 127.023  0.00  0.00    -0.507 OA
ATOM     26  H   LIG A   1      -1.415   4.817 126.670  0.00  0.00    +0.292 HD
ENDBRANCH  22  25
ENDBRANCH  18  19
ENDBRANCH  17  18
ENDBRANCH   2  17
TORSDOF 8
ENDMDL
MODEL 9
REMARK VINA RESULT:      -6.9      9.800     11.769
REMARK  Name = NuBBE_1169
REMARK  9 active torsions:
REMARK  status: ('A' for Active; 'I' for Inactive)
REMARK    1  A    between atoms: O_1  and  C_2
REMARK    2  A    between atoms: C_4  and  C_7
REMARK    3  A    between atoms: C_8  and  C_9
REMARK    4  A    between atoms: N_10  and  C_11
REMARK    5  A    between atoms: C_11  and  C_12
REMARK    6  A    between atoms: C_12  and  C_13
REMARK    7  A    between atoms: C_16  and  O_19
REMARK    8  A    between atoms: C_21  and  O_22
REMARK    9  A    between atoms: O_22  and  C_23
REMARK                            x       y       z     vdW  Elec       q    Type
REMARK                         _______ _______ _______ _____ _____    ______ ____
ROOT
ATOM      1  C   LIG A   1      -6.243   6.168 131.869  0.00  0.00    +0.237 C 
ATOM      2  N   LIG A   1      -5.260   5.782 130.995  0.00  0.00    -0.311 N 
ATOM      3  O   LIG A   1      -6.183   6.080 133.088  0.00  0.00    -0.271 OA
ATOM      4  H   LIG A   1      -5.443   5.804 129.997  0.00  0.00    +0.149 HD
ENDROOT
BRANCH   1   6
ATOM      5  C   LIG A   1      -8.681   6.439 131.559  0.00  0.00    +0.013 C 
ATOM      6  C   LIG A   1      -7.426   6.701 131.156  0.00  0.00    +0.068 C 
BRANCH   5   9
ATOM      7  C   LIG A   1     -10.910   8.058 128.980  0.00  0.00    +0.159 A 
ATOM      8  C   LIG A   1      -9.770   7.583 129.631  0.00  0.00    +0.057 A 
ATOM      9  C   LIG A   1      -9.892   6.873 130.833  0.00  0.00    -0.021 A 
ATOM     10  C   LIG A   1     -11.187   6.634 131.326  0.00  0.00    +0.012 A 
ATOM     11  C   LIG A   1     -12.327   7.095 130.658  0.00  0.00    +0.050 A 
ATOM     12  C   LIG A   1     -12.192   7.832 129.489  0.00  0.00    +0.161 A 
BRANCH   7  13
ATOM     13  O   LIG A   1     -10.750   8.797 127.839  0.00  0.00    -0.503 OA
ATOM     14  H   LIG A   1     -11.511   9.409 127.824  0.00  0.00    +0.292 HD
ENDBRANCH   7  13
BRANCH  12  15
ATOM     15  O   LIG A   1     -13.234   8.359 128.771  0.00  0.00    -0.491 OA
ATOM     16  C   LIG A   1     -13.887   7.434 127.905  0.00  0.00    +0.277 C 
ENDBRANCH  12  15
ENDBRANCH   5   9
ENDBRANCH   1   6
BRANCH   2  17
ATOM     17  C   LIG A   1      -4.013   5.172 131.416  0.00  0.00    +0.109 C 
BRANCH  17  18
ATOM     18  C   LIG A   1      -2.789   5.850 130.786  0.00  0.00    +0.054 C 
BRANCH  18  19
ATOM     19  C   LIG A   1      -2.074   6.811 131.713  0.00  0.00    -0.046 A 
ATOM     20  C   LIG A   1      -0.755   6.576 132.130  0.00  0.00    +0.007 A 
ATOM     21  C   LIG A   1      -0.087   7.504 132.934  0.00  0.00    +0.045 A 
ATOM     22  C   LIG A   1      -0.746   8.660 133.340  0.00  0.00    +0.117 A 
ATOM     23  C   LIG A   1      -2.063   8.892 132.967  0.00  0.00    +0.045 A 
ATOM     24  C   LIG A   1      -2.728   7.970 132.159  0.00  0.00    +0.007 A 
BRANCH  22  25
ATOM     25  O   LIG A   1      -0.130   9.599 134.113  0.00  0.00    -0.507 OA
ATOM     26  H   LIG A   1      -0.195   9.327 135.043  0.00  0.00    +0.292 HD
ENDBRANCH  22  25
ENDBRANCH  18  19
ENDBRANCH  17  18
ENDBRANCH   2  17
TORSDOF 8
ENDMDL
