MODEL 1
REMARK VINA RESULT:      -8.8      0.000      0.000
REMARK  Name = NuBBE_1322
REMARK  5 active torsions:
REMARK  status: ('A' for Active; 'I' for Inactive)
REMARK    1  A    between atoms: C_4  and  C_20
REMARK    2  A    between atoms: C_9  and  O_18
REMARK    3  A    between atoms: C_14  and  C_15
REMARK    4  A    between atoms: C_14  and  C_17
REMARK    5  A    between atoms: O_18  and  C_19
REMARK                            x       y       z     vdW  Elec       q    Type
REMARK                         _______ _______ _______ _____ _____    ______ ____
ROOT
ATOM      1  O   LIG A   1      -5.290   3.972 125.671  0.00  0.00    -0.292 OA
ATOM      2  C   LIG A   1      -5.826   3.298 124.799  0.00  0.00    +0.171 C 
ATOM      3  C   LIG A   1      -5.992   3.784 123.390  0.00  0.00    +0.129 C 
ATOM      4  C   LIG A   1      -7.264   3.173 122.826  0.00  0.00    +0.211 C 
ATOM      5  O   LIG A   1      -7.201   1.740 122.845  0.00  0.00    -0.482 OA
ATOM      6  C   LIG A   1      -6.927   1.200 124.075  0.00  0.00    +0.143 A 
ATOM      7  C   LIG A   1      -6.272   1.917 125.077  0.00  0.00    +0.063 A 
ATOM      8  C   LIG A   1      -5.986   1.329 126.314  0.00  0.00    +0.064 A 
ATOM      9  C   LIG A   1      -6.335  -0.003 126.547  0.00  0.00    +0.163 A 
ATOM     10  C   LIG A   1      -6.996  -0.731 125.538  0.00  0.00    +0.174 A 
ATOM     11  C   LIG A   1      -7.289  -0.137 124.299  0.00  0.00    +0.062 A 
ATOM     12  C   LIG A   1      -7.959  -0.927 123.270  0.00  0.00    +0.015 C 
ATOM     13  C   LIG A   1      -8.401  -2.144 123.593  0.00  0.00    +0.020 C 
ATOM     14  C   LIG A   1      -8.220  -2.744 124.965  0.00  0.00    +0.124 C 
ATOM     15  C   LIG A   1      -7.666  -4.166 124.819  0.00  0.00    +0.060 C 
ATOM     16  O   LIG A   1      -7.291  -2.043 125.814  0.00  0.00    -0.478 OA
ATOM     17  C   LIG A   1      -9.567  -2.788 125.696  0.00  0.00    +0.060 C 
ENDROOT
BRANCH   4  18
ATOM     18  C   LIG A   1      -7.478   3.624 121.392  0.00  0.00    -0.007 A 
ATOM     19  C   LIG A   1      -8.770   3.640 120.846  0.00  0.00    +0.007 A 
ATOM     20  C   LIG A   1      -8.981   4.063 119.532  0.00  0.00    +0.000 A 
ATOM     21  C   LIG A   1      -7.906   4.478 118.750  0.00  0.00    +0.000 A 
ATOM     22  C   LIG A   1      -6.618   4.477 119.280  0.00  0.00    +0.000 A 
ATOM     23  C   LIG A   1      -6.406   4.059 120.594  0.00  0.00    +0.007 A 
ENDBRANCH   4  18
BRANCH   9  24
ATOM     24  O   LIG A   1      -6.072  -0.680 127.711  0.00  0.00    -0.491 OA
ATOM     25  C   LIG A   1      -5.401   0.027 128.746  0.00  0.00    +0.277 C 
ENDBRANCH   9  24
TORSDOF 2
ENDMDL
MODEL 2
REMARK VINA RESULT:      -8.5      2.854      4.704
REMARK  Name = NuBBE_1322
REMARK  5 active torsions:
REMARK  status: ('A' for Active; 'I' for Inactive)
REMARK    1  A    between atoms: C_4  and  C_20
REMARK    2  A    between atoms: C_9  and  O_18
REMARK    3  A    between atoms: C_14  and  C_15
REMARK    4  A    between atoms: C_14  and  C_17
REMARK    5  A    between atoms: O_18  and  C_19
REMARK                            x       y       z     vdW  Elec       q    Type
REMARK                         _______ _______ _______ _____ _____    ______ ____
ROOT
ATOM      1  O   LIG A   1      -9.869   1.328 123.650  0.00  0.00    -0.292 OA
ATOM      2  C   LIG A   1      -8.914   2.092 123.584  0.00  0.00    +0.171 C 
ATOM      3  C   LIG A   1      -8.591   2.878 122.348  0.00  0.00    +0.129 C 
ATOM      4  C   LIG A   1      -7.084   3.062 122.285  0.00  0.00    +0.211 C 
ATOM      5  O   LIG A   1      -6.600   3.754 123.445  0.00  0.00    -0.482 OA
ATOM      6  C   LIG A   1      -6.951   3.178 124.638  0.00  0.00    +0.143 A 
ATOM      7  C   LIG A   1      -8.062   2.343 124.766  0.00  0.00    +0.063 A 
ATOM      8  C   LIG A   1      -8.408   1.789 126.003  0.00  0.00    +0.064 A 
ATOM      9  C   LIG A   1      -7.650   2.092 127.136  0.00  0.00    +0.163 A 
ATOM     10  C   LIG A   1      -6.528   2.936 127.011  0.00  0.00    +0.174 A 
ATOM     11  C   LIG A   1      -6.178   3.485 125.768  0.00  0.00    +0.062 A 
ATOM     12  C   LIG A   1      -5.018   4.369 125.679  0.00  0.00    +0.015 C 
ATOM     13  C   LIG A   1      -4.245   4.509 126.757  0.00  0.00    +0.020 C 
ATOM     14  C   LIG A   1      -4.528   3.812 128.064  0.00  0.00    +0.124 C 
ATOM     15  C   LIG A   1      -4.441   4.835 129.204  0.00  0.00    +0.060 C 
ATOM     16  O   LIG A   1      -5.837   3.220 128.163  0.00  0.00    -0.478 OA
ATOM     17  C   LIG A   1      -3.501   2.697 128.293  0.00  0.00    +0.060 C 
ENDROOT
BRANCH   4  18
ATOM     18  C   LIG A   1      -6.700   3.864 121.054  0.00  0.00    -0.007 A 
ATOM     19  C   LIG A   1      -7.597   3.979 119.982  0.00  0.00    +0.007 A 
ATOM     20  C   LIG A   1      -7.260   4.723 118.849  0.00  0.00    +0.000 A 
ATOM     21  C   LIG A   1      -6.024   5.362 118.775  0.00  0.00    +0.000 A 
ATOM     22  C   LIG A   1      -5.126   5.265 119.835  0.00  0.00    +0.000 A 
ATOM     23  C   LIG A   1      -5.463   4.526 120.969  0.00  0.00    +0.007 A 
ENDBRANCH   4  18
BRANCH   9  24
ATOM     24  O   LIG A   1      -7.924   1.628 128.397  0.00  0.00    -0.491 OA
ATOM     25  C   LIG A   1      -8.850   2.366 129.184  0.00  0.00    +0.277 C 
ENDBRANCH   9  24
TORSDOF 2
ENDMDL
MODEL 3
REMARK VINA RESULT:      -8.2      9.314     10.429
REMARK  Name = NuBBE_1322
REMARK  5 active torsions:
REMARK  status: ('A' for Active; 'I' for Inactive)
REMARK    1  A    between atoms: C_4  and  C_20
REMARK    2  A    between atoms: C_9  and  O_18
REMARK    3  A    between atoms: C_14  and  C_15
REMARK    4  A    between atoms: C_14  and  C_17
REMARK    5  A    between atoms: O_18  and  C_19
REMARK                            x       y       z     vdW  Elec       q    Type
REMARK                         _______ _______ _______ _____ _____    ______ ____
ROOT
ATOM      1  O   LIG A   1      -9.565   3.924 133.815  0.00  0.00    -0.292 OA
ATOM      2  C   LIG A   1      -9.203   4.809 133.049  0.00  0.00    +0.171 C 
ATOM      3  C   LIG A   1     -10.169   5.729 132.363  0.00  0.00    +0.129 C 
ATOM      4  C   LIG A   1      -9.581   6.112 131.015  0.00  0.00    +0.211 C 
ATOM      5  O   LIG A   1      -8.313   6.764 131.172  0.00  0.00    -0.482 OA
ATOM      6  C   LIG A   1      -7.394   6.050 131.897  0.00  0.00    +0.143 A 
ATOM      7  C   LIG A   1      -7.767   5.071 132.818  0.00  0.00    +0.063 A 
ATOM      8  C   LIG A   1      -6.805   4.377 133.561  0.00  0.00    +0.064 A 
ATOM      9  C   LIG A   1      -5.452   4.682 133.402  0.00  0.00    +0.163 A 
ATOM     10  C   LIG A   1      -5.071   5.671 132.474  0.00  0.00    +0.174 A 
ATOM     11  C   LIG A   1      -6.037   6.362 131.724  0.00  0.00    +0.062 A 
ATOM     12  C   LIG A   1      -5.607   7.393 130.783  0.00  0.00    +0.015 C 
ATOM     13  C   LIG A   1      -4.299   7.544 130.563  0.00  0.00    +0.020 C 
ATOM     14  C   LIG A   1      -3.250   6.711 131.257  0.00  0.00    +0.124 C 
ATOM     15  C   LIG A   1      -2.163   7.639 131.811  0.00  0.00    +0.060 C 
ATOM     16  O   LIG A   1      -3.729   5.947 132.380  0.00  0.00    -0.478 OA
ATOM     17  C   LIG A   1      -2.628   5.724 130.262  0.00  0.00    +0.060 C 
ENDROOT
BRANCH   4  18
ATOM     18  C   LIG A   1     -10.516   7.055 130.279  0.00  0.00    -0.007 A 
ATOM     19  C   LIG A   1     -10.063   7.753 129.148  0.00  0.00    +0.007 A 
ATOM     20  C   LIG A   1     -10.917   8.614 128.456  0.00  0.00    +0.000 A 
ATOM     21  C   LIG A   1     -12.232   8.787 128.882  0.00  0.00    +0.000 A 
ATOM     22  C   LIG A   1     -12.699   8.095 129.996  0.00  0.00    +0.000 A 
ATOM     23  C   LIG A   1     -11.849   7.230 130.687  0.00  0.00    +0.007 A 
ENDBRANCH   4  18
BRANCH   9  24
ATOM     24  O   LIG A   1      -4.436   4.084 134.103  0.00  0.00    -0.491 OA
ATOM     25  C   LIG A   1      -4.366   4.333 135.502  0.00  0.00    +0.277 C 
ENDBRANCH   9  24
TORSDOF 2
ENDMDL
MODEL 4
REMARK VINA RESULT:      -8.1      3.346      8.199
REMARK  Name = NuBBE_1322
REMARK  5 active torsions:
REMARK  status: ('A' for Active; 'I' for Inactive)
REMARK    1  A    between atoms: C_4  and  C_20
REMARK    2  A    between atoms: C_9  and  O_18
REMARK    3  A    between atoms: C_14  and  C_15
REMARK    4  A    between atoms: C_14  and  C_17
REMARK    5  A    between atoms: O_18  and  C_19
REMARK                            x       y       z     vdW  Elec       q    Type
REMARK                         _______ _______ _______ _____ _____    ______ ____
ROOT
ATOM      1  O   LIG A   1      -7.957   1.564 129.966  0.00  0.00    -0.292 OA
ATOM      2  C   LIG A   1      -7.832   0.394 129.628  0.00  0.00    +0.171 C 
ATOM      3  C   LIG A   1      -7.492  -0.697 130.600  0.00  0.00    +0.129 C 
ATOM      4  C   LIG A   1      -6.682  -1.751 129.864  0.00  0.00    +0.211 C 
ATOM      5  O   LIG A   1      -7.421  -2.293 128.761  0.00  0.00    -0.482 OA
ATOM      6  C   LIG A   1      -7.886  -1.357 127.874  0.00  0.00    +0.143 A 
ATOM      7  C   LIG A   1      -8.092  -0.024 128.234  0.00  0.00    +0.063 A 
ATOM      8  C   LIG A   1      -8.590   0.902 127.312  0.00  0.00    +0.064 A 
ATOM      9  C   LIG A   1      -8.913   0.489 126.018  0.00  0.00    +0.163 A 
ATOM     10  C   LIG A   1      -8.708  -0.856 125.650  0.00  0.00    +0.174 A 
ATOM     11  C   LIG A   1      -8.201  -1.783 126.575  0.00  0.00    +0.062 A 
ATOM     12  C   LIG A   1      -8.017  -3.173 126.164  0.00  0.00    +0.015 C 
ATOM     13  C   LIG A   1      -8.201  -3.483 124.880  0.00  0.00    +0.020 C 
ATOM     14  C   LIG A   1      -8.610  -2.468 123.842  0.00  0.00    +0.124 C 
ATOM     15  C   LIG A   1      -9.779  -3.031 123.026  0.00  0.00    +0.060 C 
ATOM     16  O   LIG A   1      -9.068  -1.210 124.374  0.00  0.00    -0.478 OA
ATOM     17  C   LIG A   1      -7.428  -2.170 122.912  0.00  0.00    +0.060 C 
ENDROOT
BRANCH   4  18
ATOM     18  C   LIG A   1      -6.317  -2.889 130.801  0.00  0.00    -0.007 A 
ATOM     19  C   LIG A   1      -5.735  -4.060 130.292  0.00  0.00    +0.007 A 
ATOM     20  C   LIG A   1      -5.386  -5.109 131.145  0.00  0.00    +0.000 A 
ATOM     21  C   LIG A   1      -5.610  -4.999 132.516  0.00  0.00    +0.000 A 
ATOM     22  C   LIG A   1      -6.178  -3.840 133.038  0.00  0.00    +0.000 A 
ATOM     23  C   LIG A   1      -6.524  -2.789 132.188  0.00  0.00    +0.007 A 
ENDBRANCH   4  18
BRANCH   9  24
ATOM     24  O   LIG A   1      -9.437   1.309 125.051  0.00  0.00    -0.491 OA
ATOM     25  C   LIG A   1      -8.707   2.484 124.718  0.00  0.00    +0.277 C 
ENDBRANCH   9  24
TORSDOF 2
ENDMDL
MODEL 5
REMARK VINA RESULT:      -7.8      2.517      8.079
REMARK  Name = NuBBE_1322
REMARK  5 active torsions:
REMARK  status: ('A' for Active; 'I' for Inactive)
REMARK    1  A    between atoms: C_4  and  C_20
REMARK    2  A    between atoms: C_9  and  O_18
REMARK    3  A    between atoms: C_14  and  C_15
REMARK    4  A    between atoms: C_14  and  C_17
REMARK    5  A    between atoms: O_18  and  C_19
REMARK                            x       y       z     vdW  Elec       q    Type
REMARK                         _______ _______ _______ _____ _____    ______ ____
ROOT
ATOM      1  O   LIG A   1     -10.024  -2.788 125.844  0.00  0.00    -0.292 OA
ATOM      2  C   LIG A   1      -8.963  -2.293 126.205  0.00  0.00    +0.171 C 
ATOM      3  C   LIG A   1      -7.967  -3.039 127.042  0.00  0.00    +0.129 C 
ATOM      4  C   LIG A   1      -7.241  -2.035 127.921  0.00  0.00    +0.211 C 
ATOM      5  O   LIG A   1      -6.570  -1.045 127.128  0.00  0.00    -0.482 OA
ATOM      6  C   LIG A   1      -7.378  -0.388 126.236  0.00  0.00    +0.143 A 
ATOM      7  C   LIG A   1      -8.568  -0.939 125.761  0.00  0.00    +0.063 A 
ATOM      8  C   LIG A   1      -9.359  -0.254 124.833  0.00  0.00    +0.064 A 
ATOM      9  C   LIG A   1      -8.945   0.989 124.351  0.00  0.00    +0.163 A 
ATOM     10  C   LIG A   1      -7.743   1.549 124.827  0.00  0.00    +0.174 A 
ATOM     11  C   LIG A   1      -6.954   0.863 125.765  0.00  0.00    +0.062 A 
ATOM     12  C   LIG A   1      -5.705   1.466 126.224  0.00  0.00    +0.015 C 
ATOM     13  C   LIG A   1      -5.428   2.716 125.846  0.00  0.00    +0.020 C 
ATOM     14  C   LIG A   1      -6.337   3.521 124.951  0.00  0.00    +0.124 C 
ATOM     15  C   LIG A   1      -5.503   4.148 123.828  0.00  0.00    +0.060 C 
ATOM     16  O   LIG A   1      -7.373   2.761 124.299  0.00  0.00    -0.478 OA
ATOM     17  C   LIG A   1      -7.021   4.626 125.764  0.00  0.00    +0.060 C 
ENDROOT
BRANCH   4  18
ATOM     18  C   LIG A   1      -6.208  -2.736 128.785  0.00  0.00    -0.007 A 
ATOM     19  C   LIG A   1      -4.839  -2.531 128.551  0.00  0.00    +0.007 A 
ATOM     20  C   LIG A   1      -3.880  -3.162 129.346  0.00  0.00    +0.000 A 
ATOM     21  C   LIG A   1      -4.275  -4.001 130.385  0.00  0.00    +0.000 A 
ATOM     22  C   LIG A   1      -5.630  -4.207 130.636  0.00  0.00    +0.000 A 
ATOM     23  C   LIG A   1      -6.590  -3.574 129.846  0.00  0.00    +0.007 A 
ENDBRANCH   4  18
BRANCH   9  24
ATOM     24  O   LIG A   1      -9.630   1.726 123.418  0.00  0.00    -0.491 OA
ATOM     25  C   LIG A   1     -10.152   1.037 122.289  0.00  0.00    +0.277 C 
ENDBRANCH   9  24
TORSDOF 2
ENDMDL
MODEL 6
REMARK VINA RESULT:      -7.7      8.134      9.635
REMARK  Name = NuBBE_1322
REMARK  5 active torsions:
REMARK  status: ('A' for Active; 'I' for Inactive)
REMARK    1  A    between atoms: C_4  and  C_20
REMARK    2  A    between atoms: C_9  and  O_18
REMARK    3  A    between atoms: C_14  and  C_15
REMARK    4  A    between atoms: C_14  and  C_17
REMARK    5  A    between atoms: O_18  and  C_19
REMARK                            x       y       z     vdW  Elec       q    Type
REMARK                         _______ _______ _______ _____ _____    ______ ____
ROOT
ATOM      1  O   LIG A   1      -9.496   2.432 131.415  0.00  0.00    -0.292 OA
ATOM      2  C   LIG A   1      -9.197   3.600 131.197  0.00  0.00    +0.171 C 
ATOM      3  C   LIG A   1     -10.226   4.669 130.975  0.00  0.00    +0.129 C 
ATOM      4  C   LIG A   1      -9.639   5.698 130.022  0.00  0.00    +0.211 C 
ATOM      5  O   LIG A   1      -8.441   6.276 130.560  0.00  0.00    -0.482 OA
ATOM      6  C   LIG A   1      -7.480   5.365 130.914  0.00  0.00    +0.143 A 
ATOM      7  C   LIG A   1      -7.785   4.038 131.221  0.00  0.00    +0.063 A 
ATOM      8  C   LIG A   1      -6.784   3.138 131.601  0.00  0.00    +0.064 A 
ATOM      9  C   LIG A   1      -5.461   3.573 131.703  0.00  0.00    +0.163 A 
ATOM     10  C   LIG A   1      -5.149   4.913 131.395  0.00  0.00    +0.174 A 
ATOM     11  C   LIG A   1      -6.154   5.813 131.006  0.00  0.00    +0.062 A 
ATOM     12  C   LIG A   1      -5.796   7.198 130.711  0.00  0.00    +0.015 C 
ATOM     13  C   LIG A   1      -4.503   7.526 130.680  0.00  0.00    +0.020 C 
ATOM     14  C   LIG A   1      -3.401   6.534 130.957  0.00  0.00    +0.124 C 
ATOM     15  C   LIG A   1      -2.419   7.148 131.964  0.00  0.00    +0.060 C 
ATOM     16  O   LIG A   1      -3.837   5.290 131.538  0.00  0.00    -0.478 OA
ATOM     17  C   LIG A   1      -2.662   6.200 129.656  0.00  0.00    +0.060 C 
ENDROOT
BRANCH   4  18
ATOM     18  C   LIG A   1     -10.637   6.814 129.769  0.00  0.00    -0.007 A 
ATOM     19  C   LIG A   1     -10.455   7.688 128.685  0.00  0.00    +0.007 A 
ATOM     20  C   LIG A   1     -11.372   8.711 128.435  0.00  0.00    +0.000 A 
ATOM     21  C   LIG A   1     -12.482   8.872 129.261  0.00  0.00    +0.000 A 
ATOM     22  C   LIG A   1     -12.683   8.007 130.334  0.00  0.00    +0.000 A 
ATOM     23  C   LIG A   1     -11.770   6.981 130.583  0.00  0.00    +0.007 A 
ENDBRANCH   4  18
BRANCH   9  24
ATOM     24  O   LIG A   1      -4.414   2.781 132.098  0.00  0.00    -0.491 OA
ATOM     25  C   LIG A   1      -4.362   1.455 131.586  0.00  0.00    +0.277 C 
ENDBRANCH   9  24
TORSDOF 2
ENDMDL
MODEL 7
REMARK VINA RESULT:      -7.5      6.221      9.736
REMARK  Name = NuBBE_1322
REMARK  5 active torsions:
REMARK  status: ('A' for Active; 'I' for Inactive)
REMARK    1  A    between atoms: C_4  and  C_20
REMARK    2  A    between atoms: C_9  and  O_18
REMARK    3  A    between atoms: C_14  and  C_15
REMARK    4  A    between atoms: C_14  and  C_17
REMARK    5  A    between atoms: O_18  and  C_19
REMARK                            x       y       z     vdW  Elec       q    Type
REMARK                         _______ _______ _______ _____ _____    ______ ____
ROOT
ATOM      1  O   LIG A   1      -6.158   0.618 134.238  0.00  0.00    -0.292 OA
ATOM      2  C   LIG A   1      -6.874   0.761 133.254  0.00  0.00    +0.171 C 
ATOM      3  C   LIG A   1      -7.127  -0.345 132.272  0.00  0.00    +0.129 C 
ATOM      4  C   LIG A   1      -7.332   0.278 130.901  0.00  0.00    +0.211 C 
ATOM      5  O   LIG A   1      -8.440   1.189 130.909  0.00  0.00    -0.482 OA
ATOM      6  C   LIG A   1      -8.361   2.172 131.861  0.00  0.00    +0.143 A 
ATOM      7  C   LIG A   1      -7.599   2.028 133.021  0.00  0.00    +0.063 A 
ATOM      8  C   LIG A   1      -7.558   3.040 133.987  0.00  0.00    +0.064 A 
ATOM      9  C   LIG A   1      -8.309   4.203 133.805  0.00  0.00    +0.163 A 
ATOM     10  C   LIG A   1      -9.081   4.352 132.636  0.00  0.00    +0.174 A 
ATOM     11  C   LIG A   1      -9.115   3.338 131.665  0.00  0.00    +0.062 A 
ATOM     12  C   LIG A   1      -9.940   3.520 130.472  0.00  0.00    +0.015 C 
ATOM     13  C   LIG A   1     -10.520   4.706 130.278  0.00  0.00    +0.020 C 
ATOM     14  C   LIG A   1     -10.377   5.855 131.244  0.00  0.00    +0.124 C 
ATOM     15  C   LIG A   1     -11.765   6.438 131.535  0.00  0.00    +0.060 C 
ATOM     16  O   LIG A   1      -9.818   5.505 132.524  0.00  0.00    -0.478 OA
ATOM     17  C   LIG A   1      -9.481   6.940 130.633  0.00  0.00    +0.060 C 
ENDROOT
BRANCH   4  18
ATOM     18  C   LIG A   1      -7.605  -0.799 129.866  0.00  0.00    -0.007 A 
ATOM     19  C   LIG A   1      -7.949  -2.096 130.276  0.00  0.00    +0.007 A 
ATOM     20  C   LIG A   1      -8.213  -3.093 129.333  0.00  0.00    +0.000 A 
ATOM     21  C   LIG A   1      -8.140  -2.804 127.972  0.00  0.00    +0.000 A 
ATOM     22  C   LIG A   1      -7.809  -1.519 127.550  0.00  0.00    +0.000 A 
ATOM     23  C   LIG A   1      -7.549  -0.522 128.490  0.00  0.00    +0.007 A 
ENDBRANCH   4  18
BRANCH   9  24
ATOM     24  O   LIG A   1      -8.363   5.238 134.704  0.00  0.00    -0.491 OA
ATOM     25  C   LIG A   1      -7.292   5.362 135.631  0.00  0.00    +0.277 C 
ENDBRANCH   9  24
TORSDOF 2
ENDMDL
MODEL 8
REMARK VINA RESULT:      -7.5      4.773      7.279
REMARK  Name = NuBBE_1322
REMARK  5 active torsions:
REMARK  status: ('A' for Active; 'I' for Inactive)
REMARK    1  A    between atoms: C_4  and  C_20
REMARK    2  A    between atoms: C_9  and  O_18
REMARK    3  A    between atoms: C_14  and  C_15
REMARK    4  A    between atoms: C_14  and  C_17
REMARK    5  A    between atoms: O_18  and  C_19
REMARK                            x       y       z     vdW  Elec       q    Type
REMARK                         _______ _______ _______ _____ _____    ______ ____
ROOT
ATOM      1  O   LIG A   1      -8.786   2.314 128.094  0.00  0.00    -0.292 OA
ATOM      2  C   LIG A   1      -8.275   1.208 128.221  0.00  0.00    +0.171 C 
ATOM      3  C   LIG A   1      -7.732   0.430 127.059  0.00  0.00    +0.129 C 
ATOM      4  C   LIG A   1      -7.907  -1.050 127.358  0.00  0.00    +0.211 C 
ATOM      5  O   LIG A   1      -7.215  -1.419 128.559  0.00  0.00    -0.482 OA
ATOM      6  C   LIG A   1      -7.553  -0.676 129.660  0.00  0.00    +0.143 A 
ATOM      7  C   LIG A   1      -8.090   0.607 129.560  0.00  0.00    +0.063 A 
ATOM      8  C   LIG A   1      -8.403   1.349 130.704  0.00  0.00    +0.064 A 
ATOM      9  C   LIG A   1      -8.153   0.814 131.969  0.00  0.00    +0.163 A 
ATOM     10  C   LIG A   1      -7.609  -0.482 132.075  0.00  0.00    +0.174 A 
ATOM     11  C   LIG A   1      -7.303  -1.228 130.926  0.00  0.00    +0.062 A 
ATOM     12  C   LIG A   1      -6.724  -2.562 131.074  0.00  0.00    +0.015 C 
ATOM     13  C   LIG A   1      -6.642  -3.084 132.299  0.00  0.00    +0.020 C 
ATOM     14  C   LIG A   1      -7.099  -2.349 133.535  0.00  0.00    +0.124 C 
ATOM     15  C   LIG A   1      -5.999  -2.432 134.600  0.00  0.00    +0.060 C 
ATOM     16  O   LIG A   1      -7.360  -0.946 133.343  0.00  0.00    -0.478 OA
ATOM     17  C   LIG A   1      -8.385  -2.986 134.072  0.00  0.00    +0.060 C 
ENDROOT
BRANCH   4  18
ATOM     18  C   LIG A   1      -7.363  -1.888 126.215  0.00  0.00    -0.007 A 
ATOM     19  C   LIG A   1      -8.142  -2.918 125.665  0.00  0.00    +0.007 A 
ATOM     20  C   LIG A   1      -7.658  -3.689 124.606  0.00  0.00    +0.000 A 
ATOM     21  C   LIG A   1      -6.391  -3.439 124.082  0.00  0.00    +0.000 A 
ATOM     22  C   LIG A   1      -5.609  -2.415 124.610  0.00  0.00    +0.000 A 
ATOM     23  C   LIG A   1      -6.094  -1.640 125.665  0.00  0.00    +0.007 A 
ENDBRANCH   4  18
BRANCH   9  24
ATOM     24  O   LIG A   1      -8.392   1.470 133.149  0.00  0.00    -0.491 OA
ATOM     25  C   LIG A   1      -8.923   2.787 133.074  0.00  0.00    +0.277 C 
ENDBRANCH   9  24
TORSDOF 2
ENDMDL
MODEL 9
REMARK VINA RESULT:      -7.4      5.260      7.740
REMARK  Name = NuBBE_1322
REMARK  5 active torsions:
REMARK  status: ('A' for Active; 'I' for Inactive)
REMARK    1  A    between atoms: C_4  and  C_20
REMARK    2  A    between atoms: C_9  and  O_18
REMARK    3  A    between atoms: C_14  and  C_15
REMARK    4  A    between atoms: C_14  and  C_17
REMARK    5  A    between atoms: O_18  and  C_19
REMARK                            x       y       z     vdW  Elec       q    Type
REMARK                         _______ _______ _______ _____ _____    ______ ____
ROOT
ATOM      1  O   LIG A   1      -6.863  -3.648 131.178  0.00  0.00    -0.292 OA
ATOM      2  C   LIG A   1      -7.237  -2.863 130.314  0.00  0.00    +0.171 C 
ATOM      3  C   LIG A   1      -7.615  -3.305 128.931  0.00  0.00    +0.129 C 
ATOM      4  C   LIG A   1      -7.270  -2.184 127.966  0.00  0.00    +0.211 C 
ATOM      5  O   LIG A   1      -7.971  -0.978 128.303  0.00  0.00    -0.482 OA
ATOM      6  C   LIG A   1      -7.787  -0.557 129.595  0.00  0.00    +0.143 A 
ATOM      7  C   LIG A   1      -7.412  -1.427 130.618  0.00  0.00    +0.063 A 
ATOM      8  C   LIG A   1      -7.256  -0.971 131.931  0.00  0.00    +0.064 A 
ATOM      9  C   LIG A   1      -7.502   0.370 132.234  0.00  0.00    +0.163 A 
ATOM     10  C   LIG A   1      -7.881   1.253 131.204  0.00  0.00    +0.174 A 
ATOM     11  C   LIG A   1      -8.031   0.794 129.885  0.00  0.00    +0.062 A 
ATOM     12  C   LIG A   1      -8.442   1.734 128.845  0.00  0.00    +0.015 C 
ATOM     13  C   LIG A   1      -8.522   3.029 129.157  0.00  0.00    +0.020 C 
ATOM     14  C   LIG A   1      -8.226   3.558 130.538  0.00  0.00    +0.124 C 
ATOM     15  C   LIG A   1      -9.360   4.497 130.966  0.00  0.00    +0.060 C 
ATOM     16  O   LIG A   1      -8.135   2.553 131.565  0.00  0.00    -0.478 OA
ATOM     17  C   LIG A   1      -6.898   4.325 130.527  0.00  0.00    +0.060 C 
ENDROOT
BRANCH   4  18
ATOM     18  C   LIG A   1      -7.643  -2.573 126.547  0.00  0.00    -0.007 A 
ATOM     19  C   LIG A   1      -8.979  -2.862 126.225  0.00  0.00    +0.007 A 
ATOM     20  C   LIG A   1      -9.336  -3.210 124.921  0.00  0.00    +0.000 A 
ATOM     21  C   LIG A   1      -8.367  -3.272 123.923  0.00  0.00    +0.000 A 
ATOM     22  C   LIG A   1      -7.039  -2.979 124.224  0.00  0.00    +0.000 A 
ATOM     23  C   LIG A   1      -6.680  -2.626 125.525  0.00  0.00    +0.007 A 
ENDBRANCH   4  18
BRANCH   9  24
ATOM     24  O   LIG A   1      -7.408   0.909 133.492  0.00  0.00    -0.491 OA
ATOM     25  C   LIG A   1      -6.116   0.988 134.080  0.00  0.00    +0.277 C 
ENDBRANCH   9  24
TORSDOF 2
ENDMDL
