MODEL 1
REMARK VINA RESULT:      -6.5      0.000      0.000
REMARK  Name = NuBBE_1998
REMARK  18 active torsions:
REMARK  status: ('A' for Active; 'I' for Inactive)
REMARK    1  A    between atoms: C_1  and  C_2
REMARK    2  A    between atoms: C_3  and  O_4
REMARK    3  A    between atoms: O_4  and  C_5
REMARK    4  A    between atoms: C_7  and  O_8
REMARK    5  A    between atoms: O_8  and  C_9
REMARK    6  A    between atoms: C_10  and  C_11
REMARK    7  A    between atoms: C_11  and  C_12
REMARK    8  A    between atoms: C_13  and  O_14
REMARK    9  A    between atoms: O_14  and  C_15
REMARK   10  A    between atoms: C_17  and  O_18
REMARK   11  A    between atoms: O_18  and  C_19
REMARK   12  A    between atoms: C_20  and  C_21
REMARK   13  A    between atoms: C_22  and  O_23
REMARK   14  A    between atoms: O_23  and  C_24
REMARK   15  A    between atoms: C_24  and  C_25
REMARK   16  A    between atoms: C_28  and  O_29
REMARK   17  A    between atoms: O_29  and  C_30
REMARK   18  A    between atoms: C_30  and  C_31
REMARK                            x       y       z     vdW  Elec       q    Type
REMARK                         _______ _______ _______ _____ _____    ______ ____
ROOT
ATOM      1  C   LIG A   1      -6.335  -0.487 126.142  0.00  0.00    +0.207 C 
ATOM      2  O   LIG A   1      -5.242  -1.023 125.921  0.00  0.00    -0.286 OA
ENDROOT
BRANCH   1   8
ATOM      3  C   LIG A   1     -10.156   0.766 122.603  0.00  0.00    +0.051 C 
ATOM      4  C   LIG A   1      -8.895   1.011 123.421  0.00  0.00    +0.034 A 
ATOM      5  C   LIG A   1      -8.356   2.297 123.278  0.00  0.00    +0.130 A 
ATOM      6  C   LIG A   1      -7.176   2.615 123.930  0.00  0.00    +0.092 A 
ATOM      7  C   LIG A   1      -6.489   1.676 124.736  0.00  0.00    +0.138 A 
ATOM      8  C   LIG A   1      -7.016   0.371 125.006  0.00  0.00    +0.107 A 
ATOM      9  C   LIG A   1      -8.199   0.044 124.243  0.00  0.00    +0.152 A 
BRANCH   5  10
ATOM     10  O   LIG A   1      -9.069   3.181 122.504  0.00  0.00    -0.495 OA
ATOM     11  C   LIG A   1      -8.468   3.576 121.277  0.00  0.00    +0.277 C 
ENDBRANCH   5  10
BRANCH   7  12
ATOM     12  O   LIG A   1      -5.384   2.263 125.325  0.00  0.00    -0.494 OA
ATOM     13  C   LIG A   1      -5.319   3.687 125.191  0.00  0.00    +0.277 C 
ENDBRANCH   7  12
BRANCH   9  14
ATOM     14  O   LIG A   1      -8.808  -1.239 124.371  0.00  0.00    -0.425 OA
BRANCH  14  15
ATOM     15  C   LIG A   1      -8.470  -2.258 123.479  0.00  0.00    +0.309 C 
ATOM     16  C   LIG A   1      -9.489  -3.369 123.510  0.00  0.00    +0.136 C 
ATOM     17  O   LIG A   1      -7.520  -2.240 122.703  0.00  0.00    -0.251 OA
ENDBRANCH  14  15
ENDBRANCH   9  14
ENDBRANCH   1   8
BRANCH   1  18
ATOM     18  C   LIG A   1      -6.840  -0.696 127.557  0.00  0.00    +0.107 A 
ATOM     19  C   LIG A   1      -7.450  -1.910 127.893  0.00  0.00    +0.138 A 
ATOM     20  C   LIG A   1      -7.840  -2.188 129.218  0.00  0.00    +0.092 A 
ATOM     21  C   LIG A   1      -7.717  -1.284 130.250  0.00  0.00    +0.130 A 
ATOM     22  C   LIG A   1      -7.395   0.030 129.913  0.00  0.00    +0.034 A 
ATOM     23  C   LIG A   1      -7.610   1.077 130.988  0.00  0.00    +0.051 C 
ATOM     24  C   LIG A   1      -6.952   0.323 128.572  0.00  0.00    +0.152 A 
BRANCH  19  25
ATOM     25  O   LIG A   1      -7.748  -2.828 126.909  0.00  0.00    -0.494 OA
ATOM     26  C   LIG A   1      -8.884  -3.646 127.214  0.00  0.00    +0.277 C 
ENDBRANCH  19  25
BRANCH  21  27
ATOM     27  O   LIG A   1      -7.944  -1.629 131.561  0.00  0.00    -0.495 OA
ATOM     28  C   LIG A   1      -7.324  -2.830 132.040  0.00  0.00    +0.277 C 
ENDBRANCH  21  27
BRANCH  24  29
ATOM     29  O   LIG A   1      -6.952   1.739 128.225  0.00  0.00    -0.425 OA
BRANCH  29  30
ATOM     30  C   LIG A   1      -8.029   2.524 127.827  0.00  0.00    +0.309 C 
ATOM     31  C   LIG A   1      -7.599   3.975 128.228  0.00  0.00    +0.136 C 
ATOM     32  O   LIG A   1      -8.982   2.188 127.234  0.00  0.00    -0.251 OA
ENDBRANCH  29  30
ENDBRANCH  24  29
ENDBRANCH   1  18
TORSDOF 10
ENDMDL
MODEL 2
REMARK VINA RESULT:      -6.3      1.672      4.535
REMARK  Name = NuBBE_1998
REMARK  18 active torsions:
REMARK  status: ('A' for Active; 'I' for Inactive)
REMARK    1  A    between atoms: C_1  and  C_2
REMARK    2  A    between atoms: C_3  and  O_4
REMARK    3  A    between atoms: O_4  and  C_5
REMARK    4  A    between atoms: C_7  and  O_8
REMARK    5  A    between atoms: O_8  and  C_9
REMARK    6  A    between atoms: C_10  and  C_11
REMARK    7  A    between atoms: C_11  and  C_12
REMARK    8  A    between atoms: C_13  and  O_14
REMARK    9  A    between atoms: O_14  and  C_15
REMARK   10  A    between atoms: C_17  and  O_18
REMARK   11  A    between atoms: O_18  and  C_19
REMARK   12  A    between atoms: C_20  and  C_21
REMARK   13  A    between atoms: C_22  and  O_23
REMARK   14  A    between atoms: O_23  and  C_24
REMARK   15  A    between atoms: C_24  and  C_25
REMARK   16  A    between atoms: C_28  and  O_29
REMARK   17  A    between atoms: O_29  and  C_30
REMARK   18  A    between atoms: C_30  and  C_31
REMARK                            x       y       z     vdW  Elec       q    Type
REMARK                         _______ _______ _______ _____ _____    ______ ____
ROOT
ATOM      1  C   LIG A   1      -8.416   1.703 126.920  0.00  0.00    +0.207 C 
ATOM      2  O   LIG A   1      -9.039   2.340 127.777  0.00  0.00    -0.286 OA
ENDROOT
BRANCH   1   8
ATOM      3  C   LIG A   1      -5.362   4.067 123.209  0.00  0.00    +0.051 C 
ATOM      4  C   LIG A   1      -6.618   3.389 123.738  0.00  0.00    +0.034 A 
ATOM      5  C   LIG A   1      -7.599   3.154 122.765  0.00  0.00    +0.130 A 
ATOM      6  C   LIG A   1      -8.809   2.594 123.142  0.00  0.00    +0.092 A 
ATOM      7  C   LIG A   1      -9.090   2.255 124.487  0.00  0.00    +0.138 A 
ATOM      8  C   LIG A   1      -8.112   2.378 125.527  0.00  0.00    +0.107 A 
ATOM      9  C   LIG A   1      -6.896   3.044 125.116  0.00  0.00    +0.152 A 
BRANCH   5  10
ATOM     10  O   LIG A   1      -7.274   3.480 121.471  0.00  0.00    -0.495 OA
ATOM     11  C   LIG A   1      -8.352   3.846 120.619  0.00  0.00    +0.277 C 
ENDBRANCH   5  10
BRANCH   7  12
ATOM     12  O   LIG A   1     -10.331   1.651 124.583  0.00  0.00    -0.494 OA
ATOM     13  C   LIG A   1     -10.886   1.221 123.335  0.00  0.00    +0.277 C 
ENDBRANCH   7  12
BRANCH   9  14
ATOM     14  O   LIG A   1      -5.851   3.283 126.056  0.00  0.00    -0.425 OA
BRANCH  14  15
ATOM     15  C   LIG A   1      -4.800   2.372 126.170  0.00  0.00    +0.309 C 
ATOM     16  C   LIG A   1      -3.525   3.062 126.586  0.00  0.00    +0.136 C 
ATOM     17  O   LIG A   1      -4.892   1.157 126.033  0.00  0.00    -0.251 OA
ENDBRANCH  14  15
ENDBRANCH   9  14
ENDBRANCH   1   8
BRANCH   1  18
ATOM     18  C   LIG A   1      -8.084   0.283 127.340  0.00  0.00    +0.107 A 
ATOM     19  C   LIG A   1      -7.214   0.075 128.417  0.00  0.00    +0.138 A 
ATOM     20  C   LIG A   1      -6.958  -1.221 128.907  0.00  0.00    +0.092 A 
ATOM     21  C   LIG A   1      -7.478  -2.363 128.338  0.00  0.00    +0.130 A 
ATOM     22  C   LIG A   1      -8.102  -2.232 127.098  0.00  0.00    +0.034 A 
ATOM     23  C   LIG A   1      -8.346  -3.512 126.324  0.00  0.00    +0.051 C 
ATOM     24  C   LIG A   1      -8.409  -0.913 126.602  0.00  0.00    +0.152 A 
BRANCH  19  25
ATOM     25  O   LIG A   1      -6.532   1.138 128.969  0.00  0.00    -0.494 OA
ATOM     26  C   LIG A   1      -5.287   0.767 129.574  0.00  0.00    +0.277 C 
ENDBRANCH  19  25
BRANCH  21  27
ATOM     27  O   LIG A   1      -7.357  -3.599 128.927  0.00  0.00    -0.495 OA
ATOM     28  C   LIG A   1      -6.379  -3.737 129.967  0.00  0.00    +0.277 C 
ENDBRANCH  21  27
BRANCH  24  29
ATOM     29  O   LIG A   1      -8.755  -0.858 125.188  0.00  0.00    -0.425 OA
BRANCH  29  30
ATOM     30  C   LIG A   1      -7.907  -0.988 124.093  0.00  0.00    +0.309 C 
ATOM     31  C   LIG A   1      -8.757  -1.801 123.059  0.00  0.00    +0.136 C 
ATOM     32  O   LIG A   1      -6.849  -0.508 123.942  0.00  0.00    -0.251 OA
ENDBRANCH  29  30
ENDBRANCH  24  29
ENDBRANCH   1  18
TORSDOF 10
ENDMDL
MODEL 3
REMARK VINA RESULT:      -6.2      1.767      4.694
REMARK  Name = NuBBE_1998
REMARK  18 active torsions:
REMARK  status: ('A' for Active; 'I' for Inactive)
REMARK    1  A    between atoms: C_1  and  C_2
REMARK    2  A    between atoms: C_3  and  O_4
REMARK    3  A    between atoms: O_4  and  C_5
REMARK    4  A    between atoms: C_7  and  O_8
REMARK    5  A    between atoms: O_8  and  C_9
REMARK    6  A    between atoms: C_10  and  C_11
REMARK    7  A    between atoms: C_11  and  C_12
REMARK    8  A    between atoms: C_13  and  O_14
REMARK    9  A    between atoms: O_14  and  C_15
REMARK   10  A    between atoms: C_17  and  O_18
REMARK   11  A    between atoms: O_18  and  C_19
REMARK   12  A    between atoms: C_20  and  C_21
REMARK   13  A    between atoms: C_22  and  O_23
REMARK   14  A    between atoms: O_23  and  C_24
REMARK   15  A    between atoms: C_24  and  C_25
REMARK   16  A    between atoms: C_28  and  O_29
REMARK   17  A    between atoms: O_29  and  C_30
REMARK   18  A    between atoms: C_30  and  C_31
REMARK                            x       y       z     vdW  Elec       q    Type
REMARK                         _______ _______ _______ _____ _____    ______ ____
ROOT
ATOM      1  C   LIG A   1      -9.032   1.195 125.831  0.00  0.00    +0.207 C 
ATOM      2  O   LIG A   1     -10.229   0.885 125.839  0.00  0.00    -0.286 OA
ENDROOT
BRANCH   1   8
ATOM      3  C   LIG A   1      -5.443   4.307 123.355  0.00  0.00    +0.051 C 
ATOM      4  C   LIG A   1      -6.716   3.480 123.459  0.00  0.00    +0.034 A 
ATOM      5  C   LIG A   1      -7.420   3.351 122.254  0.00  0.00    +0.130 A 
ATOM      6  C   LIG A   1      -8.625   2.668 122.241  0.00  0.00    +0.092 A 
ATOM      7  C   LIG A   1      -9.176   2.098 123.413  0.00  0.00    +0.138 A 
ATOM      8  C   LIG A   1      -8.480   2.106 124.666  0.00  0.00    +0.107 A 
ATOM      9  C   LIG A   1      -7.271   2.899 124.664  0.00  0.00    +0.152 A 
BRANCH   5  10
ATOM     10  O   LIG A   1      -6.837   3.902 121.138  0.00  0.00    -0.495 OA
ATOM     11  C   LIG A   1      -7.681   4.087 120.009  0.00  0.00    +0.277 C 
ENDBRANCH   5  10
BRANCH   7  12
ATOM     12  O   LIG A   1     -10.342   1.416 123.117  0.00  0.00    -0.494 OA
ATOM     13  C   LIG A   1     -10.155   0.198 122.388  0.00  0.00    +0.277 C 
ENDBRANCH   7  12
BRANCH   9  14
ATOM     14  O   LIG A   1      -6.499   3.041 125.854  0.00  0.00    -0.425 OA
BRANCH  14  15
ATOM     15  C   LIG A   1      -6.713   4.135 126.693  0.00  0.00    +0.309 C 
ATOM     16  C   LIG A   1      -5.527   4.371 127.594  0.00  0.00    +0.136 C 
ATOM     17  O   LIG A   1      -7.693   4.872 126.665  0.00  0.00    -0.251 OA
ENDBRANCH  14  15
ENDBRANCH   9  14
ENDBRANCH   1   8
BRANCH   1  18
ATOM     18  C   LIG A   1      -8.234   0.569 126.959  0.00  0.00    +0.107 A 
ATOM     19  C   LIG A   1      -8.322   1.117 128.244  0.00  0.00    +0.138 A 
ATOM     20  C   LIG A   1      -7.681   0.508 129.341  0.00  0.00    +0.092 A 
ATOM     21  C   LIG A   1      -6.881  -0.608 129.229  0.00  0.00    +0.130 A 
ATOM     22  C   LIG A   1      -6.524  -1.011 127.942  0.00  0.00    +0.034 A 
ATOM     23  C   LIG A   1      -5.379  -1.997 127.835  0.00  0.00    +0.051 C 
ATOM     24  C   LIG A   1      -7.203  -0.428 126.810  0.00  0.00    +0.152 A 
BRANCH  19  25
ATOM     25  O   LIG A   1      -8.981   2.311 128.442  0.00  0.00    -0.494 OA
ATOM     26  C   LIG A   1      -8.769   2.873 129.743  0.00  0.00    +0.277 C 
ENDBRANCH  19  25
BRANCH  21  27
ATOM     27  O   LIG A   1      -6.404  -1.285 130.325  0.00  0.00    -0.495 OA
ATOM     28  C   LIG A   1      -7.344  -2.074 131.069  0.00  0.00    +0.277 C 
ENDBRANCH  21  27
BRANCH  24  29
ATOM     29  O   LIG A   1      -6.555  -0.660 125.526  0.00  0.00    -0.425 OA
BRANCH  29  30
ATOM     30  C   LIG A   1      -6.913  -1.570 124.537  0.00  0.00    +0.309 C 
ATOM     31  C   LIG A   1      -6.684  -0.781 123.205  0.00  0.00    +0.136 C 
ATOM     32  O   LIG A   1      -7.212  -2.696 124.670  0.00  0.00    -0.251 OA
ENDBRANCH  29  30
ENDBRANCH  24  29
ENDBRANCH   1  18
TORSDOF 10
ENDMDL
MODEL 4
REMARK VINA RESULT:      -6.2      1.827      6.748
REMARK  Name = NuBBE_1998
REMARK  18 active torsions:
REMARK  status: ('A' for Active; 'I' for Inactive)
REMARK    1  A    between atoms: C_1  and  C_2
REMARK    2  A    between atoms: C_3  and  O_4
REMARK    3  A    between atoms: O_4  and  C_5
REMARK    4  A    between atoms: C_7  and  O_8
REMARK    5  A    between atoms: O_8  and  C_9
REMARK    6  A    between atoms: C_10  and  C_11
REMARK    7  A    between atoms: C_11  and  C_12
REMARK    8  A    between atoms: C_13  and  O_14
REMARK    9  A    between atoms: O_14  and  C_15
REMARK   10  A    between atoms: C_17  and  O_18
REMARK   11  A    between atoms: O_18  and  C_19
REMARK   12  A    between atoms: C_20  and  C_21
REMARK   13  A    between atoms: C_22  and  O_23
REMARK   14  A    between atoms: O_23  and  C_24
REMARK   15  A    between atoms: C_24  and  C_25
REMARK   16  A    between atoms: C_28  and  O_29
REMARK   17  A    between atoms: O_29  and  C_30
REMARK   18  A    between atoms: C_30  and  C_31
REMARK                            x       y       z     vdW  Elec       q    Type
REMARK                         _______ _______ _______ _____ _____    ______ ____
ROOT
ATOM      1  C   LIG A   1      -8.100   3.002 126.145  0.00  0.00    +0.207 C 
ATOM      2  O   LIG A   1      -8.439   4.058 126.693  0.00  0.00    -0.286 OA
ENDROOT
BRANCH   1   8
ATOM      3  C   LIG A   1      -5.964  -1.747 127.400  0.00  0.00    +0.051 C 
ATOM      4  C   LIG A   1      -6.769  -0.482 127.660  0.00  0.00    +0.034 A 
ATOM      5  C   LIG A   1      -7.238  -0.358 128.974  0.00  0.00    +0.130 A 
ATOM      6  C   LIG A   1      -8.032   0.726 129.313  0.00  0.00    +0.092 A 
ATOM      7  C   LIG A   1      -8.393   1.715 128.367  0.00  0.00    +0.138 A 
ATOM      8  C   LIG A   1      -7.884   1.711 127.027  0.00  0.00    +0.107 A 
ATOM      9  C   LIG A   1      -7.132   0.525 126.685  0.00  0.00    +0.152 A 
BRANCH   5  10
ATOM     10  O   LIG A   1      -6.846  -1.329 129.863  0.00  0.00    -0.495 OA
ATOM     11  C   LIG A   1      -7.663  -1.503 131.014  0.00  0.00    +0.277 C 
ENDBRANCH   5  10
BRANCH   7  12
ATOM     12  O   LIG A   1      -9.126   2.718 128.973  0.00  0.00    -0.494 OA
ATOM     13  C   LIG A   1      -8.541   3.251 130.167  0.00  0.00    +0.277 C 
ENDBRANCH   7  12
BRANCH   9  14
ATOM     14  O   LIG A   1      -6.606   0.359 125.371  0.00  0.00    -0.425 OA
BRANCH  14  15
ATOM     15  C   LIG A   1      -7.286  -0.435 124.447  0.00  0.00    +0.309 C 
ATOM     16  C   LIG A   1      -6.677  -0.315 123.073  0.00  0.00    +0.136 C 
ATOM     17  O   LIG A   1      -8.208  -1.201 124.708  0.00  0.00    -0.251 OA
ENDBRANCH  14  15
ENDBRANCH   9  14
ENDBRANCH   1   8
BRANCH   1  18
ATOM     18  C   LIG A   1      -7.873   3.138 124.651  0.00  0.00    +0.107 A 
ATOM     19  C   LIG A   1      -8.837   2.641 123.766  0.00  0.00    +0.138 A 
ATOM     20  C   LIG A   1      -8.719   2.836 122.376  0.00  0.00    +0.092 A 
ATOM     21  C   LIG A   1      -7.639   3.456 121.786  0.00  0.00    +0.130 A 
ATOM     22  C   LIG A   1      -6.526   3.700 122.589  0.00  0.00    +0.034 A 
ATOM     23  C   LIG A   1      -5.236   4.045 121.872  0.00  0.00    +0.051 C 
ATOM     24  C   LIG A   1      -6.644   3.547 124.019  0.00  0.00    +0.152 A 
BRANCH  19  25
ATOM     25  O   LIG A   1      -9.886   1.882 124.241  0.00  0.00    -0.494 OA
ATOM     26  C   LIG A   1     -10.488   1.049 123.243  0.00  0.00    +0.277 C 
ENDBRANCH  19  25
BRANCH  21  27
ATOM     27  O   LIG A   1      -7.619   3.787 120.452  0.00  0.00    -0.495 OA
ATOM     28  C   LIG A   1      -8.881   4.047 119.822  0.00  0.00    +0.277 C 
ENDBRANCH  21  27
BRANCH  24  29
ATOM     29  O   LIG A   1      -5.375   3.505 124.734  0.00  0.00    -0.425 OA
BRANCH  29  30
ATOM     30  C   LIG A   1      -5.002   4.230 125.861  0.00  0.00    +0.309 C 
ATOM     31  C   LIG A   1      -3.894   3.344 126.523  0.00  0.00    +0.136 C 
ATOM     32  O   LIG A   1      -5.358   5.301 126.178  0.00  0.00    -0.251 OA
ENDBRANCH  29  30
ENDBRANCH  24  29
ENDBRANCH   1  18
TORSDOF 10
ENDMDL
MODEL 5
REMARK VINA RESULT:      -6.2      1.977      6.819
REMARK  Name = NuBBE_1998
REMARK  18 active torsions:
REMARK  status: ('A' for Active; 'I' for Inactive)
REMARK    1  A    between atoms: C_1  and  C_2
REMARK    2  A    between atoms: C_3  and  O_4
REMARK    3  A    between atoms: O_4  and  C_5
REMARK    4  A    between atoms: C_7  and  O_8
REMARK    5  A    between atoms: O_8  and  C_9
REMARK    6  A    between atoms: C_10  and  C_11
REMARK    7  A    between atoms: C_11  and  C_12
REMARK    8  A    between atoms: C_13  and  O_14
REMARK    9  A    between atoms: O_14  and  C_15
REMARK   10  A    between atoms: C_17  and  O_18
REMARK   11  A    between atoms: O_18  and  C_19
REMARK   12  A    between atoms: C_20  and  C_21
REMARK   13  A    between atoms: C_22  and  O_23
REMARK   14  A    between atoms: O_23  and  C_24
REMARK   15  A    between atoms: C_24  and  C_25
REMARK   16  A    between atoms: C_28  and  O_29
REMARK   17  A    between atoms: O_29  and  C_30
REMARK   18  A    between atoms: C_30  and  C_31
REMARK                            x       y       z     vdW  Elec       q    Type
REMARK                         _______ _______ _______ _____ _____    ______ ____
ROOT
ATOM      1  C   LIG A   1      -7.759   2.064 125.921  0.00  0.00    +0.207 C 
ATOM      2  O   LIG A   1      -8.696   2.643 126.484  0.00  0.00    -0.286 OA
ENDROOT
BRANCH   1   8
ATOM      3  C   LIG A   1      -5.861  -2.939 126.168  0.00  0.00    +0.051 C 
ATOM      4  C   LIG A   1      -6.097  -1.524 126.677  0.00  0.00    +0.034 A 
ATOM      5  C   LIG A   1      -5.454  -1.232 127.887  0.00  0.00    +0.130 A 
ATOM      6  C   LIG A   1      -5.644   0.008 128.475  0.00  0.00    +0.092 A 
ATOM      7  C   LIG A   1      -6.478   0.993 127.894  0.00  0.00    +0.138 A 
ATOM      8  C   LIG A   1      -7.100   0.810 126.616  0.00  0.00    +0.107 A 
ATOM      9  C   LIG A   1      -6.951  -0.522 126.074  0.00  0.00    +0.152 A 
BRANCH   5  10
ATOM     10  O   LIG A   1      -4.639  -2.210 128.403  0.00  0.00    -0.495 OA
ATOM     11  C   LIG A   1      -4.474  -2.217 129.816  0.00  0.00    +0.277 C 
ENDBRANCH   5  10
BRANCH   7  12
ATOM     12  O   LIG A   1      -6.441   2.157 128.639  0.00  0.00    -0.494 OA
ATOM     13  C   LIG A   1      -7.307   2.166 129.780  0.00  0.00    +0.277 C 
ENDBRANCH   7  12
BRANCH   9  14
ATOM     14  O   LIG A   1      -7.559  -0.867 124.831  0.00  0.00    -0.425 OA
BRANCH  14  15
ATOM     15  C   LIG A   1      -8.663  -1.720 124.813  0.00  0.00    +0.309 C 
ATOM     16  C   LIG A   1      -8.618  -2.644 123.622  0.00  0.00    +0.136 C 
ATOM     17  O   LIG A   1      -9.527  -1.785 125.681  0.00  0.00    -0.251 OA
ENDBRANCH  14  15
ENDBRANCH   9  14
ENDBRANCH   1   8
BRANCH   1  18
ATOM     18  C   LIG A   1      -7.329   2.722 124.624  0.00  0.00    +0.107 A 
ATOM     19  C   LIG A   1      -6.175   3.513 124.608  0.00  0.00    +0.138 A 
ATOM     20  C   LIG A   1      -5.680   4.058 123.407  0.00  0.00    +0.092 A 
ATOM     21  C   LIG A   1      -6.315   3.916 122.192  0.00  0.00    +0.130 A 
ATOM     22  C   LIG A   1      -7.608   3.396 122.204  0.00  0.00    +0.034 A 
ATOM     23  C   LIG A   1      -8.421   3.572 120.938  0.00  0.00    +0.051 C 
ATOM     24  C   LIG A   1      -8.113   2.795 123.415  0.00  0.00    +0.152 A 
BRANCH  19  25
ATOM     25  O   LIG A   1      -5.542   3.835 125.790  0.00  0.00    -0.494 OA
ATOM     26  C   LIG A   1      -4.208   3.320 125.885  0.00  0.00    +0.277 C 
ENDBRANCH  19  25
BRANCH  21  27
ATOM     27  O   LIG A   1      -5.734   4.307 121.009  0.00  0.00    -0.495 OA
ATOM     28  C   LIG A   1      -4.581   5.155 121.093  0.00  0.00    +0.277 C 
ENDBRANCH  21  27
BRANCH  24  29
ATOM     29  O   LIG A   1      -9.553   2.579 123.434  0.00  0.00    -0.425 OA
BRANCH  29  30
ATOM     30  C   LIG A   1     -10.238   1.383 123.628  0.00  0.00    +0.309 C 
ATOM     31  C   LIG A   1      -9.997   0.597 122.296  0.00  0.00    +0.136 C 
ATOM     32  O   LIG A   1     -10.775   1.013 124.602  0.00  0.00    -0.251 OA
ENDBRANCH  29  30
ENDBRANCH  24  29
ENDBRANCH   1  18
TORSDOF 10
ENDMDL
MODEL 6
REMARK VINA RESULT:      -6.1      1.797      6.313
REMARK  Name = NuBBE_1998
REMARK  18 active torsions:
REMARK  status: ('A' for Active; 'I' for Inactive)
REMARK    1  A    between atoms: C_1  and  C_2
REMARK    2  A    between atoms: C_3  and  O_4
REMARK    3  A    between atoms: O_4  and  C_5
REMARK    4  A    between atoms: C_7  and  O_8
REMARK    5  A    between atoms: O_8  and  C_9
REMARK    6  A    between atoms: C_10  and  C_11
REMARK    7  A    between atoms: C_11  and  C_12
REMARK    8  A    between atoms: C_13  and  O_14
REMARK    9  A    between atoms: O_14  and  C_15
REMARK   10  A    between atoms: C_17  and  O_18
REMARK   11  A    between atoms: O_18  and  C_19
REMARK   12  A    between atoms: C_20  and  C_21
REMARK   13  A    between atoms: C_22  and  O_23
REMARK   14  A    between atoms: O_23  and  C_24
REMARK   15  A    between atoms: C_24  and  C_25
REMARK   16  A    between atoms: C_28  and  O_29
REMARK   17  A    between atoms: O_29  and  C_30
REMARK   18  A    between atoms: C_30  and  C_31
REMARK                            x       y       z     vdW  Elec       q    Type
REMARK                         _______ _______ _______ _____ _____    ______ ____
ROOT
ATOM      1  C   LIG A   1      -8.817   1.137 125.707  0.00  0.00    +0.207 C 
ATOM      2  O   LIG A   1     -10.014   1.191 125.401  0.00  0.00    -0.286 OA
ENDROOT
BRANCH   1   8
ATOM      3  C   LIG A   1      -6.494  -2.700 128.635  0.00  0.00    +0.051 C 
ATOM      4  C   LIG A   1      -7.184  -1.362 128.407  0.00  0.00    +0.034 A 
ATOM      5  C   LIG A   1      -7.288  -0.565 129.554  0.00  0.00    +0.130 A 
ATOM      6  C   LIG A   1      -7.949   0.651 129.479  0.00  0.00    +0.092 A 
ATOM      7  C   LIG A   1      -8.532   1.113 128.276  0.00  0.00    +0.138 A 
ATOM      8  C   LIG A   1      -8.395   0.403 127.039  0.00  0.00    +0.107 A 
ATOM      9  C   LIG A   1      -7.777  -0.897 127.171  0.00  0.00    +0.152 A 
BRANCH   5  10
ATOM     10  O   LIG A   1      -6.689  -1.044 130.695  0.00  0.00    -0.495 OA
ATOM     11  C   LIG A   1      -7.473  -1.019 131.881  0.00  0.00    +0.277 C 
ENDBRANCH   5  10
BRANCH   7  12
ATOM     12  O   LIG A   1      -9.065   2.377 128.452  0.00  0.00    -0.494 OA
ATOM     13  C   LIG A   1      -9.031   2.859 129.800  0.00  0.00    +0.277 C 
ENDBRANCH   7  12
BRANCH   9  14
ATOM     14  O   LIG A   1      -7.618  -1.740 126.032  0.00  0.00    -0.425 OA
BRANCH  14  15
ATOM     15  C   LIG A   1      -8.674  -2.553 125.618  0.00  0.00    +0.309 C 
ATOM     16  C   LIG A   1      -8.167  -3.816 124.970  0.00  0.00    +0.136 C 
ATOM     17  O   LIG A   1      -9.863  -2.330 125.816  0.00  0.00    -0.251 OA
ENDBRANCH  14  15
ENDBRANCH   9  14
ENDBRANCH   1   8
BRANCH   1  18
ATOM     18  C   LIG A   1      -7.909   1.876 124.743  0.00  0.00    +0.107 A 
ATOM     19  C   LIG A   1      -7.570   1.274 123.526  0.00  0.00    +0.138 A 
ATOM     20  C   LIG A   1      -6.815   1.963 122.556  0.00  0.00    +0.092 A 
ATOM     21  C   LIG A   1      -6.306   3.228 122.750  0.00  0.00    +0.130 A 
ATOM     22  C   LIG A   1      -6.362   3.748 124.043  0.00  0.00    +0.034 A 
ATOM     23  C   LIG A   1      -5.498   4.961 124.323  0.00  0.00    +0.051 C 
ATOM     24  C   LIG A   1      -7.166   3.077 125.035  0.00  0.00    +0.152 A 
BRANCH  19  25
ATOM     25  O   LIG A   1      -7.909  -0.042 123.288  0.00  0.00    -0.494 OA
ATOM     26  C   LIG A   1      -6.798  -0.858 122.897  0.00  0.00    +0.277 C 
ENDBRANCH  19  25
BRANCH  21  27
ATOM     27  O   LIG A   1      -5.721   3.949 121.737  0.00  0.00    -0.495 OA
ATOM     28  C   LIG A   1      -6.430   4.027 120.493  0.00  0.00    +0.277 C 
ENDBRANCH  21  27
BRANCH  24  29
ATOM     29  O   LIG A   1      -6.911   3.493 126.409  0.00  0.00    -0.425 OA
BRANCH  29  30
ATOM     30  C   LIG A   1      -5.868   3.102 127.243  0.00  0.00    +0.309 C 
ATOM     31  C   LIG A   1      -5.814   4.232 128.324  0.00  0.00    +0.136 C 
ATOM     32  O   LIG A   1      -5.251   2.106 127.204  0.00  0.00    -0.251 OA
ENDBRANCH  29  30
ENDBRANCH  24  29
ENDBRANCH   1  18
TORSDOF 10
ENDMDL
MODEL 7
REMARK VINA RESULT:      -6.0      2.454      4.854
REMARK  Name = NuBBE_1998
REMARK  18 active torsions:
REMARK  status: ('A' for Active; 'I' for Inactive)
REMARK    1  A    between atoms: C_1  and  C_2
REMARK    2  A    between atoms: C_3  and  O_4
REMARK    3  A    between atoms: O_4  and  C_5
REMARK    4  A    between atoms: C_7  and  O_8
REMARK    5  A    between atoms: O_8  and  C_9
REMARK    6  A    between atoms: C_10  and  C_11
REMARK    7  A    between atoms: C_11  and  C_12
REMARK    8  A    between atoms: C_13  and  O_14
REMARK    9  A    between atoms: O_14  and  C_15
REMARK   10  A    between atoms: C_17  and  O_18
REMARK   11  A    between atoms: O_18  and  C_19
REMARK   12  A    between atoms: C_20  and  C_21
REMARK   13  A    between atoms: C_22  and  O_23
REMARK   14  A    between atoms: O_23  and  C_24
REMARK   15  A    between atoms: C_24  and  C_25
REMARK   16  A    between atoms: C_28  and  O_29
REMARK   17  A    between atoms: O_29  and  C_30
REMARK   18  A    between atoms: C_30  and  C_31
REMARK                            x       y       z     vdW  Elec       q    Type
REMARK                         _______ _______ _______ _____ _____    ______ ____
ROOT
ATOM      1  C   LIG A   1      -7.476   0.460 128.994  0.00  0.00    +0.207 C 
ATOM      2  O   LIG A   1      -8.062   0.083 130.016  0.00  0.00    -0.286 OA
ENDROOT
BRANCH   1   8
ATOM      3  C   LIG A   1      -8.148  -3.571 125.530  0.00  0.00    +0.051 C 
ATOM      4  C   LIG A   1      -8.272  -2.135 126.021  0.00  0.00    +0.034 A 
ATOM      5  C   LIG A   1      -9.012  -1.299 125.175  0.00  0.00    +0.130 A 
ATOM      6  C   LIG A   1      -9.143   0.044 125.491  0.00  0.00    +0.092 A 
ATOM      7  C   LIG A   1      -8.544   0.603 126.644  0.00  0.00    +0.138 A 
ATOM      8  C   LIG A   1      -7.847  -0.197 127.607  0.00  0.00    +0.107 A 
ATOM      9  C   LIG A   1      -7.656  -1.572 127.204  0.00  0.00    +0.152 A 
BRANCH   5  10
ATOM     10  O   LIG A   1      -9.593  -1.890 124.078  0.00  0.00    -0.495 OA
ATOM     11  C   LIG A   1      -9.277  -1.325 122.812  0.00  0.00    +0.277 C 
ENDBRANCH   5  10
BRANCH   7  12
ATOM     12  O   LIG A   1      -8.883   1.938 126.765  0.00  0.00    -0.494 OA
ATOM     13  C   LIG A   1      -8.000   2.844 126.093  0.00  0.00    +0.277 C 
ENDBRANCH   7  12
BRANCH   9  14
ATOM     14  O   LIG A   1      -6.936  -2.476 128.039  0.00  0.00    -0.425 OA
BRANCH  14  15
ATOM     15  C   LIG A   1      -7.619  -3.228 128.997  0.00  0.00    +0.309 C 
ATOM     16  C   LIG A   1      -6.674  -3.769 130.040  0.00  0.00    +0.136 C 
ATOM     17  O   LIG A   1      -8.835  -3.376 129.051  0.00  0.00    -0.251 OA
ENDBRANCH  14  15
ENDBRANCH   9  14
ENDBRANCH   1   8
BRANCH   1  18
ATOM     18  C   LIG A   1      -6.400   1.496 129.257  0.00  0.00    +0.107 A 
ATOM     19  C   LIG A   1      -5.058   1.100 129.268  0.00  0.00    +0.138 A 
ATOM     20  C   LIG A   1      -4.021   2.043 129.405  0.00  0.00    +0.092 A 
ATOM     21  C   LIG A   1      -4.240   3.389 129.601  0.00  0.00    +0.130 A 
ATOM     22  C   LIG A   1      -5.544   3.787 129.892  0.00  0.00    +0.034 A 
ATOM     23  C   LIG A   1      -5.717   5.186 130.450  0.00  0.00    +0.051 C 
ATOM     24  C   LIG A   1      -6.623   2.846 129.715  0.00  0.00    +0.152 A 
BRANCH  19  25
ATOM     25  O   LIG A   1      -4.733  -0.239 129.221  0.00  0.00    -0.494 OA
ATOM     26  C   LIG A   1      -4.245  -0.754 130.466  0.00  0.00    +0.277 C 
ENDBRANCH  19  25
BRANCH  21  27
ATOM     27  O   LIG A   1      -3.224   4.313 129.563  0.00  0.00    -0.495 OA
ATOM     28  C   LIG A   1      -2.683   4.641 128.275  0.00  0.00    +0.277 C 
ENDBRANCH  21  27
BRANCH  24  29
ATOM     29  O   LIG A   1      -7.880   3.235 130.339  0.00  0.00    -0.425 OA
BRANCH  29  30
ATOM     30  C   LIG A   1      -8.994   3.812 129.738  0.00  0.00    +0.309 C 
ATOM     31  C   LIG A   1     -10.201   3.189 130.516  0.00  0.00    +0.136 C 
ATOM     32  O   LIG A   1      -9.014   4.648 128.916  0.00  0.00    -0.251 OA
ENDBRANCH  29  30
ENDBRANCH  24  29
ENDBRANCH   1  18
TORSDOF 10
ENDMDL
MODEL 8
REMARK VINA RESULT:      -6.0      1.395      3.284
REMARK  Name = NuBBE_1998
REMARK  18 active torsions:
REMARK  status: ('A' for Active; 'I' for Inactive)
REMARK    1  A    between atoms: C_1  and  C_2
REMARK    2  A    between atoms: C_3  and  O_4
REMARK    3  A    between atoms: O_4  and  C_5
REMARK    4  A    between atoms: C_7  and  O_8
REMARK    5  A    between atoms: O_8  and  C_9
REMARK    6  A    between atoms: C_10  and  C_11
REMARK    7  A    between atoms: C_11  and  C_12
REMARK    8  A    between atoms: C_13  and  O_14
REMARK    9  A    between atoms: O_14  and  C_15
REMARK   10  A    between atoms: C_17  and  O_18
REMARK   11  A    between atoms: O_18  and  C_19
REMARK   12  A    between atoms: C_20  and  C_21
REMARK   13  A    between atoms: C_22  and  O_23
REMARK   14  A    between atoms: O_23  and  C_24
REMARK   15  A    between atoms: C_24  and  C_25
REMARK   16  A    between atoms: C_28  and  O_29
REMARK   17  A    between atoms: O_29  and  C_30
REMARK   18  A    between atoms: C_30  and  C_31
REMARK                            x       y       z     vdW  Elec       q    Type
REMARK                         _______ _______ _______ _____ _____    ______ ____
ROOT
ATOM      1  C   LIG A   1      -6.411   1.078 126.449  0.00  0.00    +0.207 C 
ATOM      2  O   LIG A   1      -5.198   0.846 126.491  0.00  0.00    -0.286 OA
ENDROOT
BRANCH   1   8
ATOM      3  C   LIG A   1     -10.043   0.530 122.549  0.00  0.00    +0.051 C 
ATOM      4  C   LIG A   1      -8.888   1.204 123.278  0.00  0.00    +0.034 A 
ATOM      5  C   LIG A   1      -8.485   2.422 122.716  0.00  0.00    +0.130 A 
ATOM      6  C   LIG A   1      -7.405   3.097 123.262  0.00  0.00    +0.092 A 
ATOM      7  C   LIG A   1      -6.687   2.590 124.371  0.00  0.00    +0.138 A 
ATOM      8  C   LIG A   1      -7.087   1.398 125.059  0.00  0.00    +0.107 A 
ATOM      9  C   LIG A   1      -8.160   0.677 124.413  0.00  0.00    +0.152 A 
BRANCH   5  10
ATOM     10  O   LIG A   1      -9.224   2.887 121.655  0.00  0.00    -0.495 OA
ATOM     11  C   LIG A   1      -8.566   3.784 120.769  0.00  0.00    +0.277 C 
ENDBRANCH   5  10
BRANCH   7  12
ATOM     12  O   LIG A   1      -5.706   3.483 124.760  0.00  0.00    -0.494 OA
ATOM     13  C   LIG A   1      -6.099   4.859 124.721  0.00  0.00    +0.277 C 
ENDBRANCH   7  12
BRANCH   9  14
ATOM     14  O   LIG A   1      -8.632  -0.554 124.957  0.00  0.00    -0.425 OA
BRANCH  14  15
ATOM     15  C   LIG A   1      -8.185  -1.764 124.425  0.00  0.00    +0.309 C 
ATOM     16  C   LIG A   1      -9.240  -2.834 124.544  0.00  0.00    +0.136 C 
ATOM     17  O   LIG A   1      -7.112  -1.938 123.857  0.00  0.00    -0.251 OA
ENDBRANCH  14  15
ENDBRANCH   9  14
ENDBRANCH   1   8
BRANCH   1  18
ATOM     18  C   LIG A   1      -7.077   1.083 127.812  0.00  0.00    +0.107 A 
ATOM     19  C   LIG A   1      -7.476   2.301 128.374  0.00  0.00    +0.138 A 
ATOM     20  C   LIG A   1      -8.189   2.346 129.588  0.00  0.00    +0.092 A 
ATOM     21  C   LIG A   1      -8.486   1.227 130.335  0.00  0.00    +0.130 A 
ATOM     22  C   LIG A   1      -7.859   0.034 129.974  0.00  0.00    +0.034 A 
ATOM     23  C   LIG A   1      -7.903  -1.088 130.991  0.00  0.00    +0.051 C 
ATOM     24  C   LIG A   1      -7.162  -0.040 128.714  0.00  0.00    +0.152 A 
BRANCH  19  25
ATOM     25  O   LIG A   1      -7.107   3.489 127.779  0.00  0.00    -0.494 OA
ATOM     26  C   LIG A   1      -6.008   4.138 128.429  0.00  0.00    +0.277 C 
ENDBRANCH  19  25
BRANCH  21  27
ATOM     27  O   LIG A   1      -9.324   1.269 131.423  0.00  0.00    -0.495 OA
ATOM     28  C   LIG A   1      -9.580   2.555 132.003  0.00  0.00    +0.277 C 
ENDBRANCH  21  27
BRANCH  24  29
ATOM     29  O   LIG A   1      -6.281  -1.192 128.571  0.00  0.00    -0.425 OA
BRANCH  29  30
ATOM     30  C   LIG A   1      -6.356  -2.217 127.634  0.00  0.00    +0.309 C 
ATOM     31  C   LIG A   1      -7.744  -2.882 127.921  0.00  0.00    +0.136 C 
ATOM     32  O   LIG A   1      -5.604  -2.454 126.766  0.00  0.00    -0.251 OA
ENDBRANCH  29  30
ENDBRANCH  24  29
ENDBRANCH   1  18
TORSDOF 10
ENDMDL
MODEL 9
REMARK VINA RESULT:      -6.0      2.432      5.543
REMARK  Name = NuBBE_1998
REMARK  18 active torsions:
REMARK  status: ('A' for Active; 'I' for Inactive)
REMARK    1  A    between atoms: C_1  and  C_2
REMARK    2  A    between atoms: C_3  and  O_4
REMARK    3  A    between atoms: O_4  and  C_5
REMARK    4  A    between atoms: C_7  and  O_8
REMARK    5  A    between atoms: O_8  and  C_9
REMARK    6  A    between atoms: C_10  and  C_11
REMARK    7  A    between atoms: C_11  and  C_12
REMARK    8  A    between atoms: C_13  and  O_14
REMARK    9  A    between atoms: O_14  and  C_15
REMARK   10  A    between atoms: C_17  and  O_18
REMARK   11  A    between atoms: O_18  and  C_19
REMARK   12  A    between atoms: C_20  and  C_21
REMARK   13  A    between atoms: C_22  and  O_23
REMARK   14  A    between atoms: O_23  and  C_24
REMARK   15  A    between atoms: C_24  and  C_25
REMARK   16  A    between atoms: C_28  and  O_29
REMARK   17  A    between atoms: O_29  and  C_30
REMARK   18  A    between atoms: C_30  and  C_31
REMARK                            x       y       z     vdW  Elec       q    Type
REMARK                         _______ _______ _______ _____ _____    ______ ____
ROOT
ATOM      1  C   LIG A   1      -7.290   3.819 126.613  0.00  0.00    +0.207 C 
ATOM      2  O   LIG A   1      -7.562   4.824 125.945  0.00  0.00    -0.286 OA
ENDROOT
BRANCH   1   8
ATOM      3  C   LIG A   1      -6.955  -0.322 123.232  0.00  0.00    +0.051 C 
ATOM      4  C   LIG A   1      -7.398   0.394 124.500  0.00  0.00    +0.034 A 
ATOM      5  C   LIG A   1      -8.093  -0.416 125.407  0.00  0.00    +0.130 A 
ATOM      6  C   LIG A   1      -8.595   0.142 126.571  0.00  0.00    +0.092 A 
ATOM      7  C   LIG A   1      -8.433   1.515 126.874  0.00  0.00    +0.138 A 
ATOM      8  C   LIG A   1      -7.660   2.393 126.046  0.00  0.00    +0.107 A 
ATOM      9  C   LIG A   1      -7.226   1.800 124.801  0.00  0.00    +0.152 A 
BRANCH   5  10
ATOM     10  O   LIG A   1      -8.207  -1.747 125.082  0.00  0.00    -0.495 OA
ATOM     11  C   LIG A   1      -9.237  -2.474 125.741  0.00  0.00    +0.277 C 
ENDBRANCH   5  10
BRANCH   7  12
ATOM     12  O   LIG A   1      -8.962   1.801 128.119  0.00  0.00    -0.494 OA
ATOM     13  C   LIG A   1      -8.290   1.169 129.214  0.00  0.00    +0.277 C 
ENDBRANCH   7  12
BRANCH   9  14
ATOM     14  O   LIG A   1      -6.489   2.569 123.853  0.00  0.00    -0.425 OA
BRANCH  14  15
ATOM     15  C   LIG A   1      -7.158   3.208 122.808  0.00  0.00    +0.309 C 
ATOM     16  C   LIG A   1      -6.209   3.568 121.693  0.00  0.00    +0.136 C 
ATOM     17  O   LIG A   1      -8.369   3.392 122.745  0.00  0.00    -0.251 OA
ENDBRANCH  14  15
ENDBRANCH   9  14
ENDBRANCH   1   8
BRANCH   1  18
ATOM     18  C   LIG A   1      -6.675   4.135 127.963  0.00  0.00    +0.107 A 
ATOM     19  C   LIG A   1      -7.469   4.717 128.957  0.00  0.00    +0.138 A 
ATOM     20  C   LIG A   1      -6.969   4.933 130.257  0.00  0.00    +0.092 A 
ATOM     21  C   LIG A   1      -5.671   4.656 130.625  0.00  0.00    +0.130 A 
ATOM     22  C   LIG A   1      -4.768   4.357 129.606  0.00  0.00    +0.034 A 
ATOM     23  C   LIG A   1      -3.297   4.407 129.968  0.00  0.00    +0.051 C 
ATOM     24  C   LIG A   1      -5.268   4.091 128.280  0.00  0.00    +0.152 A 
BRANCH  19  25
ATOM     25  O   LIG A   1      -8.739   5.161 128.655  0.00  0.00    -0.494 OA
ATOM     26  C   LIG A   1      -9.581   5.315 129.803  0.00  0.00    +0.277 C 
ENDBRANCH  19  25
BRANCH  21  27
ATOM     27  O   LIG A   1      -5.249   4.713 131.932  0.00  0.00    -0.495 OA
ATOM     28  C   LIG A   1      -5.740   3.702 132.824  0.00  0.00    +0.277 C 
ENDBRANCH  21  27
BRANCH  24  29
ATOM     29  O   LIG A   1      -4.256   4.110 127.231  0.00  0.00    -0.425 OA
BRANCH  29  30
ATOM     30  C   LIG A   1      -3.644   3.026 126.611  0.00  0.00    +0.309 C 
ATOM     31  C   LIG A   1      -2.132   3.429 126.565  0.00  0.00    +0.136 C 
ATOM     32  O   LIG A   1      -4.132   2.007 126.298  0.00  0.00    -0.251 OA
ENDBRANCH  29  30
ENDBRANCH  24  29
ENDBRANCH   1  18
TORSDOF 10
ENDMDL
