MODEL 1
REMARK VINA RESULT:      -6.8      0.000      0.000
REMARK  Name = NuBBE_1016
REMARK  8 active torsions:
REMARK  status: ('A' for Active; 'I' for Inactive)
REMARK    1  A    between atoms: O_1  and  C_2
REMARK    2  A    between atoms: C_2  and  C_3
REMARK    3  A    between atoms: C_3  and  C_4
REMARK    4  A    between atoms: C_4  and  C_5
REMARK    5  A    between atoms: C_10  and  C_11
REMARK    6  A    between atoms: C_10  and  C_13
REMARK    7  A    between atoms: C_14  and  O_15
REMARK    8  A    between atoms: O_15  and  C_16
REMARK                            x       y       z     vdW  Elec       q    Type
REMARK                         _______ _______ _______ _____ _____    ______ ____
ROOT
ATOM      1  C   LIG A   1      -6.217   3.741 123.085  0.00  0.00    -0.004 A 
ATOM      2  C   LIG A   1      -6.136   3.530 124.473  0.00  0.00    +0.136 A 
ATOM      3  C   LIG A   1      -7.220   2.985 125.180  0.00  0.00    +0.058 A 
ATOM      4  C   LIG A   1      -7.101   2.811 126.626  0.00  0.00    +0.015 C 
ATOM      5  C   LIG A   1      -5.959   3.160 127.225  0.00  0.00    +0.020 C 
ATOM      6  C   LIG A   1      -4.775   3.722 126.481  0.00  0.00    +0.123 C 
ATOM      7  C   LIG A   1      -3.575   2.783 126.651  0.00  0.00    +0.060 C 
ATOM      8  O   LIG A   1      -4.950   3.887 125.060  0.00  0.00    -0.481 OA
ATOM      9  C   LIG A   1      -4.432   5.108 127.037  0.00  0.00    +0.060 C 
ATOM     10  C   LIG A   1      -8.397   2.628 124.486  0.00  0.00    +0.131 A 
ATOM     11  C   LIG A   1      -8.466   2.831 123.104  0.00  0.00    +0.046 A 
ATOM     12  C   LIG A   1      -7.388   3.380 122.412  0.00  0.00    +0.011 A 
ENDROOT
BRANCH  10  13
ATOM     13  O   LIG A   1      -9.422   2.090 125.228  0.00  0.00    -0.494 OA
ATOM     14  C   LIG A   1      -9.797   0.747 124.934  0.00  0.00    +0.277 C 
ENDBRANCH  10  13
BRANCH   1  15
ATOM     15  C   LIG A   1      -5.068   4.322 122.297  0.00  0.00    +0.050 C 
BRANCH  15  16
ATOM     16  C   LIG A   1      -5.222   4.062 120.805  0.00  0.00    +0.125 C 
BRANCH  16  17
ATOM     17  C   LIG A   1      -5.097   5.355 120.049  0.00  0.00    +0.305 C 
ATOM     18  O   LIG A   1      -5.634   5.573 118.970  0.00  0.00    -0.251 OA
BRANCH  17  19
ATOM     19  O   LIG A   1      -4.357   6.284 120.693  0.00  0.00    -0.481 OA
ATOM     20  H   LIG A   1      -4.311   7.146 120.228  0.00  0.00    +0.295 HD
ENDBRANCH  17  19
ENDBRANCH  16  17
ENDBRANCH  15  16
ENDBRANCH   1  15
TORSDOF 5
ENDMDL
MODEL 2
REMARK VINA RESULT:      -6.5      1.904      3.791
REMARK  Name = NuBBE_1016
REMARK  8 active torsions:
REMARK  status: ('A' for Active; 'I' for Inactive)
REMARK    1  A    between atoms: O_1  and  C_2
REMARK    2  A    between atoms: C_2  and  C_3
REMARK    3  A    between atoms: C_3  and  C_4
REMARK    4  A    between atoms: C_4  and  C_5
REMARK    5  A    between atoms: C_10  and  C_11
REMARK    6  A    between atoms: C_10  and  C_13
REMARK    7  A    between atoms: C_14  and  O_15
REMARK    8  A    between atoms: O_15  and  C_16
REMARK                            x       y       z     vdW  Elec       q    Type
REMARK                         _______ _______ _______ _____ _____    ______ ____
ROOT
ATOM      1  C   LIG A   1      -6.186   3.465 123.086  0.00  0.00    -0.004 A 
ATOM      2  C   LIG A   1      -6.570   2.302 123.776  0.00  0.00    +0.136 A 
ATOM      3  C   LIG A   1      -6.413   2.209 125.169  0.00  0.00    +0.058 A 
ATOM      4  C   LIG A   1      -6.799   0.969 125.839  0.00  0.00    +0.015 C 
ATOM      5  C   LIG A   1      -7.305  -0.028 125.108  0.00  0.00    +0.020 C 
ATOM      6  C   LIG A   1      -7.506   0.062 123.618  0.00  0.00    +0.123 C 
ATOM      7  C   LIG A   1      -8.996  -0.094 123.295  0.00  0.00    +0.060 C 
ATOM      8  O   LIG A   1      -7.095   1.299 123.004  0.00  0.00    -0.481 OA
ATOM      9  C   LIG A   1      -6.707  -1.049 122.926  0.00  0.00    +0.060 C 
ATOM     10  C   LIG A   1      -5.881   3.303 125.885  0.00  0.00    +0.131 A 
ATOM     11  C   LIG A   1      -5.511   4.461 125.193  0.00  0.00    +0.046 A 
ATOM     12  C   LIG A   1      -5.663   4.541 123.810  0.00  0.00    +0.011 A 
ENDROOT
BRANCH  10  13
ATOM     13  O   LIG A   1      -5.759   3.160 127.247  0.00  0.00    -0.494 OA
ATOM     14  C   LIG A   1      -5.099   4.208 127.952  0.00  0.00    +0.277 C 
ENDBRANCH  10  13
BRANCH   1  15
ATOM     15  C   LIG A   1      -6.346   3.596 121.591  0.00  0.00    +0.050 C 
BRANCH  15  16
ATOM     16  C   LIG A   1      -5.014   3.877 120.906  0.00  0.00    +0.125 C 
BRANCH  16  17
ATOM     17  C   LIG A   1      -5.073   5.205 120.206  0.00  0.00    +0.305 C 
ATOM     18  O   LIG A   1      -5.736   5.422 119.200  0.00  0.00    -0.251 OA
BRANCH  17  19
ATOM     19  O   LIG A   1      -4.345   6.166 120.817  0.00  0.00    -0.481 OA
ATOM     20  H   LIG A   1      -4.729   7.065 120.738  0.00  0.00    +0.295 HD
ENDBRANCH  17  19
ENDBRANCH  16  17
ENDBRANCH  15  16
ENDBRANCH   1  15
TORSDOF 5
ENDMDL
MODEL 3
REMARK VINA RESULT:      -6.2      3.511      6.660
REMARK  Name = NuBBE_1016
REMARK  8 active torsions:
REMARK  status: ('A' for Active; 'I' for Inactive)
REMARK    1  A    between atoms: O_1  and  C_2
REMARK    2  A    between atoms: C_2  and  C_3
REMARK    3  A    between atoms: C_3  and  C_4
REMARK    4  A    between atoms: C_4  and  C_5
REMARK    5  A    between atoms: C_10  and  C_11
REMARK    6  A    between atoms: C_10  and  C_13
REMARK    7  A    between atoms: C_14  and  O_15
REMARK    8  A    between atoms: O_15  and  C_16
REMARK                            x       y       z     vdW  Elec       q    Type
REMARK                         _______ _______ _______ _____ _____    ______ ____
ROOT
ATOM      1  C   LIG A   1      -6.797  -1.014 124.277  0.00  0.00    -0.004 A 
ATOM      2  C   LIG A   1      -7.385   0.256 124.410  0.00  0.00    +0.136 A 
ATOM      3  C   LIG A   1      -6.860   1.198 125.309  0.00  0.00    +0.058 A 
ATOM      4  C   LIG A   1      -7.522   2.495 125.434  0.00  0.00    +0.015 C 
ATOM      5  C   LIG A   1      -8.592   2.748 124.676  0.00  0.00    +0.020 C 
ATOM      6  C   LIG A   1      -9.155   1.761 123.687  0.00  0.00    +0.123 C 
ATOM      7  C   LIG A   1      -9.086   2.358 122.277  0.00  0.00    +0.060 C 
ATOM      8  O   LIG A   1      -8.475   0.492 123.614  0.00  0.00    -0.481 OA
ATOM      9  C   LIG A   1     -10.612   1.449 124.047  0.00  0.00    +0.060 C 
ATOM     10  C   LIG A   1      -5.719   0.872 126.074  0.00  0.00    +0.131 A 
ATOM     11  C   LIG A   1      -5.134  -0.389 125.929  0.00  0.00    +0.046 A 
ATOM     12  C   LIG A   1      -5.667  -1.322 125.040  0.00  0.00    +0.011 A 
ENDROOT
BRANCH  10  13
ATOM     13  O   LIG A   1      -5.243   1.837 126.931  0.00  0.00    -0.494 OA
ATOM     14  C   LIG A   1      -4.001   2.446 126.593  0.00  0.00    +0.277 C 
ENDBRANCH  10  13
BRANCH   1  15
ATOM     15  C   LIG A   1      -7.336  -2.047 123.317  0.00  0.00    +0.050 C 
BRANCH  15  16
ATOM     16  C   LIG A   1      -7.870  -3.271 124.050  0.00  0.00    +0.125 C 
BRANCH  16  17
ATOM     17  C   LIG A   1      -9.327  -3.079 124.365  0.00  0.00    +0.305 C 
ATOM     18  O   LIG A   1      -9.744  -2.579 125.403  0.00  0.00    -0.251 OA
BRANCH  17  19
ATOM     19  O   LIG A   1     -10.149  -3.479 123.370  0.00  0.00    -0.481 OA
ATOM     20  H   LIG A   1     -10.745  -4.217 123.620  0.00  0.00    +0.295 HD
ENDBRANCH  17  19
ENDBRANCH  16  17
ENDBRANCH  15  16
ENDBRANCH   1  15
TORSDOF 5
ENDMDL
MODEL 4
REMARK VINA RESULT:      -6.1      4.401      6.141
REMARK  Name = NuBBE_1016
REMARK  8 active torsions:
REMARK  status: ('A' for Active; 'I' for Inactive)
REMARK    1  A    between atoms: O_1  and  C_2
REMARK    2  A    between atoms: C_2  and  C_3
REMARK    3  A    between atoms: C_3  and  C_4
REMARK    4  A    between atoms: C_4  and  C_5
REMARK    5  A    between atoms: C_10  and  C_11
REMARK    6  A    between atoms: C_10  and  C_13
REMARK    7  A    between atoms: C_14  and  O_15
REMARK    8  A    between atoms: O_15  and  C_16
REMARK                            x       y       z     vdW  Elec       q    Type
REMARK                         _______ _______ _______ _____ _____    ______ ____
ROOT
ATOM      1  C   LIG A   1      -8.032   0.981 124.891  0.00  0.00    -0.004 A 
ATOM      2  C   LIG A   1      -8.036  -0.338 125.377  0.00  0.00    +0.136 A 
ATOM      3  C   LIG A   1      -8.027  -0.593 126.758  0.00  0.00    +0.058 A 
ATOM      4  C   LIG A   1      -8.003  -1.980 127.218  0.00  0.00    +0.015 C 
ATOM      5  C   LIG A   1      -8.007  -2.959 126.309  0.00  0.00    +0.020 C 
ATOM      6  C   LIG A   1      -8.041  -2.707 124.824  0.00  0.00    +0.123 C 
ATOM      7  C   LIG A   1      -9.314  -3.324 124.233  0.00  0.00    +0.060 C 
ATOM      8  O   LIG A   1      -8.050  -1.323 124.424  0.00  0.00    -0.481 OA
ATOM      9  C   LIG A   1      -6.808  -3.338 124.169  0.00  0.00    +0.060 C 
ATOM     10  C   LIG A   1      -8.034   0.488 127.667  0.00  0.00    +0.131 A 
ATOM     11  C   LIG A   1      -8.041   1.797 127.175  0.00  0.00    +0.046 A 
ATOM     12  C   LIG A   1      -8.040   2.041 125.803  0.00  0.00    +0.011 A 
ENDROOT
BRANCH  10  13
ATOM     13  O   LIG A   1      -8.036   0.179 129.007  0.00  0.00    -0.494 OA
ATOM     14  C   LIG A   1      -8.195   1.260 129.920  0.00  0.00    +0.277 C 
ENDBRANCH  10  13
BRANCH   1  15
ATOM     15  C   LIG A   1      -8.043   1.287 123.412  0.00  0.00    +0.050 C 
BRANCH  15  16
ATOM     16  C   LIG A   1      -9.332   1.983 122.992  0.00  0.00    +0.125 C 
BRANCH  16  17
ATOM     17  C   LIG A   1     -10.470   1.003 123.018  0.00  0.00    +0.305 C 
ATOM     18  O   LIG A   1     -10.503  -0.028 122.358  0.00  0.00    -0.251 OA
BRANCH  17  19
ATOM     19  O   LIG A   1     -11.456   1.347 123.877  0.00  0.00    -0.481 OA
ATOM     20  H   LIG A   1     -11.131   1.715 124.726  0.00  0.00    +0.295 HD
ENDBRANCH  17  19
ENDBRANCH  16  17
ENDBRANCH  15  16
ENDBRANCH   1  15
TORSDOF 5
ENDMDL
MODEL 5
REMARK VINA RESULT:      -6.0      4.054      6.340
REMARK  Name = NuBBE_1016
REMARK  8 active torsions:
REMARK  status: ('A' for Active; 'I' for Inactive)
REMARK    1  A    between atoms: O_1  and  C_2
REMARK    2  A    between atoms: C_2  and  C_3
REMARK    3  A    between atoms: C_3  and  C_4
REMARK    4  A    between atoms: C_4  and  C_5
REMARK    5  A    between atoms: C_10  and  C_11
REMARK    6  A    between atoms: C_10  and  C_13
REMARK    7  A    between atoms: C_14  and  O_15
REMARK    8  A    between atoms: O_15  and  C_16
REMARK                            x       y       z     vdW  Elec       q    Type
REMARK                         _______ _______ _______ _____ _____    ______ ____
ROOT
ATOM      1  C   LIG A   1      -8.973   0.516 125.890  0.00  0.00    -0.004 A 
ATOM      2  C   LIG A   1      -8.452  -0.727 125.491  0.00  0.00    +0.136 A 
ATOM      3  C   LIG A   1      -7.620  -1.465 126.349  0.00  0.00    +0.058 A 
ATOM      4  C   LIG A   1      -7.079  -2.739 125.881  0.00  0.00    +0.015 C 
ATOM      5  C   LIG A   1      -7.408  -3.169 124.659  0.00  0.00    +0.020 C 
ATOM      6  C   LIG A   1      -8.319  -2.405 123.734  0.00  0.00    +0.123 C 
ATOM      7  C   LIG A   1      -9.559  -3.253 123.427  0.00  0.00    +0.060 C 
ATOM      8  O   LIG A   1      -8.813  -1.149 124.238  0.00  0.00    -0.481 OA
ATOM      9  C   LIG A   1      -7.576  -2.085 122.432  0.00  0.00    +0.060 C 
ATOM     10  C   LIG A   1      -7.319  -0.960 127.633  0.00  0.00    +0.131 A 
ATOM     11  C   LIG A   1      -7.849   0.273 128.026  0.00  0.00    +0.046 A 
ATOM     12  C   LIG A   1      -8.667   1.002 127.165  0.00  0.00    +0.011 A 
ENDROOT
BRANCH  10  13
ATOM     13  O   LIG A   1      -6.507  -1.729 128.434  0.00  0.00    -0.494 OA
ATOM     14  C   LIG A   1      -7.102  -2.306 129.592  0.00  0.00    +0.277 C 
ENDBRANCH  10  13
BRANCH   1  15
ATOM     15  C   LIG A   1      -9.872   1.331 124.991  0.00  0.00    +0.050 C 
BRANCH  15  16
ATOM     16  C   LIG A   1      -9.087   2.376 124.209  0.00  0.00    +0.125 C 
BRANCH  16  17
ATOM     17  C   LIG A   1      -9.272   2.152 122.735  0.00  0.00    +0.305 C 
ATOM     18  O   LIG A   1      -8.895   2.933 121.870  0.00  0.00    -0.251 OA
BRANCH  17  19
ATOM     19  O   LIG A   1      -9.870   0.976 122.441  0.00  0.00    -0.481 OA
ATOM     20  H   LIG A   1     -10.139   0.892 121.502  0.00  0.00    +0.295 HD
ENDBRANCH  17  19
ENDBRANCH  16  17
ENDBRANCH  15  16
ENDBRANCH   1  15
TORSDOF 5
ENDMDL
MODEL 6
REMARK VINA RESULT:      -5.9      4.823      7.246
REMARK  Name = NuBBE_1016
REMARK  8 active torsions:
REMARK  status: ('A' for Active; 'I' for Inactive)
REMARK    1  A    between atoms: O_1  and  C_2
REMARK    2  A    between atoms: C_2  and  C_3
REMARK    3  A    between atoms: C_3  and  C_4
REMARK    4  A    between atoms: C_4  and  C_5
REMARK    5  A    between atoms: C_10  and  C_11
REMARK    6  A    between atoms: C_10  and  C_13
REMARK    7  A    between atoms: C_14  and  O_15
REMARK    8  A    between atoms: O_15  and  C_16
REMARK                            x       y       z     vdW  Elec       q    Type
REMARK                         _______ _______ _______ _____ _____    ______ ____
ROOT
ATOM      1  C   LIG A   1      -8.656  -2.685 126.596  0.00  0.00    -0.004 A 
ATOM      2  C   LIG A   1      -8.024  -1.558 127.148  0.00  0.00    +0.136 A 
ATOM      3  C   LIG A   1      -7.695  -1.516 128.513  0.00  0.00    +0.058 A 
ATOM      4  C   LIG A   1      -7.064  -0.312 129.048  0.00  0.00    +0.015 C 
ATOM      5  C   LIG A   1      -6.806   0.703 128.219  0.00  0.00    +0.020 C 
ATOM      6  C   LIG A   1      -7.128   0.669 126.748  0.00  0.00    +0.123 C 
ATOM      7  C   LIG A   1      -5.832   0.809 125.940  0.00  0.00    +0.060 C 
ATOM      8  O   LIG A   1      -7.762  -0.535 126.274  0.00  0.00    -0.481 OA
ATOM      9  C   LIG A   1      -8.079   1.821 126.404  0.00  0.00    +0.060 C 
ATOM     10  C   LIG A   1      -7.985  -2.627 129.334  0.00  0.00    +0.131 A 
ATOM     11  C   LIG A   1      -8.605  -3.750 128.775  0.00  0.00    +0.046 A 
ATOM     12  C   LIG A   1      -8.936  -3.778 127.421  0.00  0.00    +0.011 A 
ENDROOT
BRANCH  10  13
ATOM     13  O   LIG A   1      -7.631  -2.536 130.660  0.00  0.00    -0.494 OA
ATOM     14  C   LIG A   1      -6.556  -3.359 131.101  0.00  0.00    +0.277 C 
ENDBRANCH  10  13
BRANCH   1  15
ATOM     15  C   LIG A   1      -9.020  -2.760 125.132  0.00  0.00    +0.050 C 
BRANCH  15  16
ATOM     16  C   LIG A   1      -8.156  -3.771 124.390  0.00  0.00    +0.125 C 
BRANCH  16  17
ATOM     17  C   LIG A   1      -6.824  -3.158 124.064  0.00  0.00    +0.305 C 
ATOM     18  O   LIG A   1      -5.764  -3.771 124.081  0.00  0.00    -0.251 OA
BRANCH  17  19
ATOM     19  O   LIG A   1      -6.904  -1.856 123.709  0.00  0.00    -0.481 OA
ATOM     20  H   LIG A   1      -7.331  -1.286 124.384  0.00  0.00    +0.295 HD
ENDBRANCH  17  19
ENDBRANCH  16  17
ENDBRANCH  15  16
ENDBRANCH   1  15
TORSDOF 5
ENDMDL
MODEL 7
REMARK VINA RESULT:      -5.9      2.458      3.948
REMARK  Name = NuBBE_1016
REMARK  8 active torsions:
REMARK  status: ('A' for Active; 'I' for Inactive)
REMARK    1  A    between atoms: O_1  and  C_2
REMARK    2  A    between atoms: C_2  and  C_3
REMARK    3  A    between atoms: C_3  and  C_4
REMARK    4  A    between atoms: C_4  and  C_5
REMARK    5  A    between atoms: C_10  and  C_11
REMARK    6  A    between atoms: C_10  and  C_13
REMARK    7  A    between atoms: C_14  and  O_15
REMARK    8  A    between atoms: O_15  and  C_16
REMARK                            x       y       z     vdW  Elec       q    Type
REMARK                         _______ _______ _______ _____ _____    ______ ____
ROOT
ATOM      1  C   LIG A   1      -7.046   2.281 123.422  0.00  0.00    -0.004 A 
ATOM      2  C   LIG A   1      -7.348   1.006 123.931  0.00  0.00    +0.136 A 
ATOM      3  C   LIG A   1      -7.994   0.863 125.171  0.00  0.00    +0.058 A 
ATOM      4  C   LIG A   1      -8.263  -0.482 125.673  0.00  0.00    +0.015 C 
ATOM      5  C   LIG A   1      -7.901  -1.532 124.930  0.00  0.00    +0.020 C 
ATOM      6  C   LIG A   1      -7.230  -1.400 123.588  0.00  0.00    +0.123 C 
ATOM      7  C   LIG A   1      -8.118  -2.036 122.512  0.00  0.00    +0.060 C 
ATOM      8  O   LIG A   1      -6.975  -0.053 123.145  0.00  0.00    -0.481 OA
ATOM      9  C   LIG A   1      -5.871  -2.107 123.622  0.00  0.00    +0.060 C 
ATOM     10  C   LIG A   1      -8.360   2.014 125.903  0.00  0.00    +0.131 A 
ATOM     11  C   LIG A   1      -8.065   3.279 125.384  0.00  0.00    +0.046 A 
ATOM     12  C   LIG A   1      -7.416   3.411 124.157  0.00  0.00    +0.011 A 
ENDROOT
BRANCH  10  13
ATOM     13  O   LIG A   1      -8.999   1.815 127.104  0.00  0.00    -0.494 OA
ATOM     14  C   LIG A   1      -8.300   2.206 128.281  0.00  0.00    +0.277 C 
ENDBRANCH  10  13
BRANCH   1  15
ATOM     15  C   LIG A   1      -6.355   2.466 122.092  0.00  0.00    +0.050 C 
BRANCH  15  16
ATOM     16  C   LIG A   1      -5.721   3.846 121.976  0.00  0.00    +0.125 C 
BRANCH  16  17
ATOM     17  C   LIG A   1      -5.911   4.376 120.583  0.00  0.00    +0.305 C 
ATOM     18  O   LIG A   1      -6.706   3.912 119.775  0.00  0.00    -0.251 OA
BRANCH  17  19
ATOM     19  O   LIG A   1      -5.140   5.452 120.308  0.00  0.00    -0.481 OA
ATOM     20  H   LIG A   1      -4.228   5.225 120.029  0.00  0.00    +0.295 HD
ENDBRANCH  17  19
ENDBRANCH  16  17
ENDBRANCH  15  16
ENDBRANCH   1  15
TORSDOF 5
ENDMDL
MODEL 8
REMARK VINA RESULT:      -5.8      5.360      7.984
REMARK  Name = NuBBE_1016
REMARK  8 active torsions:
REMARK  status: ('A' for Active; 'I' for Inactive)
REMARK    1  A    between atoms: O_1  and  C_2
REMARK    2  A    between atoms: C_2  and  C_3
REMARK    3  A    between atoms: C_3  and  C_4
REMARK    4  A    between atoms: C_4  and  C_5
REMARK    5  A    between atoms: C_10  and  C_11
REMARK    6  A    between atoms: C_10  and  C_13
REMARK    7  A    between atoms: C_14  and  O_15
REMARK    8  A    between atoms: O_15  and  C_16
REMARK                            x       y       z     vdW  Elec       q    Type
REMARK                         _______ _______ _______ _____ _____    ______ ____
ROOT
ATOM      1  C   LIG A   1      -7.465  -2.580 128.663  0.00  0.00    -0.004 A 
ATOM      2  C   LIG A   1      -7.492  -1.468 127.803  0.00  0.00    +0.136 A 
ATOM      3  C   LIG A   1      -8.270  -1.485 126.634  0.00  0.00    +0.058 A 
ATOM      4  C   LIG A   1      -8.246  -0.318 125.755  0.00  0.00    +0.015 C 
ATOM      5  C   LIG A   1      -7.497   0.733 126.101  0.00  0.00    +0.020 C 
ATOM      6  C   LIG A   1      -6.676   0.781 127.363  0.00  0.00    +0.123 C 
ATOM      7  C   LIG A   1      -7.170   1.932 128.248  0.00  0.00    +0.060 C 
ATOM      8  O   LIG A   1      -6.724  -0.400 128.187  0.00  0.00    -0.481 OA
ATOM      9  C   LIG A   1      -5.201   0.999 127.007  0.00  0.00    +0.060 C 
ATOM     10  C   LIG A   1      -9.048  -2.624 126.330  0.00  0.00    +0.131 A 
ATOM     11  C   LIG A   1      -9.023  -3.722 127.196  0.00  0.00    +0.046 A 
ATOM     12  C   LIG A   1      -8.241  -3.700 128.350  0.00  0.00    +0.011 A 
ENDROOT
BRANCH  10  13
ATOM     13  O   LIG A   1      -9.798  -2.581 125.178  0.00  0.00    -0.494 OA
ATOM     14  C   LIG A   1      -9.348  -3.372 124.083  0.00  0.00    +0.277 C 
ENDBRANCH  10  13
BRANCH   1  15
ATOM     15  C   LIG A   1      -6.640  -2.590 129.928  0.00  0.00    +0.050 C 
BRANCH  15  16
ATOM     16  C   LIG A   1      -5.453  -3.537 129.817  0.00  0.00    +0.125 C 
BRANCH  16  17
ATOM     17  C   LIG A   1      -4.171  -2.756 129.893  0.00  0.00    +0.305 C 
ATOM     18  O   LIG A   1      -3.231  -3.050 130.620  0.00  0.00    -0.251 OA
BRANCH  17  19
ATOM     19  O   LIG A   1      -4.134  -1.702 129.046  0.00  0.00    -0.481 OA
ATOM     20  H   LIG A   1      -3.910  -1.944 128.123  0.00  0.00    +0.295 HD
ENDBRANCH  17  19
ENDBRANCH  16  17
ENDBRANCH  15  16
ENDBRANCH   1  15
TORSDOF 5
ENDMDL
MODEL 9
REMARK VINA RESULT:      -5.8      2.098      5.214
REMARK  Name = NuBBE_1016
REMARK  8 active torsions:
REMARK  status: ('A' for Active; 'I' for Inactive)
REMARK    1  A    between atoms: O_1  and  C_2
REMARK    2  A    between atoms: C_2  and  C_3
REMARK    3  A    between atoms: C_3  and  C_4
REMARK    4  A    between atoms: C_4  and  C_5
REMARK    5  A    between atoms: C_10  and  C_11
REMARK    6  A    between atoms: C_10  and  C_13
REMARK    7  A    between atoms: C_14  and  O_15
REMARK    8  A    between atoms: O_15  and  C_16
REMARK                            x       y       z     vdW  Elec       q    Type
REMARK                         _______ _______ _______ _____ _____    ______ ____
ROOT
ATOM      1  C   LIG A   1      -8.841   1.993 123.229  0.00  0.00    -0.004 A 
ATOM      2  C   LIG A   1      -7.880   2.022 124.254  0.00  0.00    +0.136 A 
ATOM      3  C   LIG A   1      -6.713   2.794 124.122  0.00  0.00    +0.058 A 
ATOM      4  C   LIG A   1      -5.729   2.771 125.202  0.00  0.00    +0.015 C 
ATOM      5  C   LIG A   1      -5.978   2.031 126.285  0.00  0.00    +0.020 C 
ATOM      6  C   LIG A   1      -7.234   1.216 126.457  0.00  0.00    +0.123 C 
ATOM      7  C   LIG A   1      -8.004   1.721 127.683  0.00  0.00    +0.060 C 
ATOM      8  O   LIG A   1      -8.165   1.262 125.358  0.00  0.00    -0.481 OA
ATOM      9  C   LIG A   1      -6.865  -0.259 126.649  0.00  0.00    +0.060 C 
ATOM     10  C   LIG A   1      -6.515   3.564 122.955  0.00  0.00    +0.131 A 
ATOM     11  C   LIG A   1      -7.481   3.538 121.944  0.00  0.00    +0.046 A 
ATOM     12  C   LIG A   1      -8.631   2.762 122.080  0.00  0.00    +0.011 A 
ENDROOT
BRANCH  10  13
ATOM     13  O   LIG A   1      -5.360   4.308 122.885  0.00  0.00    -0.494 OA
ATOM     14  C   LIG A   1      -4.829   4.557 121.587  0.00  0.00    +0.277 C 
ENDBRANCH  10  13
BRANCH   1  15
ATOM     15  C   LIG A   1     -10.105   1.176 123.342  0.00  0.00    +0.050 C 
BRANCH  15  16
ATOM     16  C   LIG A   1     -10.074  -0.037 122.422  0.00  0.00    +0.125 C 
BRANCH  16  17
ATOM     17  C   LIG A   1      -9.251  -1.128 123.046  0.00  0.00    +0.305 C 
ATOM     18  O   LIG A   1      -8.444  -1.815 122.432  0.00  0.00    -0.251 OA
BRANCH  17  19
ATOM     19  O   LIG A   1      -9.456  -1.262 124.376  0.00  0.00    -0.481 OA
ATOM     20  H   LIG A   1      -8.687  -0.999 124.924  0.00  0.00    +0.295 HD
ENDBRANCH  17  19
ENDBRANCH  16  17
ENDBRANCH  15  16
ENDBRANCH   1  15
TORSDOF 5
ENDMDL
