MODEL 1
REMARK VINA RESULT:      -8.8      0.000      0.000
REMARK  Name = NuBBE_959
REMARK  15 active torsions:
REMARK  status: ('A' for Active; 'I' for Inactive)
REMARK    1  A    between atoms: C_1  and  C_2
REMARK    2  A    between atoms: C_11  and  O_23
REMARK    3  A    between atoms: C_13  and  C_21
REMARK    4  A    between atoms: C_13  and  C_22
REMARK    5  A    between atoms: C_14  and  C_16
REMARK    6  A    between atoms: C_16  and  C_17
REMARK    7  A    between atoms: C_17  and  O_19
REMARK    8  A    between atoms: O_19  and  C_20
REMARK    9  A    between atoms: O_23  and  C_24
REMARK   10  A    between atoms: C_24  and  C_26
REMARK   11  A    between atoms: C_26  and  C_28
REMARK   12  A    between atoms: C_26  and  C_30
REMARK   13  A    between atoms: C_28  and  C_29
REMARK   14  A    between atoms: C_33  and  C_36
REMARK   15  A    between atoms: C_37  and  C_43
REMARK                            x       y       z     vdW  Elec       q    Type
REMARK                         _______ _______ _______ _____ _____    ______ ____
ROOT
ATOM      1  C   LIG A   1      -4.968  -1.015 125.481  0.00  0.00    +0.020 C 
ATOM      2  C   LIG A   1      -6.281  -0.384 126.006  0.00  0.00    +0.037 C 
ATOM      3  C   LIG A   1      -6.199  -0.449 127.573  0.00  0.00    +0.028 C 
ATOM      4  C   LIG A   1      -7.409   0.178 128.202  0.00  0.00    -0.064 C 
ATOM      5  C   LIG A   1      -7.938   1.246 127.505  0.00  0.00    -0.012 C 
ATOM      6  C   LIG A   1      -7.559   1.864 125.969  0.00  0.00    +0.120 C 
ATOM      7  C   LIG A   1      -6.262   1.155 126.017  0.00  0.00    +0.150 C 
ATOM      8  O   LIG A   1      -5.255   1.811 126.313  0.00  0.00    -0.296 OA
ATOM      9  C   LIG A   1      -7.656   1.560 124.311  0.00  0.00    +0.196 C 
ATOM     10  C   LIG A   1      -7.798   0.045 123.823  0.00  0.00    +0.007 C 
ATOM     11  C   LIG A   1      -7.581  -0.916 125.097  0.00  0.00    +0.022 C 
ATOM     12  C   LIG A   1      -9.171  -0.067 123.092  0.00  0.00    +0.015 C 
ATOM     13  C   LIG A   1      -6.919  -0.454 122.626  0.00  0.00    +0.015 C 
ATOM     14  C   LIG A   1      -7.833  -0.404 129.590  0.00  0.00    +0.035 C 
ATOM     15  C   LIG A   1      -6.896  -1.524 130.321  0.00  0.00    +0.016 C 
ATOM     16  C   LIG A   1      -5.467  -1.434 129.762  0.00  0.00    +0.012 C 
ATOM     17  C   LIG A   1      -5.470  -1.608 128.240  0.00  0.00    +0.009 C 
ATOM     18  C   LIG A   1      -7.372  -2.979 130.052  0.00  0.00    +0.016 C 
ATOM     19  C   LIG A   1      -6.905  -1.314 131.893  0.00  0.00    +0.216 C 
ATOM     20  O   LIG A   1      -8.250  -0.989 132.320  0.00  0.00    -0.456 OA
ATOM     21  C   LIG A   1      -8.882   0.057 131.744  0.00  0.00    +0.308 C 
ATOM     22  O   LIG A   1      -9.995   0.421 132.099  0.00  0.00    -0.251 OA
ATOM     23  C   LIG A   1      -8.134   0.702 130.611  0.00  0.00    +0.129 C 
ENDROOT
BRANCH  19  24
ATOM     24  C   LIG A   1      -6.413  -2.476 132.752  0.00  0.00    +0.031 A 
ATOM     25  C   LIG A   1      -7.207  -3.359 133.560  0.00  0.00    +0.048 A 
ATOM     26  C   LIG A   1      -6.339  -4.196 134.222  0.00  0.00    +0.195 A 
ATOM     27  O   LIG A   1      -5.062  -3.911 133.870  0.00  0.00    -0.471 OA
ATOM     28  C   LIG A   1      -5.110  -2.879 132.986  0.00  0.00    +0.202 A 
ENDBRANCH  19  24
BRANCH  11  29
ATOM     29  C   LIG A   1      -8.912  -1.253 125.866  0.00  0.00    +0.126 C 
BRANCH  29  30
ATOM     30  C   LIG A   1      -9.376  -2.720 125.982  0.00  0.00    +0.307 C 
ATOM     31  O   LIG A   1      -9.190  -3.413 126.985  0.00  0.00    -0.251 OA
BRANCH  30  32
ATOM     32  O   LIG A   1     -10.040  -3.152 124.879  0.00  0.00    -0.468 OA
ATOM     33  C   LIG A   1      -9.245  -3.614 123.767  0.00  0.00    +0.280 C 
ENDBRANCH  30  32
ENDBRANCH  29  30
ENDBRANCH  11  29
BRANCH   9  34
ATOM     34  O   LIG A   1      -6.750   2.400 123.509  0.00  0.00    -0.460 OA
BRANCH  34  35
ATOM     35  C   LIG A   1      -7.198   3.095 122.413  0.00  0.00    +0.310 C 
ATOM     36  O   LIG A   1      -8.393   3.483 122.305  0.00  0.00    -0.251 OA
BRANCH  35  37
ATOM     37  C   LIG A   1      -6.289   3.482 121.341  0.00  0.00    +0.094 C 
ATOM     38  C   LIG A   1      -7.097   4.012 120.205  0.00  0.00    +0.019 C 
BRANCH  37  39
ATOM     39  C   LIG A   1      -5.153   4.296 121.889  0.00  0.00    +0.011 C 
ATOM     40  C   LIG A   1      -4.561   5.338 120.939  0.00  0.00    +0.004 C 
ENDBRANCH  37  39
ENDBRANCH  35  37
ENDBRANCH  34  35
ENDBRANCH   9  34
TORSDOF 8
ENDMDL
MODEL 2
REMARK VINA RESULT:      -8.7      4.502      7.485
REMARK  Name = NuBBE_959
REMARK  15 active torsions:
REMARK  status: ('A' for Active; 'I' for Inactive)
REMARK    1  A    between atoms: C_1  and  C_2
REMARK    2  A    between atoms: C_11  and  O_23
REMARK    3  A    between atoms: C_13  and  C_21
REMARK    4  A    between atoms: C_13  and  C_22
REMARK    5  A    between atoms: C_14  and  C_16
REMARK    6  A    between atoms: C_16  and  C_17
REMARK    7  A    between atoms: C_17  and  O_19
REMARK    8  A    between atoms: O_19  and  C_20
REMARK    9  A    between atoms: O_23  and  C_24
REMARK   10  A    between atoms: C_24  and  C_26
REMARK   11  A    between atoms: C_26  and  C_28
REMARK   12  A    between atoms: C_26  and  C_30
REMARK   13  A    between atoms: C_28  and  C_29
REMARK   14  A    between atoms: C_33  and  C_36
REMARK   15  A    between atoms: C_37  and  C_43
REMARK                            x       y       z     vdW  Elec       q    Type
REMARK                         _______ _______ _______ _____ _____    ______ ____
ROOT
ATOM      1  C   LIG A   1      -9.254   2.663 132.927  0.00  0.00    +0.020 C 
ATOM      2  C   LIG A   1      -8.607   3.012 131.564  0.00  0.00    +0.037 C 
ATOM      3  C   LIG A   1      -8.302   1.639 130.863  0.00  0.00    +0.028 C 
ATOM      4  C   LIG A   1      -7.707   1.850 129.502  0.00  0.00    -0.064 C 
ATOM      5  C   LIG A   1      -8.167   2.967 128.834  0.00  0.00    -0.012 C 
ATOM      6  C   LIG A   1      -9.163   4.240 129.357  0.00  0.00    +0.120 C 
ATOM      7  C   LIG A   1      -9.629   3.397 130.479  0.00  0.00    +0.150 C 
ATOM      8  O   LIG A   1     -10.730   2.842 130.367  0.00  0.00    -0.296 OA
ATOM      9  C   LIG A   1      -9.233   5.599 130.356  0.00  0.00    +0.196 C 
ATOM     10  C   LIG A   1      -8.235   5.678 131.603  0.00  0.00    +0.007 C 
ATOM     11  C   LIG A   1      -7.501   4.252 131.750  0.00  0.00    +0.022 C 
ATOM     12  C   LIG A   1      -7.315   6.915 131.366  0.00  0.00    +0.015 C 
ATOM     13  C   LIG A   1      -8.791   6.135 132.994  0.00  0.00    +0.015 C 
ATOM     14  C   LIG A   1      -6.732   0.733 129.005  0.00  0.00    +0.035 C 
ATOM     15  C   LIG A   1      -6.527  -0.620 129.896  0.00  0.00    +0.016 C 
ATOM     16  C   LIG A   1      -7.738  -0.806 130.824  0.00  0.00    +0.012 C 
ATOM     17  C   LIG A   1      -7.934   0.429 131.710  0.00  0.00    +0.009 C 
ATOM     18  C   LIG A   1      -5.281  -0.551 130.824  0.00  0.00    +0.016 C 
ATOM     19  C   LIG A   1      -6.335  -1.881 128.954  0.00  0.00    +0.216 C 
ATOM     20  O   LIG A   1      -5.484  -1.516 127.841  0.00  0.00    -0.456 OA
ATOM     21  C   LIG A   1      -5.831  -0.457 127.075  0.00  0.00    +0.308 C 
ATOM     22  O   LIG A   1      -5.189  -0.131 126.086  0.00  0.00    -0.251 OA
ATOM     23  C   LIG A   1      -7.029   0.309 127.560  0.00  0.00    +0.129 C 
ENDROOT
BRANCH  19  24
ATOM     24  C   LIG A   1      -5.754  -3.141 129.589  0.00  0.00    +0.031 A 
ATOM     25  C   LIG A   1      -6.440  -4.099 130.410  0.00  0.00    +0.048 A 
ATOM     26  C   LIG A   1      -5.508  -5.020 130.829  0.00  0.00    +0.195 A 
ATOM     27  O   LIG A   1      -4.293  -4.715 130.312  0.00  0.00    -0.471 OA
ATOM     28  C   LIG A   1      -4.444  -3.589 129.566  0.00  0.00    +0.202 A 
ENDBRANCH  19  24
BRANCH  11  29
ATOM     29  C   LIG A   1      -6.155   4.150 130.940  0.00  0.00    +0.126 C 
BRANCH  29  30
ATOM     30  C   LIG A   1      -4.886   3.611 131.633  0.00  0.00    +0.307 C 
ATOM     31  O   LIG A   1      -4.858   2.556 132.272  0.00  0.00    -0.251 OA
BRANCH  30  32
ATOM     32  O   LIG A   1      -3.800   4.402 131.433  0.00  0.00    -0.468 OA
ATOM     33  C   LIG A   1      -3.263   4.465 130.096  0.00  0.00    +0.280 C 
ENDBRANCH  30  32
ENDBRANCH  29  30
ENDBRANCH  11  29
BRANCH   9  34
ATOM     34  O   LIG A   1     -10.606   6.063 130.616  0.00  0.00    -0.460 OA
BRANCH  34  35
ATOM     35  C   LIG A   1     -11.361   6.655 129.633  0.00  0.00    +0.310 C 
ATOM     36  O   LIG A   1     -12.192   6.008 128.941  0.00  0.00    -0.251 OA
BRANCH  35  37
ATOM     37  C   LIG A   1     -11.286   8.090 129.387  0.00  0.00    +0.094 C 
ATOM     38  C   LIG A   1     -10.696   8.308 128.035  0.00  0.00    +0.019 C 
BRANCH  37  39
ATOM     39  C   LIG A   1     -12.588   8.748 129.745  0.00  0.00    +0.011 C 
ATOM     40  C   LIG A   1     -13.363   9.368 128.581  0.00  0.00    +0.004 C 
ENDBRANCH  37  39
ENDBRANCH  35  37
ENDBRANCH  34  35
ENDBRANCH   9  34
TORSDOF 8
ENDMDL
MODEL 3
REMARK VINA RESULT:      -8.5      2.416      9.376
REMARK  Name = NuBBE_959
REMARK  15 active torsions:
REMARK  status: ('A' for Active; 'I' for Inactive)
REMARK    1  A    between atoms: C_1  and  C_2
REMARK    2  A    between atoms: C_11  and  O_23
REMARK    3  A    between atoms: C_13  and  C_21
REMARK    4  A    between atoms: C_13  and  C_22
REMARK    5  A    between atoms: C_14  and  C_16
REMARK    6  A    between atoms: C_16  and  C_17
REMARK    7  A    between atoms: C_17  and  O_19
REMARK    8  A    between atoms: O_19  and  C_20
REMARK    9  A    between atoms: O_23  and  C_24
REMARK   10  A    between atoms: C_24  and  C_26
REMARK   11  A    between atoms: C_26  and  C_28
REMARK   12  A    between atoms: C_26  and  C_30
REMARK   13  A    between atoms: C_28  and  C_29
REMARK   14  A    between atoms: C_33  and  C_36
REMARK   15  A    between atoms: C_37  and  C_43
REMARK                            x       y       z     vdW  Elec       q    Type
REMARK                         _______ _______ _______ _____ _____    ______ ____
ROOT
ATOM      1  C   LIG A   1      -4.356   1.849 128.834  0.00  0.00    +0.020 C 
ATOM      2  C   LIG A   1      -5.881   1.579 128.809  0.00  0.00    +0.037 C 
ATOM      3  C   LIG A   1      -6.274   1.443 127.294  0.00  0.00    +0.028 C 
ATOM      4  C   LIG A   1      -7.734   1.134 127.142  0.00  0.00    -0.064 C 
ATOM      5  C   LIG A   1      -8.270   0.354 128.147  0.00  0.00    -0.012 C 
ATOM      6  C   LIG A   1      -7.602  -0.174 129.617  0.00  0.00    +0.120 C 
ATOM      7  C   LIG A   1      -6.250   0.112 129.090  0.00  0.00    +0.150 C 
ATOM      8  O   LIG A   1      -5.580  -0.841 128.669  0.00  0.00    -0.296 OA
ATOM      9  C   LIG A   1      -7.103   0.327 131.150  0.00  0.00    +0.196 C 
ATOM     10  C   LIG A   1      -6.705   1.862 131.356  0.00  0.00    +0.007 C 
ATOM     11  C   LIG A   1      -6.661   2.568 129.909  0.00  0.00    +0.022 C 
ATOM     12  C   LIG A   1      -7.712   2.454 132.390  0.00  0.00    +0.015 C 
ATOM     13  C   LIG A   1      -5.405   2.209 132.157  0.00  0.00    +0.015 C 
ATOM     14  C   LIG A   1      -8.407   1.657 125.832  0.00  0.00    +0.035 C 
ATOM     15  C   LIG A   1      -7.495   2.364 124.676  0.00  0.00    +0.016 C 
ATOM     16  C   LIG A   1      -6.033   1.919 124.842  0.00  0.00    +0.012 C 
ATOM     17  C   LIG A   1      -5.522   2.254 126.247  0.00  0.00    +0.009 C 
ATOM     18  C   LIG A   1      -7.486   3.915 124.776  0.00  0.00    +0.016 C 
ATOM     19  C   LIG A   1      -8.041   1.993 123.234  0.00  0.00    +0.216 C 
ATOM     20  O   LIG A   1      -9.488   2.033 123.251  0.00  0.00    -0.456 OA
ATOM     21  C   LIG A   1     -10.150   1.290 124.164  0.00  0.00    +0.308 C 
ATOM     22  O   LIG A   1     -11.373   1.233 124.194  0.00  0.00    -0.251 OA
ATOM     23  C   LIG A   1      -9.275   0.584 125.160  0.00  0.00    +0.129 C 
ENDROOT
BRANCH  19  24
ATOM     24  C   LIG A   1      -7.565   2.855 122.068  0.00  0.00    +0.031 A 
ATOM     25  C   LIG A   1      -6.209   3.159 121.706  0.00  0.00    +0.048 A 
ATOM     26  C   LIG A   1      -6.256   4.036 120.647  0.00  0.00    +0.195 A 
ATOM     27  O   LIG A   1      -7.544   4.286 120.311  0.00  0.00    -0.471 OA
ATOM     28  C   LIG A   1      -8.327   3.574 121.164  0.00  0.00    +0.202 A 
ENDBRANCH  19  24
BRANCH  11  29
ATOM     29  C   LIG A   1      -8.036   3.195 129.471  0.00  0.00    +0.126 C 
BRANCH  29  30
ATOM     30  C   LIG A   1      -8.081   4.644 128.943  0.00  0.00    +0.307 C 
ATOM     31  O   LIG A   1      -8.674   4.972 127.912  0.00  0.00    -0.251 OA
BRANCH  30  32
ATOM     32  O   LIG A   1      -7.431   5.521 129.751  0.00  0.00    -0.468 OA
ATOM     33  C   LIG A   1      -8.144   6.011 130.905  0.00  0.00    +0.280 C 
ENDBRANCH  30  32
ENDBRANCH  29  30
ENDBRANCH  11  29
BRANCH   9  34
ATOM     34  O   LIG A   1      -6.233  -0.648 131.829  0.00  0.00    -0.460 OA
BRANCH  34  35
ATOM     35  C   LIG A   1      -6.716  -1.482 132.806  0.00  0.00    +0.310 C 
ATOM     36  O   LIG A   1      -7.323  -1.047 133.822  0.00  0.00    -0.251 OA
BRANCH  35  37
ATOM     37  C   LIG A   1      -6.610  -2.931 132.683  0.00  0.00    +0.094 C 
ATOM     38  C   LIG A   1      -7.414  -3.558 133.772  0.00  0.00    +0.019 C 
BRANCH  37  39
ATOM     39  C   LIG A   1      -6.833  -3.350 131.258  0.00  0.00    +0.011 C 
ATOM     40  C   LIG A   1      -5.832  -4.360 130.697  0.00  0.00    +0.004 C 
ENDBRANCH  37  39
ENDBRANCH  35  37
ENDBRANCH  34  35
ENDBRANCH   9  34
TORSDOF 8
ENDMDL
MODEL 4
REMARK VINA RESULT:      -8.5      3.612      6.280
REMARK  Name = NuBBE_959
REMARK  15 active torsions:
REMARK  status: ('A' for Active; 'I' for Inactive)
REMARK    1  A    between atoms: C_1  and  C_2
REMARK    2  A    between atoms: C_11  and  O_23
REMARK    3  A    between atoms: C_13  and  C_21
REMARK    4  A    between atoms: C_13  and  C_22
REMARK    5  A    between atoms: C_14  and  C_16
REMARK    6  A    between atoms: C_16  and  C_17
REMARK    7  A    between atoms: C_17  and  O_19
REMARK    8  A    between atoms: O_19  and  C_20
REMARK    9  A    between atoms: O_23  and  C_24
REMARK   10  A    between atoms: C_24  and  C_26
REMARK   11  A    between atoms: C_26  and  C_28
REMARK   12  A    between atoms: C_26  and  C_30
REMARK   13  A    between atoms: C_28  and  C_29
REMARK   14  A    between atoms: C_33  and  C_36
REMARK   15  A    between atoms: C_37  and  C_43
REMARK                            x       y       z     vdW  Elec       q    Type
REMARK                         _______ _______ _______ _____ _____    ______ ____
ROOT
ATOM      1  C   LIG A   1      -4.205  -0.183 130.133  0.00  0.00    +0.020 C 
ATOM      2  C   LIG A   1      -5.624   0.275 129.713  0.00  0.00    +0.037 C 
ATOM      3  C   LIG A   1      -5.851   1.670 130.398  0.00  0.00    +0.028 C 
ATOM      4  C   LIG A   1      -7.188   2.241 130.026  0.00  0.00    -0.064 C 
ATOM      5  C   LIG A   1      -7.616   1.934 128.749  0.00  0.00    -0.012 C 
ATOM      6  C   LIG A   1      -6.968   0.878 127.587  0.00  0.00    +0.120 C 
ATOM      7  C   LIG A   1      -5.676   0.900 128.307  0.00  0.00    +0.150 C 
ATOM      8  O   LIG A   1      -4.778   1.626 127.862  0.00  0.00    -0.296 OA
ATOM      9  C   LIG A   1      -6.720  -0.747 127.204  0.00  0.00    +0.196 C 
ATOM     10  C   LIG A   1      -6.695  -1.813 128.395  0.00  0.00    +0.007 C 
ATOM     11  C   LIG A   1      -6.692  -1.009 129.790  0.00  0.00    +0.022 C 
ATOM     12  C   LIG A   1      -7.889  -2.787 128.154  0.00  0.00    +0.015 C 
ATOM     13  C   LIG A   1      -5.575  -2.908 128.410  0.00  0.00    +0.015 C 
ATOM     14  C   LIG A   1      -7.853   3.170 131.094  0.00  0.00    +0.035 C 
ATOM     15  C   LIG A   1      -7.031   3.567 132.448  0.00  0.00    +0.016 C 
ATOM     16  C   LIG A   1      -5.525   3.388 132.198  0.00  0.00    +0.012 C 
ATOM     17  C   LIG A   1      -5.218   1.954 131.753  0.00  0.00    +0.009 C 
ATOM     18  C   LIG A   1      -7.378   2.655 133.657  0.00  0.00    +0.016 C 
ATOM     19  C   LIG A   1      -7.361   5.058 132.880  0.00  0.00    +0.216 C 
ATOM     20  O   LIG A   1      -8.777   5.300 132.699  0.00  0.00    -0.456 OA
ATOM     21  C   LIG A   1      -9.328   5.073 131.486  0.00  0.00    +0.308 C 
ATOM     22  O   LIG A   1     -10.505   5.314 131.251  0.00  0.00    -0.251 OA
ATOM     23  C   LIG A   1      -8.400   4.463 130.474  0.00  0.00    +0.129 C 
ENDROOT
BRANCH  19  24
ATOM     24  C   LIG A   1      -6.997   5.465 134.304  0.00  0.00    +0.031 A 
ATOM     25  C   LIG A   1      -7.889   5.627 135.418  0.00  0.00    +0.048 A 
ATOM     26  C   LIG A   1      -7.140   6.084 136.478  0.00  0.00    +0.195 A 
ATOM     27  O   LIG A   1      -5.841   6.200 136.110  0.00  0.00    -0.471 OA
ATOM     28  C   LIG A   1      -5.759   5.825 134.805  0.00  0.00    +0.202 A 
ENDBRANCH  19  24
BRANCH  11  29
ATOM     29  C   LIG A   1      -8.133  -0.719 130.353  0.00  0.00    +0.126 C 
BRANCH  29  30
ATOM     30  C   LIG A   1      -8.336  -0.533 131.871  0.00  0.00    +0.307 C 
ATOM     31  O   LIG A   1      -9.339  -0.009 132.362  0.00  0.00    -0.251 OA
BRANCH  30  32
ATOM     32  O   LIG A   1      -7.312  -1.038 132.607  0.00  0.00    -0.468 OA
ATOM     33  C   LIG A   1      -7.532  -2.301 133.268  0.00  0.00    +0.280 C 
ENDBRANCH  30  32
ENDBRANCH  29  30
ENDBRANCH  11  29
BRANCH   9  34
ATOM     34  O   LIG A   1      -5.712  -0.952 126.150  0.00  0.00    -0.460 OA
BRANCH  34  35
ATOM     35  C   LIG A   1      -6.053  -1.455 124.919  0.00  0.00    +0.310 C 
ATOM     36  O   LIG A   1      -6.418  -0.714 123.967  0.00  0.00    -0.251 OA
BRANCH  35  37
ATOM     37  C   LIG A   1      -5.943  -2.879 124.629  0.00  0.00    +0.094 C 
ATOM     38  C   LIG A   1      -7.318  -3.439 124.481  0.00  0.00    +0.019 C 
BRANCH  37  39
ATOM     39  C   LIG A   1      -4.924  -3.115 123.552  0.00  0.00    +0.011 C 
ATOM     40  C   LIG A   1      -4.181  -4.449 123.618  0.00  0.00    +0.004 C 
ENDBRANCH  37  39
ENDBRANCH  35  37
ENDBRANCH  34  35
ENDBRANCH   9  34
TORSDOF 8
ENDMDL
MODEL 5
REMARK VINA RESULT:      -8.4      4.620      7.065
REMARK  Name = NuBBE_959
REMARK  15 active torsions:
REMARK  status: ('A' for Active; 'I' for Inactive)
REMARK    1  A    between atoms: C_1  and  C_2
REMARK    2  A    between atoms: C_11  and  O_23
REMARK    3  A    between atoms: C_13  and  C_21
REMARK    4  A    between atoms: C_13  and  C_22
REMARK    5  A    between atoms: C_14  and  C_16
REMARK    6  A    between atoms: C_16  and  C_17
REMARK    7  A    between atoms: C_17  and  O_19
REMARK    8  A    between atoms: O_19  and  C_20
REMARK    9  A    between atoms: O_23  and  C_24
REMARK   10  A    between atoms: C_24  and  C_26
REMARK   11  A    between atoms: C_26  and  C_28
REMARK   12  A    between atoms: C_26  and  C_30
REMARK   13  A    between atoms: C_28  and  C_29
REMARK   14  A    between atoms: C_33  and  C_36
REMARK   15  A    between atoms: C_37  and  C_43
REMARK                            x       y       z     vdW  Elec       q    Type
REMARK                         _______ _______ _______ _____ _____    ______ ____
ROOT
ATOM      1  C   LIG A   1      -7.542   0.801 129.080  0.00  0.00    +0.020 C 
ATOM      2  C   LIG A   1      -6.817   1.728 128.072  0.00  0.00    +0.037 C 
ATOM      3  C   LIG A   1      -5.680   2.447 128.883  0.00  0.00    +0.028 C 
ATOM      4  C   LIG A   1      -4.873   3.348 127.995  0.00  0.00    -0.064 C 
ATOM      5  C   LIG A   1      -4.726   2.903 126.696  0.00  0.00    -0.012 C 
ATOM      6  C   LIG A   1      -5.446   1.596 125.883  0.00  0.00    +0.120 C 
ATOM      7  C   LIG A   1      -5.793   0.993 127.188  0.00  0.00    +0.150 C 
ATOM      8  O   LIG A   1      -5.074   0.079 127.613  0.00  0.00    -0.296 OA
ATOM      9  C   LIG A   1      -6.895   1.018 125.238  0.00  0.00    +0.196 C 
ATOM     10  C   LIG A   1      -8.268   1.605 125.808  0.00  0.00    +0.007 C 
ATOM     11  C   LIG A   1      -7.932   2.507 127.099  0.00  0.00    +0.022 C 
ATOM     12  C   LIG A   1      -8.978   2.325 124.621  0.00  0.00    +0.015 C 
ATOM     13  C   LIG A   1      -9.438   0.617 126.140  0.00  0.00    +0.015 C 
ATOM     14  C   LIG A   1      -4.243   4.600 128.687  0.00  0.00    +0.035 C 
ATOM     15  C   LIG A   1      -4.374   4.784 130.304  0.00  0.00    +0.016 C 
ATOM     16  C   LIG A   1      -4.641   3.416 130.951  0.00  0.00    +0.012 C 
ATOM     17  C   LIG A   1      -5.897   2.772 130.354  0.00  0.00    +0.009 C 
ATOM     18  C   LIG A   1      -5.564   5.695 130.716  0.00  0.00    +0.016 C 
ATOM     19  C   LIG A   1      -3.058   5.444 130.895  0.00  0.00    +0.216 C 
ATOM     20  O   LIG A   1      -2.610   6.491 130.001  0.00  0.00    -0.456 OA
ATOM     21  C   LIG A   1      -2.393   6.190 128.701  0.00  0.00    +0.308 C 
ATOM     22  O   LIG A   1      -1.959   7.013 127.907  0.00  0.00    -0.251 OA
ATOM     23  C   LIG A   1      -2.769   4.791 128.305  0.00  0.00    +0.129 C 
ENDROOT
BRANCH  19  24
ATOM     24  C   LIG A   1      -3.148   6.038 132.298  0.00  0.00    +0.031 A 
ATOM     25  C   LIG A   1      -3.085   7.426 132.662  0.00  0.00    +0.048 A 
ATOM     26  C   LIG A   1      -3.122   7.490 134.036  0.00  0.00    +0.195 A 
ATOM     27  O   LIG A   1      -3.221   6.242 134.554  0.00  0.00    -0.471 OA
ATOM     28  C   LIG A   1      -3.239   5.373 133.508  0.00  0.00    +0.202 A 
ENDBRANCH  19  24
BRANCH  11  29
ATOM     29  C   LIG A   1      -7.664   4.020 126.759  0.00  0.00    +0.126 C 
BRANCH  29  30
ATOM     30  C   LIG A   1      -8.637   5.102 127.270  0.00  0.00    +0.307 C 
ATOM     31  O   LIG A   1      -8.858   5.305 128.467  0.00  0.00    -0.251 OA
BRANCH  30  32
ATOM     32  O   LIG A   1      -9.196   5.826 126.266  0.00  0.00    -0.468 OA
ATOM     33  C   LIG A   1     -10.195   6.801 126.630  0.00  0.00    +0.280 C 
ENDBRANCH  30  32
ENDBRANCH  29  30
ENDBRANCH  11  29
BRANCH   9  34
ATOM     34  O   LIG A   1      -6.884  -0.432 124.984  0.00  0.00    -0.460 OA
BRANCH  34  35
ATOM     35  C   LIG A   1      -6.876  -0.937 123.708  0.00  0.00    +0.310 C 
ATOM     36  O   LIG A   1      -6.832  -0.194 122.691  0.00  0.00    -0.251 OA
BRANCH  35  37
ATOM     37  C   LIG A   1      -6.849  -2.374 123.465  0.00  0.00    +0.094 C 
ATOM     38  C   LIG A   1      -5.463  -2.869 123.710  0.00  0.00    +0.019 C 
BRANCH  37  39
ATOM     39  C   LIG A   1      -8.008  -3.040 124.148  0.00  0.00    +0.011 C 
ATOM     40  C   LIG A   1      -9.323  -3.055 123.367  0.00  0.00    +0.004 C 
ENDBRANCH  37  39
ENDBRANCH  35  37
ENDBRANCH  34  35
ENDBRANCH   9  34
TORSDOF 8
ENDMDL
MODEL 6
REMARK VINA RESULT:      -8.2      4.745      8.060
REMARK  Name = NuBBE_959
REMARK  15 active torsions:
REMARK  status: ('A' for Active; 'I' for Inactive)
REMARK    1  A    between atoms: C_1  and  C_2
REMARK    2  A    between atoms: C_11  and  O_23
REMARK    3  A    between atoms: C_13  and  C_21
REMARK    4  A    between atoms: C_13  and  C_22
REMARK    5  A    between atoms: C_14  and  C_16
REMARK    6  A    between atoms: C_16  and  C_17
REMARK    7  A    between atoms: C_17  and  O_19
REMARK    8  A    between atoms: O_19  and  C_20
REMARK    9  A    between atoms: O_23  and  C_24
REMARK   10  A    between atoms: C_24  and  C_26
REMARK   11  A    between atoms: C_26  and  C_28
REMARK   12  A    between atoms: C_26  and  C_30
REMARK   13  A    between atoms: C_28  and  C_29
REMARK   14  A    between atoms: C_33  and  C_36
REMARK   15  A    between atoms: C_37  and  C_43
REMARK                            x       y       z     vdW  Elec       q    Type
REMARK                         _______ _______ _______ _____ _____    ______ ____
ROOT
ATOM      1  C   LIG A   1      -4.782   4.563 126.810  0.00  0.00    +0.020 C 
ATOM      2  C   LIG A   1      -5.034   3.583 127.984  0.00  0.00    +0.037 C 
ATOM      3  C   LIG A   1      -5.256   2.171 127.333  0.00  0.00    +0.028 C 
ATOM      4  C   LIG A   1      -5.470   1.121 128.383  0.00  0.00    -0.064 C 
ATOM      5  C   LIG A   1      -4.770   1.324 129.557  0.00  0.00    -0.012 C 
ATOM      6  C   LIG A   1      -3.844   2.648 130.081  0.00  0.00    +0.120 C 
ATOM      7  C   LIG A   1      -3.744   3.115 128.682  0.00  0.00    +0.150 C 
ATOM      8  O   LIG A   1      -2.697   2.878 128.066  0.00  0.00    -0.296 OA
ATOM      9  C   LIG A   1      -3.925   4.251 130.605  0.00  0.00    +0.196 C 
ATOM     10  C   LIG A   1      -5.197   5.124 130.186  0.00  0.00    +0.007 C 
ATOM     11  C   LIG A   1      -6.052   4.283 129.111  0.00  0.00    +0.022 C 
ATOM     12  C   LIG A   1      -5.929   5.517 131.506  0.00  0.00    +0.015 C 
ATOM     13  C   LIG A   1      -4.978   6.585 129.664  0.00  0.00    +0.015 C 
ATOM     14  C   LIG A   1      -6.370  -0.087 127.965  0.00  0.00    +0.035 C 
ATOM     15  C   LIG A   1      -6.898  -0.210 126.425  0.00  0.00    +0.016 C 
ATOM     16  C   LIG A   1      -5.979   0.610 125.506  0.00  0.00    +0.012 C 
ATOM     17  C   LIG A   1      -5.919   2.070 125.966  0.00  0.00    +0.009 C 
ATOM     18  C   LIG A   1      -8.329   0.365 126.228  0.00  0.00    +0.016 C 
ATOM     19  C   LIG A   1      -6.941  -1.731 125.974  0.00  0.00    +0.216 C 
ATOM     20  O   LIG A   1      -7.451  -2.534 127.065  0.00  0.00    -0.456 OA
ATOM     21  C   LIG A   1      -6.841  -2.461 128.269  0.00  0.00    +0.308 C 
ATOM     22  O   LIG A   1      -7.185  -3.157 129.215  0.00  0.00    -0.251 OA
ATOM     23  C   LIG A   1      -5.750  -1.433 128.364  0.00  0.00    +0.129 C 
ENDROOT
BRANCH  19  24
ATOM     24  C   LIG A   1      -7.760  -2.063 124.730  0.00  0.00    +0.031 A 
ATOM     25  C   LIG A   1      -8.970  -2.832 124.664  0.00  0.00    +0.048 A 
ATOM     26  C   LIG A   1      -9.309  -2.947 123.335  0.00  0.00    +0.195 A 
ATOM     27  O   LIG A   1      -8.406  -2.288 122.570  0.00  0.00    -0.471 OA
ATOM     28  C   LIG A   1      -7.479  -1.756 123.410  0.00  0.00    +0.202 A 
ENDBRANCH  19  24
BRANCH  11  29
ATOM     29  C   LIG A   1      -7.153   3.365 129.762  0.00  0.00    +0.126 C 
BRANCH  29  30
ATOM     30  C   LIG A   1      -8.610   3.448 129.262  0.00  0.00    +0.307 C 
ATOM     31  O   LIG A   1      -9.362   2.473 129.197  0.00  0.00    -0.251 OA
BRANCH  30  32
ATOM     32  O   LIG A   1      -8.984   4.712 128.936  0.00  0.00    -0.468 OA
ATOM     33  C   LIG A   1      -9.594   5.510 129.972  0.00  0.00    +0.280 C 
ENDBRANCH  30  32
ENDBRANCH  29  30
ENDBRANCH  11  29
BRANCH   9  34
ATOM     34  O   LIG A   1      -2.631   4.951 130.545  0.00  0.00    -0.460 OA
BRANCH  34  35
ATOM     35  C   LIG A   1      -1.988   5.369 131.684  0.00  0.00    +0.310 C 
ATOM     36  O   LIG A   1      -1.587   4.561 132.565  0.00  0.00    -0.251 OA
BRANCH  35  37
ATOM     37  C   LIG A   1      -1.675   6.776 131.901  0.00  0.00    +0.094 C 
ATOM     38  C   LIG A   1      -2.863   7.435 132.517  0.00  0.00    +0.019 C 
BRANCH  37  39
ATOM     39  C   LIG A   1      -0.327   6.916 132.548  0.00  0.00    +0.011 C 
ATOM     40  C   LIG A   1      -0.074   8.235 133.280  0.00  0.00    +0.004 C 
ENDBRANCH  37  39
ENDBRANCH  35  37
ENDBRANCH  34  35
ENDBRANCH   9  34
TORSDOF 8
ENDMDL
MODEL 7
REMARK VINA RESULT:      -8.1      4.150      6.621
REMARK  Name = NuBBE_959
REMARK  15 active torsions:
REMARK  status: ('A' for Active; 'I' for Inactive)
REMARK    1  A    between atoms: C_1  and  C_2
REMARK    2  A    between atoms: C_11  and  O_23
REMARK    3  A    between atoms: C_13  and  C_21
REMARK    4  A    between atoms: C_13  and  C_22
REMARK    5  A    between atoms: C_14  and  C_16
REMARK    6  A    between atoms: C_16  and  C_17
REMARK    7  A    between atoms: C_17  and  O_19
REMARK    8  A    between atoms: O_19  and  C_20
REMARK    9  A    between atoms: O_23  and  C_24
REMARK   10  A    between atoms: C_24  and  C_26
REMARK   11  A    between atoms: C_26  and  C_28
REMARK   12  A    between atoms: C_26  and  C_30
REMARK   13  A    between atoms: C_28  and  C_29
REMARK   14  A    between atoms: C_33  and  C_36
REMARK   15  A    between atoms: C_37  and  C_43
REMARK                            x       y       z     vdW  Elec       q    Type
REMARK                         _______ _______ _______ _____ _____    ______ ____
ROOT
ATOM      1  C   LIG A   1      -4.700   1.597 126.307  0.00  0.00    +0.020 C 
ATOM      2  C   LIG A   1      -5.739   1.390 127.437  0.00  0.00    +0.037 C 
ATOM      3  C   LIG A   1      -5.791   2.743 128.234  0.00  0.00    +0.028 C 
ATOM      4  C   LIG A   1      -6.804   2.679 129.339  0.00  0.00    -0.064 C 
ATOM      5  C   LIG A   1      -7.915   1.908 129.063  0.00  0.00    -0.012 C 
ATOM      6  C   LIG A   1      -8.255   0.879 127.754  0.00  0.00    +0.120 C 
ATOM      7  C   LIG A   1      -7.197   1.551 126.969  0.00  0.00    +0.150 C 
ATOM      8  O   LIG A   1      -7.544   2.400 126.138  0.00  0.00    -0.296 OA
ATOM      9  C   LIG A   1      -7.850  -0.591 127.030  0.00  0.00    +0.196 C 
ATOM     10  C   LIG A   1      -6.409  -1.215 127.332  0.00  0.00    +0.007 C 
ATOM     11  C   LIG A   1      -5.544  -0.118 128.133  0.00  0.00    +0.022 C 
ATOM     12  C   LIG A   1      -6.650  -2.576 128.056  0.00  0.00    +0.015 C 
ATOM     13  C   LIG A   1      -5.567  -1.794 126.145  0.00  0.00    +0.015 C 
ATOM     14  C   LIG A   1      -6.500   3.562 130.593  0.00  0.00    +0.035 C 
ATOM     15  C   LIG A   1      -5.219   4.574 130.581  0.00  0.00    +0.016 C 
ATOM     16  C   LIG A   1      -4.827   4.881 129.127  0.00  0.00    +0.012 C 
ATOM     17  C   LIG A   1      -4.530   3.587 128.363  0.00  0.00    +0.009 C 
ATOM     18  C   LIG A   1      -3.955   3.960 131.247  0.00  0.00    +0.016 C 
ATOM     19  C   LIG A   1      -5.559   5.908 131.371  0.00  0.00    +0.216 C 
ATOM     20  O   LIG A   1      -6.308   5.574 132.564  0.00  0.00    -0.456 OA
ATOM     21  C   LIG A   1      -7.441   4.847 132.441  0.00  0.00    +0.308 C 
ATOM     22  O   LIG A   1      -8.151   4.581 133.401  0.00  0.00    -0.251 OA
ATOM     23  C   LIG A   1      -7.730   4.358 131.050  0.00  0.00    +0.129 C 
ENDROOT
BRANCH  19  24
ATOM     24  C   LIG A   1      -4.383   6.785 131.791  0.00  0.00    +0.031 A 
ATOM     25  C   LIG A   1      -3.753   6.839 133.080  0.00  0.00    +0.048 A 
ATOM     26  C   LIG A   1      -2.798   7.828 133.027  0.00  0.00    +0.195 A 
ATOM     27  O   LIG A   1      -2.775   8.382 131.790  0.00  0.00    -0.471 OA
ATOM     28  C   LIG A   1      -3.726   7.752 131.050  0.00  0.00    +0.202 A 
ENDBRANCH  19  24
BRANCH  11  29
ATOM     29  C   LIG A   1      -5.689  -0.219 129.697  0.00  0.00    +0.126 C 
BRANCH  29  30
ATOM     30  C   LIG A   1      -4.426  -0.330 130.575  0.00  0.00    +0.307 C 
ATOM     31  O   LIG A   1      -4.148   0.474 131.468  0.00  0.00    -0.251 OA
BRANCH  30  32
ATOM     32  O   LIG A   1      -3.676  -1.424 130.285  0.00  0.00    -0.468 OA
ATOM     33  C   LIG A   1      -3.646  -2.485 131.262  0.00  0.00    +0.280 C 
ENDBRANCH  30  32
ENDBRANCH  29  30
ENDBRANCH  11  29
BRANCH   9  34
ATOM     34  O   LIG A   1      -8.306  -0.700 125.635  0.00  0.00    -0.460 OA
BRANCH  34  35
ATOM     35  C   LIG A   1      -8.909  -1.840 125.164  0.00  0.00    +0.310 C 
ATOM     36  O   LIG A   1      -9.908  -2.357 125.734  0.00  0.00    -0.251 OA
BRANCH  35  37
ATOM     37  C   LIG A   1      -8.462  -2.477 123.932  0.00  0.00    +0.094 C 
ATOM     38  C   LIG A   1      -9.577  -3.313 123.400  0.00  0.00    +0.019 C 
BRANCH  37  39
ATOM     39  C   LIG A   1      -7.794  -1.472 123.038  0.00  0.00    +0.011 C 
ATOM     40  C   LIG A   1      -6.400  -1.850 122.536  0.00  0.00    +0.004 C 
ENDBRANCH  37  39
ENDBRANCH  35  37
ENDBRANCH  34  35
ENDBRANCH   9  34
TORSDOF 8
ENDMDL
MODEL 8
REMARK VINA RESULT:      -8.0      5.602      8.966
REMARK  Name = NuBBE_959
REMARK  15 active torsions:
REMARK  status: ('A' for Active; 'I' for Inactive)
REMARK    1  A    between atoms: C_1  and  C_2
REMARK    2  A    between atoms: C_11  and  O_23
REMARK    3  A    between atoms: C_13  and  C_21
REMARK    4  A    between atoms: C_13  and  C_22
REMARK    5  A    between atoms: C_14  and  C_16
REMARK    6  A    between atoms: C_16  and  C_17
REMARK    7  A    between atoms: C_17  and  O_19
REMARK    8  A    between atoms: O_19  and  C_20
REMARK    9  A    between atoms: O_23  and  C_24
REMARK   10  A    between atoms: C_24  and  C_26
REMARK   11  A    between atoms: C_26  and  C_28
REMARK   12  A    between atoms: C_26  and  C_30
REMARK   13  A    between atoms: C_28  and  C_29
REMARK   14  A    between atoms: C_33  and  C_36
REMARK   15  A    between atoms: C_37  and  C_43
REMARK                            x       y       z     vdW  Elec       q    Type
REMARK                         _______ _______ _______ _____ _____    ______ ____
ROOT
ATOM      1  C   LIG A   1      -4.315   0.294 133.263  0.00  0.00    +0.020 C 
ATOM      2  C   LIG A   1      -4.931   1.095 132.088  0.00  0.00    +0.037 C 
ATOM      3  C   LIG A   1      -3.951   2.292 131.817  0.00  0.00    +0.028 C 
ATOM      4  C   LIG A   1      -4.423   3.123 130.660  0.00  0.00    -0.064 C 
ATOM      5  C   LIG A   1      -5.068   2.418 129.664  0.00  0.00    -0.012 C 
ATOM      6  C   LIG A   1      -5.571   0.797 129.600  0.00  0.00    +0.120 C 
ATOM      7  C   LIG A   1      -4.643   0.479 130.707  0.00  0.00    +0.150 C 
ATOM      8  O   LIG A   1      -3.562  -0.051 130.421  0.00  0.00    -0.296 OA
ATOM      9  C   LIG A   1      -6.681  -0.315 130.219  0.00  0.00    +0.196 C 
ATOM     10  C   LIG A   1      -7.342  -0.016 131.643  0.00  0.00    +0.007 C 
ATOM     11  C   LIG A   1      -6.583   1.245 132.295  0.00  0.00    +0.022 C 
ATOM     12  C   LIG A   1      -8.876   0.140 131.404  0.00  0.00    +0.015 C 
ATOM     13  C   LIG A   1      -7.444  -1.175 132.692  0.00  0.00    +0.015 C 
ATOM     14  C   LIG A   1      -4.037   4.637 130.708  0.00  0.00    +0.035 C 
ATOM     15  C   LIG A   1      -3.060   5.189 131.895  0.00  0.00    +0.016 C 
ATOM     16  C   LIG A   1      -2.249   4.017 132.471  0.00  0.00    +0.012 C 
ATOM     17  C   LIG A   1      -3.182   2.911 132.976  0.00  0.00    +0.009 C 
ATOM     18  C   LIG A   1      -3.845   5.797 133.091  0.00  0.00    +0.016 C 
ATOM     19  C   LIG A   1      -2.101   6.325 131.342  0.00  0.00    +0.216 C 
ATOM     20  O   LIG A   1      -2.852   7.187 130.454  0.00  0.00    -0.456 OA
ATOM     21  C   LIG A   1      -3.510   6.635 129.410  0.00  0.00    +0.308 C 
ATOM     22  O   LIG A   1      -4.114   7.313 128.589  0.00  0.00    -0.251 OA
ATOM     23  C   LIG A   1      -3.480   5.133 129.367  0.00  0.00    +0.129 C 
ENDROOT
BRANCH  19  24
ATOM     24  C   LIG A   1      -1.406   7.210 132.372  0.00  0.00    +0.031 A 
ATOM     25  C   LIG A   1      -0.261   6.880 133.173  0.00  0.00    +0.048 A 
ATOM     26  C   LIG A   1      -0.034   7.941 134.018  0.00  0.00    +0.195 A 
ATOM     27  O   LIG A   1      -0.945   8.918 133.789  0.00  0.00    -0.471 OA
ATOM     28  C   LIG A   1      -1.766   8.477 132.798  0.00  0.00    +0.202 A 
ENDBRANCH  19  24
BRANCH  11  29
ATOM     29  C   LIG A   1      -7.236   2.631 131.930  0.00  0.00    +0.126 C 
BRANCH  29  30
ATOM     30  C   LIG A   1      -7.952   3.449 133.024  0.00  0.00    +0.307 C 
ATOM     31  O   LIG A   1      -8.964   3.058 133.611  0.00  0.00    -0.251 OA
BRANCH  30  32
ATOM     32  O   LIG A   1      -7.331   4.626 133.294  0.00  0.00    -0.468 OA
ATOM     33  C   LIG A   1      -8.090   5.629 134.001  0.00  0.00    +0.280 C 
ENDBRANCH  30  32
ENDBRANCH  29  30
ENDBRANCH  11  29
BRANCH   9  34
ATOM     34  O   LIG A   1      -6.296  -1.717 129.982  0.00  0.00    -0.460 OA
BRANCH  34  35
ATOM     35  C   LIG A   1      -6.294  -2.257 128.720  0.00  0.00    +0.310 C 
ATOM     36  O   LIG A   1      -5.247  -2.335 128.023  0.00  0.00    -0.251 OA
BRANCH  35  37
ATOM     37  C   LIG A   1      -7.503  -2.833 128.144  0.00  0.00    +0.094 C 
ATOM     38  C   LIG A   1      -8.387  -3.286 129.256  0.00  0.00    +0.019 C 
BRANCH  37  39
ATOM     39  C   LIG A   1      -8.053  -1.931 127.077  0.00  0.00    +0.011 C 
ATOM     40  C   LIG A   1      -8.978  -2.595 126.056  0.00  0.00    +0.004 C 
ENDBRANCH  37  39
ENDBRANCH  35  37
ENDBRANCH  34  35
ENDBRANCH   9  34
TORSDOF 8
ENDMDL
MODEL 9
REMARK VINA RESULT:      -8.0      5.057      7.254
REMARK  Name = NuBBE_959
REMARK  15 active torsions:
REMARK  status: ('A' for Active; 'I' for Inactive)
REMARK    1  A    between atoms: C_1  and  C_2
REMARK    2  A    between atoms: C_11  and  O_23
REMARK    3  A    between atoms: C_13  and  C_21
REMARK    4  A    between atoms: C_13  and  C_22
REMARK    5  A    between atoms: C_14  and  C_16
REMARK    6  A    between atoms: C_16  and  C_17
REMARK    7  A    between atoms: C_17  and  O_19
REMARK    8  A    between atoms: O_19  and  C_20
REMARK    9  A    between atoms: O_23  and  C_24
REMARK   10  A    between atoms: C_24  and  C_26
REMARK   11  A    between atoms: C_26  and  C_28
REMARK   12  A    between atoms: C_26  and  C_30
REMARK   13  A    between atoms: C_28  and  C_29
REMARK   14  A    between atoms: C_33  and  C_36
REMARK   15  A    between atoms: C_37  and  C_43
REMARK                            x       y       z     vdW  Elec       q    Type
REMARK                         _______ _______ _______ _____ _____    ______ ____
ROOT
ATOM      1  C   LIG A   1      -7.125   3.095 134.247  0.00  0.00    +0.020 C 
ATOM      2  C   LIG A   1      -7.416   2.746 132.766  0.00  0.00    +0.037 C 
ATOM      3  C   LIG A   1      -7.501   1.179 132.698  0.00  0.00    +0.028 C 
ATOM      4  C   LIG A   1      -7.825   0.717 131.307  0.00  0.00    -0.064 C 
ATOM      5  C   LIG A   1      -8.650   1.562 130.593  0.00  0.00    -0.012 C 
ATOM      6  C   LIG A   1      -9.224   3.120 130.955  0.00  0.00    +0.120 C 
ATOM      7  C   LIG A   1      -8.899   2.894 132.380  0.00  0.00    +0.150 C 
ATOM      8  O   LIG A   1      -9.824   2.589 133.143  0.00  0.00    -0.296 OA
ATOM      9  C   LIG A   1      -8.774   4.739 131.115  0.00  0.00    +0.196 C 
ATOM     10  C   LIG A   1      -7.242   5.075 131.428  0.00  0.00    +0.007 C 
ATOM     11  C   LIG A   1      -6.481   3.694 131.754  0.00  0.00    +0.022 C 
ATOM     12  C   LIG A   1      -6.705   5.897 130.216  0.00  0.00    +0.015 C 
ATOM     13  C   LIG A   1      -6.907   6.140 132.527  0.00  0.00    +0.015 C 
ATOM     14  C   LIG A   1      -7.263  -0.686 130.908  0.00  0.00    +0.035 C 
ATOM     15  C   LIG A   1      -6.500  -1.602 132.023  0.00  0.00    +0.016 C 
ATOM     16  C   LIG A   1      -6.929  -1.153 133.429  0.00  0.00    +0.012 C 
ATOM     17  C   LIG A   1      -6.640   0.338 133.631  0.00  0.00    +0.009 C 
ATOM     18  C   LIG A   1      -4.953  -1.451 131.977  0.00  0.00    +0.016 C 
ATOM     19  C   LIG A   1      -6.824  -3.138 131.795  0.00  0.00    +0.216 C 
ATOM     20  O   LIG A   1      -6.805  -3.420 130.375  0.00  0.00    -0.456 OA
ATOM     21  C   LIG A   1      -7.592  -2.689 129.555  0.00  0.00    +0.308 C 
ATOM     22  O   LIG A   1      -7.668  -2.915 128.354  0.00  0.00    -0.251 OA
ATOM     23  C   LIG A   1      -8.323  -1.558 130.222  0.00  0.00    +0.129 C 
ENDROOT
BRANCH  19  24
ATOM     24  C   LIG A   1      -5.911  -4.150 132.482  0.00  0.00    +0.031 A 
ATOM     25  C   LIG A   1      -5.968  -4.587 133.849  0.00  0.00    +0.048 A 
ATOM     26  C   LIG A   1      -4.904  -5.436 134.050  0.00  0.00    +0.195 A 
ATOM     27  O   LIG A   1      -4.200  -5.575 132.902  0.00  0.00    -0.471 OA
ATOM     28  C   LIG A   1      -4.808  -4.804 131.962  0.00  0.00    +0.202 A 
ENDBRANCH  19  24
BRANCH  11  29
ATOM     29  C   LIG A   1      -5.858   3.002 130.485  0.00  0.00    +0.126 C 
BRANCH  29  30
ATOM     30  C   LIG A   1      -4.391   2.526 130.518  0.00  0.00    +0.307 C 
ATOM     31  O   LIG A   1      -4.026   1.424 130.101  0.00  0.00    -0.251 OA
BRANCH  30  32
ATOM     32  O   LIG A   1      -3.544   3.462 131.020  0.00  0.00    -0.468 OA
ATOM     33  C   LIG A   1      -3.184   4.560 130.158  0.00  0.00    +0.280 C 
ENDBRANCH  30  32
ENDBRANCH  29  30
ENDBRANCH  11  29
BRANCH   9  34
ATOM     34  O   LIG A   1      -9.761   5.550 131.848  0.00  0.00    -0.460 OA
BRANCH  34  35
ATOM     35  C   LIG A   1     -10.878   6.053 131.228  0.00  0.00    +0.310 C 
ATOM     36  O   LIG A   1     -11.931   6.332 131.862  0.00  0.00    -0.251 OA
BRANCH  35  37
ATOM     37  C   LIG A   1     -10.877   6.357 129.802  0.00  0.00    +0.094 C 
ATOM     38  C   LIG A   1     -12.268   6.202 129.285  0.00  0.00    +0.019 C 
BRANCH  37  39
ATOM     39  C   LIG A   1     -10.124   7.630 129.541  0.00  0.00    +0.011 C 
ATOM     40  C   LIG A   1     -10.517   8.387 128.272  0.00  0.00    +0.004 C 
ENDBRANCH  37  39
ENDBRANCH  35  37
ENDBRANCH  34  35
ENDBRANCH   9  34
TORSDOF 8
ENDMDL
