MODEL 1
REMARK VINA RESULT:      -8.8      0.000      0.000
REMARK  Name = NuBBE_1060
REMARK  10 active torsions:
REMARK  status: ('A' for Active; 'I' for Inactive)
REMARK    1  A    between atoms: C_1  and  C_2
REMARK    2  A    between atoms: C_5  and  C_6
REMARK    3  A    between atoms: C_13  and  C_14
REMARK    4  A    between atoms: C_13  and  C_23
REMARK    5  A    between atoms: C_14  and  C_15
REMARK    6  A    between atoms: C_25  and  O_27
REMARK    7  A    between atoms: O_27  and  C_28
REMARK    8  A    between atoms: C_28  and  C_29
REMARK    9  A    between atoms: C_36  and  C_44
REMARK   10  A    between atoms: C_39  and  O_41
REMARK                            x       y       z     vdW  Elec       q    Type
REMARK                         _______ _______ _______ _____ _____    ______ ____
ROOT
ATOM      1  C   LIG A   1      -4.820   5.997 134.358  0.00  0.00    +0.020 C 
ATOM      2  C   LIG A   1      -6.110   5.142 134.478  0.00  0.00    +0.039 C 
ATOM      3  C   LIG A   1      -6.956   5.193 133.087  0.00  0.00    +0.053 C 
ATOM      4  C   LIG A   1      -7.834   3.917 132.895  0.00  0.00    +0.016 C 
ATOM      5  C   LIG A   1      -8.933   3.868 134.012  0.00  0.00    +0.015 C 
ATOM      6  C   LIG A   1      -6.896   2.672 132.877  0.00  0.00    +0.183 C 
ATOM      7  O   LIG A   1      -7.693   1.500 133.104  0.00  0.00    -0.461 OA
ATOM      8  C   LIG A   1      -8.759   1.328 132.275  0.00  0.00    +0.308 C 
ATOM      9  C   LIG A   1      -8.883   2.343 131.154  0.00  0.00    +0.126 C 
ATOM     10  C   LIG A   1      -8.668   3.840 131.548  0.00  0.00    +0.023 C 
ATOM     11  C   LIG A   1      -8.144   4.731 130.367  0.00  0.00    +0.034 C 
ATOM     12  C   LIG A   1      -8.345   4.077 128.973  0.00  0.00    +0.019 C 
ATOM     13  C   LIG A   1      -6.622   4.937 130.483  0.00  0.00    +0.059 C 
ATOM     14  C   LIG A   1      -6.055   5.435 131.823  0.00  0.00    +0.182 C 
ATOM     15  O   LIG A   1      -9.518   0.374 132.384  0.00  0.00    -0.251 OA
ATOM     16  C   LIG A   1      -5.674   2.696 133.818  0.00  0.00    +0.050 C 
ATOM     17  C   LIG A   1      -5.855   3.669 134.972  0.00  0.00    +0.009 C 
ATOM     18  C   LIG A   1      -4.809   3.630 136.112  0.00  0.00    -0.007 C 
ATOM     19  C   LIG A   1      -5.447   4.317 137.340  0.00  0.00    +0.042 C 
ATOM     20  C   LIG A   1      -6.154   5.654 137.066  0.00  0.00    +0.181 C 
ATOM     21  C   LIG A   1      -6.851   5.762 135.684  0.00  0.00    +0.168 C 
ATOM     22  O   LIG A   1      -7.918   6.370 135.580  0.00  0.00    -0.294 OA
ATOM     23  C   LIG A   1      -4.356   2.217 136.497  0.00  0.00    +0.008 C 
ENDROOT
BRANCH  11  24
ATOM     24  C   LIG A   1      -8.895   6.113 130.361  0.00  0.00    +0.146 C 
ATOM     25  O   LIG A   1      -8.277   7.172 130.483  0.00  0.00    -0.296 OA
BRANCH  24  26
ATOM     26  C   LIG A   1     -10.420   6.143 130.193  0.00  0.00    +0.104 C 
ATOM     27  C   LIG A   1     -10.810   7.407 129.461  0.00  0.00    +0.243 C 
ATOM     28  O   LIG A   1     -12.082   7.817 129.953  0.00  0.00    -0.464 OA
ATOM     29  C   LIG A   1     -12.335   7.186 131.119  0.00  0.00    +0.308 C 
ATOM     30  C   LIG A   1     -11.225   6.253 131.478  0.00  0.00    +0.135 C 
ATOM     31  O   LIG A   1     -13.347   7.381 131.785  0.00  0.00    -0.251 OA
ENDBRANCH  24  26
ENDBRANCH  11  24
BRANCH  20  32
ATOM     32  O   LIG A   1      -7.097   5.869 138.116  0.00  0.00    -0.384 OA
ATOM     33  H   LIG A   1      -6.860   5.240 138.828  0.00  0.00    +0.210 HD
ENDBRANCH  20  32
BRANCH  14  34
ATOM     34  O   LIG A   1      -5.706   6.839 131.746  0.00  0.00    -0.461 OA
BRANCH  34  35
ATOM     35  C   LIG A   1      -4.749   7.188 130.839  0.00  0.00    +0.304 C 
ATOM     36  C   LIG A   1      -3.477   6.425 131.064  0.00  0.00    +0.136 C 
ATOM     37  O   LIG A   1      -4.918   7.949 129.896  0.00  0.00    -0.251 OA
ENDBRANCH  34  35
ENDBRANCH  14  34
TORSDOF 5
ENDMDL
MODEL 2
REMARK VINA RESULT:      -8.7      5.363      9.214
REMARK  Name = NuBBE_1060
REMARK  10 active torsions:
REMARK  status: ('A' for Active; 'I' for Inactive)
REMARK    1  A    between atoms: C_1  and  C_2
REMARK    2  A    between atoms: C_5  and  C_6
REMARK    3  A    between atoms: C_13  and  C_14
REMARK    4  A    between atoms: C_13  and  C_23
REMARK    5  A    between atoms: C_14  and  C_15
REMARK    6  A    between atoms: C_25  and  O_27
REMARK    7  A    between atoms: O_27  and  C_28
REMARK    8  A    between atoms: C_28  and  C_29
REMARK    9  A    between atoms: C_36  and  C_44
REMARK   10  A    between atoms: C_39  and  O_41
REMARK                            x       y       z     vdW  Elec       q    Type
REMARK                         _______ _______ _______ _____ _____    ______ ____
ROOT
ATOM      1  C   LIG A   1      -7.856  -2.963 126.831  0.00  0.00    +0.020 C 
ATOM      2  C   LIG A   1      -7.662  -1.532 126.264  0.00  0.00    +0.039 C 
ATOM      3  C   LIG A   1      -7.539  -0.452 127.477  0.00  0.00    +0.053 C 
ATOM      4  C   LIG A   1      -6.717   0.805 127.054  0.00  0.00    +0.016 C 
ATOM      5  C   LIG A   1      -7.489   1.578 125.929  0.00  0.00    +0.015 C 
ATOM      6  C   LIG A   1      -5.288   0.342 126.637  0.00  0.00    +0.183 C 
ATOM      7  O   LIG A   1      -4.672   1.397 125.883  0.00  0.00    -0.461 OA
ATOM      8  C   LIG A   1      -4.641   2.621 126.476  0.00  0.00    +0.308 C 
ATOM      9  C   LIG A   1      -5.161   2.669 127.900  0.00  0.00    +0.126 C 
ATOM     10  C   LIG A   1      -6.497   1.905 128.176  0.00  0.00    +0.023 C 
ATOM     11  C   LIG A   1      -6.642   1.409 129.658  0.00  0.00    +0.034 C 
ATOM     12  C   LIG A   1      -5.670   2.120 130.638  0.00  0.00    +0.019 C 
ATOM     13  C   LIG A   1      -6.276  -0.084 129.763  0.00  0.00    +0.059 C 
ATOM     14  C   LIG A   1      -6.957  -1.070 128.799  0.00  0.00    +0.182 C 
ATOM     15  O   LIG A   1      -4.154   3.599 125.922  0.00  0.00    -0.251 OA
ATOM     16  C   LIG A   1      -5.173  -1.004 125.894  0.00  0.00    +0.050 C 
ATOM     17  C   LIG A   1      -6.479  -1.410 125.231  0.00  0.00    +0.009 C 
ATOM     18  C   LIG A   1      -6.446  -2.621 124.266  0.00  0.00    -0.007 C 
ATOM     19  C   LIG A   1      -7.709  -2.533 123.381  0.00  0.00    +0.042 C 
ATOM     20  C   LIG A   1      -9.026  -2.245 124.120  0.00  0.00    +0.181 C 
ATOM     21  C   LIG A   1      -8.898  -1.322 125.361  0.00  0.00    +0.168 C 
ATOM     22  O   LIG A   1      -9.790  -0.510 125.617  0.00  0.00    -0.294 OA
ATOM     23  C   LIG A   1      -5.202  -2.677 123.374  0.00  0.00    +0.008 C 
ENDROOT
BRANCH  11  24
ATOM     24  C   LIG A   1      -8.108   1.661 130.169  0.00  0.00    +0.146 C 
ATOM     25  O   LIG A   1      -8.638   0.901 130.980  0.00  0.00    -0.296 OA
BRANCH  24  26
ATOM     26  C   LIG A   1      -8.888   2.878 129.653  0.00  0.00    +0.104 C 
ATOM     27  C   LIG A   1      -8.188   4.140 130.105  0.00  0.00    +0.243 C 
ATOM     28  O   LIG A   1      -9.185   5.132 130.327  0.00  0.00    -0.464 OA
ATOM     29  C   LIG A   1     -10.393   4.538 130.422  0.00  0.00    +0.308 C 
ATOM     30  C   LIG A   1     -10.284   3.062 130.227  0.00  0.00    +0.135 C 
ATOM     31  O   LIG A   1     -11.429   5.154 130.653  0.00  0.00    -0.251 OA
ENDBRANCH  24  26
ENDBRANCH  11  24
BRANCH  20  32
ATOM     32  O   LIG A   1      -9.939  -1.685 123.178  0.00  0.00    -0.384 OA
ATOM     33  H   LIG A   1     -10.582  -1.162 123.699  0.00  0.00    +0.210 HD
ENDBRANCH  20  32
BRANCH  14  34
ATOM     34  O   LIG A   1      -7.996  -1.820 129.475  0.00  0.00    -0.461 OA
BRANCH  34  35
ATOM     35  C   LIG A   1      -7.615  -2.573 130.546  0.00  0.00    +0.304 C 
ATOM     36  C   LIG A   1      -6.751  -3.725 130.127  0.00  0.00    +0.136 C 
ATOM     37  O   LIG A   1      -7.855  -2.303 131.715  0.00  0.00    -0.251 OA
ENDBRANCH  34  35
ENDBRANCH  14  34
TORSDOF 5
ENDMDL
MODEL 3
REMARK VINA RESULT:      -8.6      2.152      4.822
REMARK  Name = NuBBE_1060
REMARK  10 active torsions:
REMARK  status: ('A' for Active; 'I' for Inactive)
REMARK    1  A    between atoms: C_1  and  C_2
REMARK    2  A    between atoms: C_5  and  C_6
REMARK    3  A    between atoms: C_13  and  C_14
REMARK    4  A    between atoms: C_13  and  C_23
REMARK    5  A    between atoms: C_14  and  C_15
REMARK    6  A    between atoms: C_25  and  O_27
REMARK    7  A    between atoms: O_27  and  C_28
REMARK    8  A    between atoms: C_28  and  C_29
REMARK    9  A    between atoms: C_36  and  C_44
REMARK   10  A    between atoms: C_39  and  O_41
REMARK                            x       y       z     vdW  Elec       q    Type
REMARK                         _______ _______ _______ _____ _____    ______ ____
ROOT
ATOM      1  C   LIG A   1      -4.079   3.716 129.402  0.00  0.00    +0.020 C 
ATOM      2  C   LIG A   1      -4.685   4.628 130.502  0.00  0.00    +0.039 C 
ATOM      3  C   LIG A   1      -6.241   4.230 130.777  0.00  0.00    +0.053 C 
ATOM      4  C   LIG A   1      -6.686   4.597 132.227  0.00  0.00    +0.016 C 
ATOM      5  C   LIG A   1      -6.652   6.155 132.403  0.00  0.00    +0.015 C 
ATOM      6  C   LIG A   1      -5.777   3.828 133.232  0.00  0.00    +0.183 C 
ATOM      7  O   LIG A   1      -5.900   4.447 134.521  0.00  0.00    -0.461 OA
ATOM      8  C   LIG A   1      -7.166   4.583 135.004  0.00  0.00    +0.308 C 
ATOM      9  C   LIG A   1      -8.257   3.956 134.158  0.00  0.00    +0.126 C 
ATOM     10  C   LIG A   1      -8.175   4.212 132.618  0.00  0.00    +0.023 C 
ATOM     11  C   LIG A   1      -8.837   3.079 131.757  0.00  0.00    +0.034 C 
ATOM     12  C   LIG A   1      -9.795   2.171 132.575  0.00  0.00    +0.019 C 
ATOM     13  C   LIG A   1      -7.762   2.119 131.213  0.00  0.00    +0.059 C 
ATOM     14  C   LIG A   1      -6.557   2.722 130.471  0.00  0.00    +0.182 C 
ATOM     15  O   LIG A   1      -7.394   5.110 136.085  0.00  0.00    -0.251 OA
ATOM     16  C   LIG A   1      -4.294   3.650 132.847  0.00  0.00    +0.050 C 
ATOM     17  C   LIG A   1      -3.836   4.680 131.828  0.00  0.00    +0.009 C 
ATOM     18  C   LIG A   1      -2.321   4.761 131.523  0.00  0.00    -0.007 C 
ATOM     19  C   LIG A   1      -2.059   6.138 130.872  0.00  0.00    +0.042 C 
ATOM     20  C   LIG A   1      -3.034   6.546 129.757  0.00  0.00    +0.181 C 
ATOM     21  C   LIG A   1      -4.494   6.056 129.943  0.00  0.00    +0.168 C 
ATOM     22  O   LIG A   1      -5.433   6.775 129.595  0.00  0.00    -0.294 OA
ATOM     23  C   LIG A   1      -1.425   4.602 132.756  0.00  0.00    +0.008 C 
ENDROOT
BRANCH  11  24
ATOM     24  C   LIG A   1      -9.666   3.713 130.580  0.00  0.00    +0.146 C 
ATOM     25  O   LIG A   1     -10.041   3.029 129.627  0.00  0.00    -0.296 OA
BRANCH  24  26
ATOM     26  C   LIG A   1     -10.018   5.206 130.623  0.00  0.00    +0.104 C 
ATOM     27  C   LIG A   1     -11.445   5.389 130.157  0.00  0.00    +0.243 C 
ATOM     28  O   LIG A   1     -11.524   6.643 129.487  0.00  0.00    -0.464 OA
ATOM     29  C   LIG A   1     -10.280   7.060 129.171  0.00  0.00    +0.308 C 
ATOM     30  C   LIG A   1      -9.248   6.096 129.660  0.00  0.00    +0.135 C 
ATOM     31  O   LIG A   1     -10.053   8.094 128.551  0.00  0.00    -0.251 OA
ENDBRANCH  24  26
ENDBRANCH  11  24
BRANCH  20  32
ATOM     32  O   LIG A   1      -2.998   7.969 129.649  0.00  0.00    -0.384 OA
ATOM     33  H   LIG A   1      -2.483   8.168 128.840  0.00  0.00    +0.210 HD
ENDBRANCH  20  32
BRANCH  14  34
ATOM     34  O   LIG A   1      -6.688   2.541 129.039  0.00  0.00    -0.461 OA
BRANCH  34  35
ATOM     35  C   LIG A   1      -6.712   1.257 128.579  0.00  0.00    +0.304 C 
ATOM     36  C   LIG A   1      -7.903   1.011 127.702  0.00  0.00    +0.136 C 
ATOM     37  O   LIG A   1      -5.831   0.428 128.764  0.00  0.00    -0.251 OA
ENDBRANCH  34  35
ENDBRANCH  14  34
TORSDOF 5
ENDMDL
MODEL 4
REMARK VINA RESULT:      -8.6      2.328      6.560
REMARK  Name = NuBBE_1060
REMARK  10 active torsions:
REMARK  status: ('A' for Active; 'I' for Inactive)
REMARK    1  A    between atoms: C_1  and  C_2
REMARK    2  A    between atoms: C_5  and  C_6
REMARK    3  A    between atoms: C_13  and  C_14
REMARK    4  A    between atoms: C_13  and  C_23
REMARK    5  A    between atoms: C_14  and  C_15
REMARK    6  A    between atoms: C_25  and  O_27
REMARK    7  A    between atoms: O_27  and  C_28
REMARK    8  A    between atoms: C_28  and  C_29
REMARK    9  A    between atoms: C_36  and  C_44
REMARK   10  A    between atoms: C_39  and  O_41
REMARK                            x       y       z     vdW  Elec       q    Type
REMARK                         _______ _______ _______ _____ _____    ______ ____
ROOT
ATOM      1  C   LIG A   1      -3.014   5.057 131.722  0.00  0.00    +0.020 C 
ATOM      2  C   LIG A   1      -4.215   5.017 130.739  0.00  0.00    +0.039 C 
ATOM      3  C   LIG A   1      -5.466   4.213 131.403  0.00  0.00    +0.053 C 
ATOM      4  C   LIG A   1      -6.834   4.682 130.818  0.00  0.00    +0.016 C 
ATOM      5  C   LIG A   1      -6.903   4.311 129.296  0.00  0.00    +0.015 C 
ATOM      6  C   LIG A   1      -6.997   6.205 131.105  0.00  0.00    +0.183 C 
ATOM      7  O   LIG A   1      -8.024   6.721 130.246  0.00  0.00    -0.461 OA
ATOM      8  C   LIG A   1      -9.224   6.080 130.290  0.00  0.00    +0.308 C 
ATOM      9  C   LIG A   1      -9.336   4.979 131.328  0.00  0.00    +0.126 C 
ATOM     10  C   LIG A   1      -8.127   3.994 131.428  0.00  0.00    +0.023 C 
ATOM     11  C   LIG A   1      -7.954   3.353 132.850  0.00  0.00    +0.034 C 
ATOM     12  C   LIG A   1      -9.225   3.477 133.734  0.00  0.00    +0.019 C 
ATOM     13  C   LIG A   1      -6.857   4.088 133.642  0.00  0.00    +0.059 C 
ATOM     14  C   LIG A   1      -5.486   4.286 132.973  0.00  0.00    +0.182 C 
ATOM     15  O   LIG A   1     -10.169   6.421 129.591  0.00  0.00    -0.251 OA
ATOM     16  C   LIG A   1      -5.727   7.076 131.028  0.00  0.00    +0.050 C 
ATOM     17  C   LIG A   1      -4.636   6.431 130.189  0.00  0.00    +0.009 C 
ATOM     18  C   LIG A   1      -3.397   7.292 129.840  0.00  0.00    -0.007 C 
ATOM     19  C   LIG A   1      -2.703   6.625 128.631  0.00  0.00    +0.042 C 
ATOM     20  C   LIG A   1      -2.511   5.103 128.726  0.00  0.00    +0.181 C 
ATOM     21  C   LIG A   1      -3.635   4.340 129.477  0.00  0.00    +0.168 C 
ATOM     22  O   LIG A   1      -3.983   3.223 129.090  0.00  0.00    -0.294 OA
ATOM     23  C   LIG A   1      -3.724   8.750 129.500  0.00  0.00    +0.008 C 
ENDROOT
BRANCH  11  24
ATOM     24  C   LIG A   1      -7.614   1.823 132.713  0.00  0.00    +0.146 C 
ATOM     25  O   LIG A   1      -7.148   1.189 133.661  0.00  0.00    -0.296 OA
BRANCH  24  26
ATOM     26  C   LIG A   1      -7.871   1.109 131.380  0.00  0.00    +0.104 C 
ATOM     27  C   LIG A   1      -8.590  -0.194 131.650  0.00  0.00    +0.243 C 
ATOM     28  O   LIG A   1      -8.165  -1.135 130.669  0.00  0.00    -0.464 OA
ATOM     29  C   LIG A   1      -7.034  -0.689 130.083  0.00  0.00    +0.308 C 
ATOM     30  C   LIG A   1      -6.635   0.644 130.627  0.00  0.00    +0.135 C 
ATOM     31  O   LIG A   1      -6.425  -1.321 129.226  0.00  0.00    -0.251 OA
ENDBRANCH  24  26
ENDBRANCH  11  24
BRANCH  20  32
ATOM     32  O   LIG A   1      -2.372   4.600 127.398  0.00  0.00    -0.384 OA
ATOM     33  H   LIG A   1      -3.265   4.633 126.999  0.00  0.00    +0.210 HD
ENDBRANCH  20  32
BRANCH  14  34
ATOM     34  O   LIG A   1      -4.511   3.358 133.508  0.00  0.00    -0.461 OA
BRANCH  34  35
ATOM     35  C   LIG A   1      -4.166   3.513 134.819  0.00  0.00    +0.304 C 
ATOM     36  C   LIG A   1      -4.267   2.218 135.569  0.00  0.00    +0.136 C 
ATOM     37  O   LIG A   1      -3.731   4.544 135.313  0.00  0.00    -0.251 OA
ENDBRANCH  34  35
ENDBRANCH  14  34
TORSDOF 5
ENDMDL
MODEL 5
REMARK VINA RESULT:      -8.6      3.766      5.989
REMARK  Name = NuBBE_1060
REMARK  10 active torsions:
REMARK  status: ('A' for Active; 'I' for Inactive)
REMARK    1  A    between atoms: C_1  and  C_2
REMARK    2  A    between atoms: C_5  and  C_6
REMARK    3  A    between atoms: C_13  and  C_14
REMARK    4  A    between atoms: C_13  and  C_23
REMARK    5  A    between atoms: C_14  and  C_15
REMARK    6  A    between atoms: C_25  and  O_27
REMARK    7  A    between atoms: O_27  and  C_28
REMARK    8  A    between atoms: C_28  and  C_29
REMARK    9  A    between atoms: C_36  and  C_44
REMARK   10  A    between atoms: C_39  and  O_41
REMARK                            x       y       z     vdW  Elec       q    Type
REMARK                         _______ _______ _______ _____ _____    ______ ____
ROOT
ATOM      1  C   LIG A   1      -6.859   4.714 130.594  0.00  0.00    +0.020 C 
ATOM      2  C   LIG A   1      -7.689   3.470 131.008  0.00  0.00    +0.039 C 
ATOM      3  C   LIG A   1      -7.092   2.128 130.305  0.00  0.00    +0.053 C 
ATOM      4  C   LIG A   1      -7.405   0.848 131.139  0.00  0.00    +0.016 C 
ATOM      5  C   LIG A   1      -8.955   0.610 131.165  0.00  0.00    +0.015 C 
ATOM      6  C   LIG A   1      -6.767   1.010 132.551  0.00  0.00    +0.183 C 
ATOM      7  O   LIG A   1      -7.371   0.055 133.436  0.00  0.00    -0.461 OA
ATOM      8  C   LIG A   1      -7.343  -1.243 133.028  0.00  0.00    +0.308 C 
ATOM      9  C   LIG A   1      -6.573  -1.508 131.748  0.00  0.00    +0.126 C 
ATOM     10  C   LIG A   1      -6.830  -0.516 130.567  0.00  0.00    +0.023 C 
ATOM     11  C   LIG A   1      -5.615  -0.386 129.581  0.00  0.00    +0.034 C 
ATOM     12  C   LIG A   1      -4.594  -1.548 129.714  0.00  0.00    +0.019 C 
ATOM     13  C   LIG A   1      -4.802   0.884 129.895  0.00  0.00    +0.059 C 
ATOM     14  C   LIG A   1      -5.554   2.222 129.999  0.00  0.00    +0.182 C 
ATOM     15  O   LIG A   1      -7.841  -2.144 133.692  0.00  0.00    -0.251 OA
ATOM     16  C   LIG A   1      -6.783   2.421 133.173  0.00  0.00    +0.050 C 
ATOM     17  C   LIG A   1      -7.859   3.307 132.566  0.00  0.00    +0.009 C 
ATOM     18  C   LIG A   1      -8.137   4.668 133.248  0.00  0.00    -0.007 C 
ATOM     19  C   LIG A   1      -9.532   5.137 132.780  0.00  0.00    +0.042 C 
ATOM     20  C   LIG A   1      -9.804   5.027 131.271  0.00  0.00    +0.181 C 
ATOM     21  C   LIG A   1      -9.126   3.823 130.564  0.00  0.00    +0.168 C 
ATOM     22  O   LIG A   1      -9.715   3.235 129.655  0.00  0.00    -0.294 OA
ATOM     23  C   LIG A   1      -8.103   4.618 134.779  0.00  0.00    +0.008 C 
ENDROOT
BRANCH  11  24
ATOM     24  C   LIG A   1      -6.129  -0.367 128.095  0.00  0.00    +0.146 C 
ATOM     25  O   LIG A   1      -5.346  -0.225 127.154  0.00  0.00    -0.296 OA
BRANCH  24  26
ATOM     26  C   LIG A   1      -7.628  -0.532 127.811  0.00  0.00    +0.104 C 
ATOM     27  C   LIG A   1      -7.825  -1.698 126.868  0.00  0.00    +0.243 C 
ATOM     28  O   LIG A   1      -8.950  -1.405 126.046  0.00  0.00    -0.464 OA
ATOM     29  C   LIG A   1      -9.223  -0.085 126.118  0.00  0.00    +0.308 C 
ATOM     30  C   LIG A   1      -8.290   0.609 127.055  0.00  0.00    +0.135 C 
ATOM     31  O   LIG A   1     -10.121   0.453 125.477  0.00  0.00    -0.251 OA
ENDBRANCH  24  26
ENDBRANCH  11  24
BRANCH  20  32
ATOM     32  O   LIG A   1     -11.218   4.979 131.087  0.00  0.00    -0.384 OA
ATOM     33  H   LIG A   1     -11.526   4.172 131.548  0.00  0.00    +0.210 HD
ENDBRANCH  20  32
BRANCH  14  34
ATOM     34  O   LIG A   1      -5.349   3.024 128.810  0.00  0.00    -0.461 OA
BRANCH  34  35
ATOM     35  C   LIG A   1      -4.062   3.352 128.500  0.00  0.00    +0.304 C 
ATOM     36  C   LIG A   1      -3.716   2.948 127.098  0.00  0.00    +0.136 C 
ATOM     37  O   LIG A   1      -3.306   3.985 129.224  0.00  0.00    -0.251 OA
ENDBRANCH  34  35
ENDBRANCH  14  34
TORSDOF 5
ENDMDL
MODEL 6
REMARK VINA RESULT:      -8.5      2.583      6.498
REMARK  Name = NuBBE_1060
REMARK  10 active torsions:
REMARK  status: ('A' for Active; 'I' for Inactive)
REMARK    1  A    between atoms: C_1  and  C_2
REMARK    2  A    between atoms: C_5  and  C_6
REMARK    3  A    between atoms: C_13  and  C_14
REMARK    4  A    between atoms: C_13  and  C_23
REMARK    5  A    between atoms: C_14  and  C_15
REMARK    6  A    between atoms: C_25  and  O_27
REMARK    7  A    between atoms: O_27  and  C_28
REMARK    8  A    between atoms: C_28  and  C_29
REMARK    9  A    between atoms: C_36  and  C_44
REMARK   10  A    between atoms: C_39  and  O_41
REMARK                            x       y       z     vdW  Elec       q    Type
REMARK                         _______ _______ _______ _____ _____    ______ ____
ROOT
ATOM      1  C   LIG A   1      -6.134   1.967 128.254  0.00  0.00    +0.020 C 
ATOM      2  C   LIG A   1      -5.908   3.426 128.734  0.00  0.00    +0.039 C 
ATOM      3  C   LIG A   1      -6.529   3.637 130.225  0.00  0.00    +0.053 C 
ATOM      4  C   LIG A   1      -5.799   4.776 131.002  0.00  0.00    +0.016 C 
ATOM      5  C   LIG A   1      -6.056   6.145 130.282  0.00  0.00    +0.015 C 
ATOM      6  C   LIG A   1      -4.291   4.401 131.125  0.00  0.00    +0.183 C 
ATOM      7  O   LIG A   1      -3.555   5.586 131.465  0.00  0.00    -0.461 OA
ATOM      8  C   LIG A   1      -3.985   6.267 132.562  0.00  0.00    +0.308 C 
ATOM      9  C   LIG A   1      -5.114   5.611 133.335  0.00  0.00    +0.126 C 
ATOM     10  C   LIG A   1      -6.294   5.037 132.486  0.00  0.00    +0.023 C 
ATOM     11  C   LIG A   1      -7.043   3.843 133.177  0.00  0.00    +0.034 C 
ATOM     12  C   LIG A   1      -6.760   3.746 134.701  0.00  0.00    +0.019 C 
ATOM     13  C   LIG A   1      -6.555   2.499 132.605  0.00  0.00    +0.059 C 
ATOM     14  C   LIG A   1      -6.551   2.317 131.078  0.00  0.00    +0.182 C 
ATOM     15  O   LIG A   1      -3.445   7.300 132.938  0.00  0.00    -0.251 OA
ATOM     16  C   LIG A   1      -3.644   3.678 129.926  0.00  0.00    +0.050 C 
ATOM     17  C   LIG A   1      -4.411   3.906 128.634  0.00  0.00    +0.009 C 
ATOM     18  C   LIG A   1      -3.753   3.429 127.316  0.00  0.00    -0.007 C 
ATOM     19  C   LIG A   1      -4.451   4.178 126.160  0.00  0.00    +0.042 C 
ATOM     20  C   LIG A   1      -5.987   4.216 126.217  0.00  0.00    +0.181 C 
ATOM     21  C   LIG A   1      -6.593   4.282 127.645  0.00  0.00    +0.168 C 
ATOM     22  O   LIG A   1      -7.608   4.949 127.850  0.00  0.00    -0.294 OA
ATOM     23  C   LIG A   1      -2.243   3.676 127.246  0.00  0.00    +0.008 C 
ENDROOT
BRANCH  11  24
ATOM     24  C   LIG A   1      -8.596   4.000 132.987  0.00  0.00    +0.146 C 
ATOM     25  O   LIG A   1      -9.388   3.358 133.679  0.00  0.00    -0.296 OA
BRANCH  24  26
ATOM     26  C   LIG A   1      -9.133   4.972 131.928  0.00  0.00    +0.104 C 
ATOM     27  C   LIG A   1     -10.140   5.897 132.573  0.00  0.00    +0.243 C 
ATOM     28  O   LIG A   1     -11.127   6.211 131.597  0.00  0.00    -0.464 OA
ATOM     29  C   LIG A   1     -11.052   5.324 130.583  0.00  0.00    +0.308 C 
ATOM     30  C   LIG A   1      -9.945   4.345 130.805  0.00  0.00    +0.135 C 
ATOM     31  O   LIG A   1     -11.813   5.334 129.621  0.00  0.00    -0.251 OA
ENDBRANCH  24  26
ENDBRANCH  11  24
BRANCH  20  32
ATOM     32  O   LIG A   1      -6.423   5.332 125.442  0.00  0.00    -0.384 OA
ATOM     33  H   LIG A   1      -7.394   5.382 125.558  0.00  0.00    +0.210 HD
ENDBRANCH  20  32
BRANCH  14  34
ATOM     34  O   LIG A   1      -7.663   1.491 130.653  0.00  0.00    -0.461 OA
BRANCH  34  35
ATOM     35  C   LIG A   1      -7.769   0.257 131.225  0.00  0.00    +0.304 C 
ATOM     36  C   LIG A   1      -9.125   0.050 131.832  0.00  0.00    +0.136 C 
ATOM     37  O   LIG A   1      -6.915  -0.617 131.171  0.00  0.00    -0.251 OA
ENDBRANCH  34  35
ENDBRANCH  14  34
TORSDOF 5
ENDMDL
MODEL 7
REMARK VINA RESULT:      -8.4      3.245      4.820
REMARK  Name = NuBBE_1060
REMARK  10 active torsions:
REMARK  status: ('A' for Active; 'I' for Inactive)
REMARK    1  A    between atoms: C_1  and  C_2
REMARK    2  A    between atoms: C_5  and  C_6
REMARK    3  A    between atoms: C_13  and  C_14
REMARK    4  A    between atoms: C_13  and  C_23
REMARK    5  A    between atoms: C_14  and  C_15
REMARK    6  A    between atoms: C_25  and  O_27
REMARK    7  A    between atoms: O_27  and  C_28
REMARK    8  A    between atoms: C_28  and  C_29
REMARK    9  A    between atoms: C_36  and  C_44
REMARK   10  A    between atoms: C_39  and  O_41
REMARK                            x       y       z     vdW  Elec       q    Type
REMARK                         _______ _______ _______ _____ _____    ______ ____
ROOT
ATOM      1  C   LIG A   1      -6.199   6.458 132.291  0.00  0.00    +0.020 C 
ATOM      2  C   LIG A   1      -6.487   4.986 131.890  0.00  0.00    +0.039 C 
ATOM      3  C   LIG A   1      -5.795   4.643 130.456  0.00  0.00    +0.053 C 
ATOM      4  C   LIG A   1      -5.471   3.123 130.317  0.00  0.00    +0.016 C 
ATOM      5  C   LIG A   1      -6.809   2.305 130.304  0.00  0.00    +0.015 C 
ATOM      6  C   LIG A   1      -4.496   2.720 131.464  0.00  0.00    +0.183 C 
ATOM      7  O   LIG A   1      -4.511   1.290 131.591  0.00  0.00    -0.461 OA
ATOM      8  C   LIG A   1      -4.257   0.583 130.455  0.00  0.00    +0.308 C 
ATOM      9  C   LIG A   1      -3.882   1.412 129.242  0.00  0.00    +0.126 C 
ATOM     10  C   LIG A   1      -4.752   2.682 128.973  0.00  0.00    +0.023 C 
ATOM     11  C   LIG A   1      -3.989   3.816 128.202  0.00  0.00    +0.034 C 
ATOM     12  C   LIG A   1      -2.700   3.313 127.497  0.00  0.00    +0.019 C 
ATOM     13  C   LIG A   1      -3.497   4.897 129.184  0.00  0.00    +0.059 C 
ATOM     14  C   LIG A   1      -4.515   5.506 130.164  0.00  0.00    +0.182 C 
ATOM     15  O   LIG A   1      -4.259  -0.642 130.439  0.00  0.00    -0.251 OA
ATOM     16  C   LIG A   1      -4.703   3.394 132.835  0.00  0.00    +0.050 C 
ATOM     17  C   LIG A   1      -6.113   3.937 133.003  0.00  0.00    +0.009 C 
ATOM     18  C   LIG A   1      -6.525   4.436 134.409  0.00  0.00    -0.007 C 
ATOM     19  C   LIG A   1      -8.070   4.468 134.447  0.00  0.00    +0.042 C 
ATOM     20  C   LIG A   1      -8.755   5.113 133.232  0.00  0.00    +0.181 C 
ATOM     21  C   LIG A   1      -8.029   4.904 131.876  0.00  0.00    +0.168 C 
ATOM     22  O   LIG A   1      -8.687   4.740 130.846  0.00  0.00    -0.294 OA
ATOM     23  C   LIG A   1      -6.006   3.566 135.559  0.00  0.00    +0.008 C 
ENDROOT
BRANCH  11  24
ATOM     24  C   LIG A   1      -4.923   4.444 127.104  0.00  0.00    +0.146 C 
ATOM     25  O   LIG A   1      -4.926   5.657 126.890  0.00  0.00    -0.296 OA
BRANCH  24  26
ATOM     26  C   LIG A   1      -5.840   3.529 126.281  0.00  0.00    +0.104 C 
ATOM     27  C   LIG A   1      -5.698   3.878 124.816  0.00  0.00    +0.243 C 
ATOM     28  O   LIG A   1      -6.960   3.658 124.194  0.00  0.00    -0.464 OA
ATOM     29  C   LIG A   1      -7.917   3.579 125.142  0.00  0.00    +0.308 C 
ATOM     30  C   LIG A   1      -7.333   3.708 126.510  0.00  0.00    +0.135 C 
ATOM     31  O   LIG A   1      -9.108   3.432 124.886  0.00  0.00    -0.251 OA
ENDBRANCH  24  26
ENDBRANCH  11  24
BRANCH  20  32
ATOM     32  O   LIG A   1     -10.087   4.605 133.165  0.00  0.00    -0.384 OA
ATOM     33  H   LIG A   1     -10.005   3.630 133.120  0.00  0.00    +0.210 HD
ENDBRANCH  20  32
BRANCH  14  34
ATOM     34  O   LIG A   1      -4.917   6.830 129.734  0.00  0.00    -0.461 OA
BRANCH  34  35
ATOM     35  C   LIG A   1      -3.947   7.787 129.695  0.00  0.00    +0.304 C 
ATOM     36  C   LIG A   1      -3.376   8.045 131.058  0.00  0.00    +0.136 C 
ATOM     37  O   LIG A   1      -3.514   8.307 128.676  0.00  0.00    -0.251 OA
ENDBRANCH  34  35
ENDBRANCH  14  34
TORSDOF 5
ENDMDL
MODEL 8
REMARK VINA RESULT:      -8.4      5.314      9.125
REMARK  Name = NuBBE_1060
REMARK  10 active torsions:
REMARK  status: ('A' for Active; 'I' for Inactive)
REMARK    1  A    between atoms: C_1  and  C_2
REMARK    2  A    between atoms: C_5  and  C_6
REMARK    3  A    between atoms: C_13  and  C_14
REMARK    4  A    between atoms: C_13  and  C_23
REMARK    5  A    between atoms: C_14  and  C_15
REMARK    6  A    between atoms: C_25  and  O_27
REMARK    7  A    between atoms: O_27  and  C_28
REMARK    8  A    between atoms: C_28  and  C_29
REMARK    9  A    between atoms: C_36  and  C_44
REMARK   10  A    between atoms: C_39  and  O_41
REMARK                            x       y       z     vdW  Elec       q    Type
REMARK                         _______ _______ _______ _____ _____    ______ ____
ROOT
ATOM      1  C   LIG A   1      -7.000  -2.567 127.344  0.00  0.00    +0.020 C 
ATOM      2  C   LIG A   1      -7.426  -1.395 126.419  0.00  0.00    +0.039 C 
ATOM      3  C   LIG A   1      -7.478   0.001 127.257  0.00  0.00    +0.053 C 
ATOM      4  C   LIG A   1      -7.240   1.239 126.338  0.00  0.00    +0.016 C 
ATOM      5  C   LIG A   1      -8.422   1.361 125.314  0.00  0.00    +0.015 C 
ATOM      6  C   LIG A   1      -5.839   1.096 125.671  0.00  0.00    +0.183 C 
ATOM      7  O   LIG A   1      -5.778   1.987 124.548  0.00  0.00    -0.461 OA
ATOM      8  C   LIG A   1      -6.074   3.292 124.799  0.00  0.00    +0.308 C 
ATOM      9  C   LIG A   1      -6.317   3.636 126.256  0.00  0.00    +0.126 C 
ATOM     10  C   LIG A   1      -7.226   2.651 127.060  0.00  0.00    +0.023 C 
ATOM     11  C   LIG A   1      -6.921   2.629 128.599  0.00  0.00    +0.034 C 
ATOM     12  C   LIG A   1      -6.104   3.861 129.077  0.00  0.00    +0.019 C 
ATOM     13  C   LIG A   1      -6.041   1.417 128.956  0.00  0.00    +0.059 C 
ATOM     14  C   LIG A   1      -6.491   0.026 128.479  0.00  0.00    +0.182 C 
ATOM     15  O   LIG A   1      -6.070   4.140 123.915  0.00  0.00    -0.251 OA
ATOM     16  C   LIG A   1      -5.390  -0.324 125.271  0.00  0.00    +0.050 C 
ATOM     17  C   LIG A   1      -6.565  -1.274 125.105  0.00  0.00    +0.009 C 
ATOM     18  C   LIG A   1      -6.280  -2.665 124.488  0.00  0.00    -0.007 C 
ATOM     19  C   LIG A   1      -7.629  -3.226 123.986  0.00  0.00    +0.042 C 
ATOM     20  C   LIG A   1      -8.809  -3.108 124.964  0.00  0.00    +0.181 C 
ATOM     21  C   LIG A   1      -8.797  -1.844 125.864  0.00  0.00    +0.168 C 
ATOM     22  O   LIG A   1      -9.856  -1.283 126.150  0.00  0.00    -0.294 OA
ATOM     23  C   LIG A   1      -5.275  -2.642 123.331  0.00  0.00    +0.008 C 
ENDROOT
BRANCH  11  24
ATOM     24  C   LIG A   1      -8.267   2.601 129.414  0.00  0.00    +0.146 C 
ATOM     25  O   LIG A   1      -9.351   2.774 128.855  0.00  0.00    -0.296 OA
BRANCH  24  26
ATOM     26  C   LIG A   1      -8.228   2.349 130.927  0.00  0.00    +0.104 C 
ATOM     27  C   LIG A   1      -9.432   1.521 131.319  0.00  0.00    +0.243 C 
ATOM     28  O   LIG A   1      -9.820   1.916 132.631  0.00  0.00    -0.464 OA
ATOM     29  C   LIG A   1      -9.249   3.103 132.927  0.00  0.00    +0.308 C 
ATOM     30  C   LIG A   1      -8.382   3.578 131.808  0.00  0.00    +0.135 C 
ATOM     31  O   LIG A   1      -9.444   3.699 133.982  0.00  0.00    -0.251 OA
ENDBRANCH  24  26
ENDBRANCH  11  24
BRANCH  20  32
ATOM     32  O   LIG A   1     -10.013  -3.160 124.200  0.00  0.00    -0.384 OA
ATOM     33  H   LIG A   1     -10.244  -2.232 123.991  0.00  0.00    +0.210 HD
ENDBRANCH  20  32
BRANCH  14  34
ATOM     34  O   LIG A   1      -7.061  -0.736 129.571  0.00  0.00    -0.461 OA
BRANCH  34  35
ATOM     35  C   LIG A   1      -6.259  -0.961 130.652  0.00  0.00    +0.304 C 
ATOM     36  C   LIG A   1      -5.003  -1.680 130.260  0.00  0.00    +0.136 C 
ATOM     37  O   LIG A   1      -6.474  -0.548 131.783  0.00  0.00    -0.251 OA
ENDBRANCH  34  35
ENDBRANCH  14  34
TORSDOF 5
ENDMDL
MODEL 9
REMARK VINA RESULT:      -8.3      4.175      8.250
REMARK  Name = NuBBE_1060
REMARK  10 active torsions:
REMARK  status: ('A' for Active; 'I' for Inactive)
REMARK    1  A    between atoms: C_1  and  C_2
REMARK    2  A    between atoms: C_5  and  C_6
REMARK    3  A    between atoms: C_13  and  C_14
REMARK    4  A    between atoms: C_13  and  C_23
REMARK    5  A    between atoms: C_14  and  C_15
REMARK    6  A    between atoms: C_25  and  O_27
REMARK    7  A    between atoms: O_27  and  C_28
REMARK    8  A    between atoms: C_28  and  C_29
REMARK    9  A    between atoms: C_36  and  C_44
REMARK   10  A    between atoms: C_39  and  O_41
REMARK                            x       y       z     vdW  Elec       q    Type
REMARK                         _______ _______ _______ _____ _____    ______ ____
ROOT
ATOM      1  C   LIG A   1      -8.763   0.982 126.944  0.00  0.00    +0.020 C 
ATOM      2  C   LIG A   1      -7.646   1.901 126.381  0.00  0.00    +0.039 C 
ATOM      3  C   LIG A   1      -6.914   2.710 127.591  0.00  0.00    +0.053 C 
ATOM      4  C   LIG A   1      -5.447   3.097 127.226  0.00  0.00    +0.016 C 
ATOM      5  C   LIG A   1      -5.459   4.116 126.034  0.00  0.00    +0.015 C 
ATOM      6  C   LIG A   1      -4.651   1.790 126.932  0.00  0.00    +0.183 C 
ATOM      7  O   LIG A   1      -3.453   2.138 126.222  0.00  0.00    -0.461 OA
ATOM      8  C   LIG A   1      -2.660   3.078 126.805  0.00  0.00    +0.308 C 
ATOM      9  C   LIG A   1      -3.102   3.541 128.181  0.00  0.00    +0.126 C 
ATOM     10  C   LIG A   1      -4.624   3.852 128.352  0.00  0.00    +0.023 C 
ATOM     11  C   LIG A   1      -5.142   3.663 129.822  0.00  0.00    +0.034 C 
ATOM     12  C   LIG A   1      -3.999   3.625 130.872  0.00  0.00    +0.019 C 
ATOM     13  C   LIG A   1      -5.851   2.303 129.970  0.00  0.00    +0.059 C 
ATOM     14  C   LIG A   1      -6.955   1.944 128.962  0.00  0.00    +0.182 C 
ATOM     15  O   LIG A   1      -1.622   3.466 126.284  0.00  0.00    -0.251 OA
ATOM     16  C   LIG A   1      -5.405   0.652 126.213  0.00  0.00    +0.050 C 
ATOM     17  C   LIG A   1      -6.617   1.158 125.449  0.00  0.00    +0.009 C 
ATOM     18  C   LIG A   1      -7.332   0.164 124.501  0.00  0.00    -0.007 C 
ATOM     19  C   LIG A   1      -8.175   1.001 123.514  0.00  0.00    +0.042 C 
ATOM     20  C   LIG A   1      -9.020   2.122 124.139  0.00  0.00    +0.181 C 
ATOM     21  C   LIG A   1      -8.389   2.812 125.378  0.00  0.00    +0.168 C 
ATOM     22  O   LIG A   1      -8.543   4.022 125.552  0.00  0.00    -0.294 OA
ATOM     23  C   LIG A   1      -6.381  -0.745 123.715  0.00  0.00    +0.008 C 
ENDROOT
BRANCH  11  24
ATOM     24  C   LIG A   1      -6.109   4.841 130.208  0.00  0.00    +0.146 C 
ATOM     25  O   LIG A   1      -6.039   5.932 129.639  0.00  0.00    -0.296 OA
BRANCH  24  26
ATOM     26  C   LIG A   1      -7.160   4.627 131.305  0.00  0.00    +0.104 C 
ATOM     27  C   LIG A   1      -8.381   5.461 130.988  0.00  0.00    +0.243 C 
ATOM     28  O   LIG A   1      -8.955   5.876 132.223  0.00  0.00    -0.464 OA
ATOM     29  C   LIG A   1      -8.051   5.715 133.212  0.00  0.00    +0.308 C 
ATOM     30  C   LIG A   1      -6.781   5.126 132.691  0.00  0.00    +0.135 C 
ATOM     31  O   LIG A   1      -8.266   6.030 134.379  0.00  0.00    -0.251 OA
ENDBRANCH  24  26
ENDBRANCH  11  24
BRANCH  20  32
ATOM     32  O   LIG A   1      -9.288   3.084 123.120  0.00  0.00    -0.384 OA
ATOM     33  H   LIG A   1     -10.107   2.787 122.674  0.00  0.00    +0.210 HD
ENDBRANCH  20  32
BRANCH  14  34
ATOM     34  O   LIG A   1      -8.267   2.097 129.557  0.00  0.00    -0.461 OA
BRANCH  34  35
ATOM     35  C   LIG A   1      -8.600   1.225 130.551  0.00  0.00    +0.304 C 
ATOM     36  C   LIG A   1      -9.475   1.875 131.580  0.00  0.00    +0.136 C 
ATOM     37  O   LIG A   1      -8.314   0.035 130.566  0.00  0.00    -0.251 OA
ENDBRANCH  34  35
ENDBRANCH  14  34
TORSDOF 5
ENDMDL
