MODEL 1
REMARK VINA RESULT:      -7.4      0.000      0.000
REMARK  Name = NuBBE_2069
REMARK  3 active torsions:
REMARK  status: ('A' for Active; 'I' for Inactive)
REMARK    1  A    between atoms: C_3  and  C_4
REMARK    2  A    between atoms: C_5  and  O_6
REMARK    3  A    between atoms: C_16  and  O_18
REMARK                            x       y       z     vdW  Elec       q    Type
REMARK                         _______ _______ _______ _____ _____    ______ ____
ROOT
ATOM      1  O   LIG A   1     -10.153  -0.392 122.470  0.00  0.00    -0.250 OA
ATOM      2  C   LIG A   1      -9.460   0.311 123.197  0.00  0.00    +0.319 C 
ATOM      3  C   LIG A   1      -8.515  -0.146 124.269  0.00  0.00    +0.125 C 
ATOM      4  C   LIG A   1      -7.229  -0.253 123.293  0.00  0.00    +0.029 C 
ATOM      5  C   LIG A   1      -8.341  -1.621 125.360  0.00  0.00    +0.183 C 
ATOM      6  C   LIG A   1      -7.489  -0.657 125.918  0.00  0.00    +0.066 C 
ATOM      7  C   LIG A   1      -8.950   0.114 126.700  0.00  0.00    +0.015 C 
ATOM      8  C   LIG A   1      -8.232   1.355 126.748  0.00  0.00    +0.005 C 
ATOM      9  C   LIG A   1      -7.611   0.009 127.880  0.00  0.00    +0.170 C 
ATOM     10  O   LIG A   1      -8.116  -1.626 127.186  0.00  0.00    -0.347 OA
ATOM     11  C   LIG A   1      -6.903   2.208 126.428  0.00  0.00    +0.003 C 
ATOM     12  C   LIG A   1      -5.451   1.629 126.275  0.00  0.00    +0.004 C 
ATOM     13  C   LIG A   1      -4.346   2.701 126.302  0.00  0.00    +0.003 C 
ATOM     14  C   LIG A   1      -4.619   3.918 125.419  0.00  0.00    +0.031 C 
ATOM     15  C   LIG A   1      -6.062   4.404 125.541  0.00  0.00    +0.118 C 
ATOM     16  C   LIG A   1      -6.980   3.211 125.196  0.00  0.00    +0.025 C 
ATOM     17  C   LIG A   1      -8.355   3.593 124.671  0.00  0.00    +0.051 C 
ATOM     18  C   LIG A   1      -9.151   2.372 124.251  0.00  0.00    +0.182 C 
ATOM     19  O   LIG A   1      -9.186   1.703 122.976  0.00  0.00    -0.461 OA
ATOM     20  C   LIG A   1      -8.885   1.244 125.179  0.00  0.00    +0.060 C 
ENDROOT
BRANCH   5  21
ATOM     21  O   LIG A   1      -9.651  -2.127 125.446  0.00  0.00    -0.364 OA
ATOM     22  H   LIG A   1      -9.920  -2.517 124.599  0.00  0.00    +0.213 HD
ENDBRANCH   5  21
BRANCH  15  23
ATOM     23  O   LIG A   1      -6.260   5.503 124.667  0.00  0.00    -0.392 OA
ATOM     24  H   LIG A   1      -6.794   6.161 125.149  0.00  0.00    +0.210 HD
ENDBRANCH  15  23
TORSDOF 2
ENDMDL
MODEL 2
REMARK VINA RESULT:      -7.1      1.839      5.379
REMARK  Name = NuBBE_2069
REMARK  3 active torsions:
REMARK  status: ('A' for Active; 'I' for Inactive)
REMARK    1  A    between atoms: C_3  and  C_4
REMARK    2  A    between atoms: C_5  and  O_6
REMARK    3  A    between atoms: C_16  and  O_18
REMARK                            x       y       z     vdW  Elec       q    Type
REMARK                         _______ _______ _______ _____ _____    ______ ____
ROOT
ATOM      1  O   LIG A   1      -8.501   2.559 128.318  0.00  0.00    -0.250 OA
ATOM      2  C   LIG A   1      -8.443   1.732 127.414  0.00  0.00    +0.319 C 
ATOM      3  C   LIG A   1      -8.022   1.968 125.993  0.00  0.00    +0.125 C 
ATOM      4  C   LIG A   1      -6.454   1.664 126.254  0.00  0.00    +0.029 C 
ATOM      5  C   LIG A   1      -7.987   3.394 124.826  0.00  0.00    +0.183 C 
ATOM      6  C   LIG A   1      -7.787   2.264 124.021  0.00  0.00    +0.066 C 
ATOM      7  C   LIG A   1      -9.590   1.967 124.067  0.00  0.00    +0.015 C 
ATOM      8  C   LIG A   1      -9.338   0.581 123.797  0.00  0.00    +0.005 C 
ATOM      9  C   LIG A   1      -8.981   1.762 122.399  0.00  0.00    +0.170 C 
ATOM     10  O   LIG A   1      -8.646   3.434 123.109  0.00  0.00    -0.347 OA
ATOM     11  C   LIG A   1      -8.296  -0.621 123.539  0.00  0.00    +0.003 C 
ATOM     12  C   LIG A   1      -6.846  -0.473 122.956  0.00  0.00    +0.004 C 
ATOM     13  C   LIG A   1      -6.213  -1.805 122.513  0.00  0.00    +0.003 C 
ATOM     14  C   LIG A   1      -6.358  -2.945 123.520  0.00  0.00    +0.031 C 
ATOM     15  C   LIG A   1      -7.763  -3.008 124.118  0.00  0.00    +0.118 C 
ATOM     16  C   LIG A   1      -8.058  -1.627 124.746  0.00  0.00    +0.025 C 
ATOM     17  C   LIG A   1      -9.075  -1.644 125.875  0.00  0.00    +0.051 C 
ATOM     18  C   LIG A   1      -9.225  -0.276 126.511  0.00  0.00    +0.182 C 
ATOM     19  O   LIG A   1      -8.482   0.309 127.599  0.00  0.00    -0.461 OA
ATOM     20  C   LIG A   1      -9.129   0.784 125.475  0.00  0.00    +0.060 C 
ENDROOT
BRANCH   5  21
ATOM     21  O   LIG A   1      -8.997   4.245 125.312  0.00  0.00    -0.364 OA
ATOM     22  H   LIG A   1      -8.955   5.108 124.870  0.00  0.00    +0.213 HD
ENDBRANCH   5  21
BRANCH  15  23
ATOM     23  O   LIG A   1      -7.818  -4.054 125.073  0.00  0.00    -0.392 OA
ATOM     24  H   LIG A   1      -7.161  -4.723 124.804  0.00  0.00    +0.210 HD
ENDBRANCH  15  23
TORSDOF 2
ENDMDL
MODEL 3
REMARK VINA RESULT:      -7.1      1.580      2.205
REMARK  Name = NuBBE_2069
REMARK  3 active torsions:
REMARK  status: ('A' for Active; 'I' for Inactive)
REMARK    1  A    between atoms: C_3  and  C_4
REMARK    2  A    between atoms: C_5  and  O_6
REMARK    3  A    between atoms: C_16  and  O_18
REMARK                            x       y       z     vdW  Elec       q    Type
REMARK                         _______ _______ _______ _____ _____    ______ ____
ROOT
ATOM      1  O   LIG A   1      -9.135  -3.451 123.205  0.00  0.00    -0.250 OA
ATOM      2  C   LIG A   1      -8.902  -2.272 123.448  0.00  0.00    +0.319 C 
ATOM      3  C   LIG A   1      -7.990  -1.725 124.506  0.00  0.00    +0.125 C 
ATOM      4  C   LIG A   1      -6.674  -1.700 123.563  0.00  0.00    +0.029 C 
ATOM      5  C   LIG A   1      -7.333  -2.294 126.131  0.00  0.00    +0.183 C 
ATOM      6  C   LIG A   1      -7.050  -0.921 126.088  0.00  0.00    +0.066 C 
ATOM      7  C   LIG A   1      -8.783  -0.596 126.570  0.00  0.00    +0.015 C 
ATOM      8  C   LIG A   1      -8.676   0.700 125.964  0.00  0.00    +0.005 C 
ATOM      9  C   LIG A   1      -7.680   0.444 127.519  0.00  0.00    +0.170 C 
ATOM     10  O   LIG A   1      -7.349  -1.362 127.717  0.00  0.00    -0.347 OA
ATOM     11  C   LIG A   1      -7.812   1.790 125.149  0.00  0.00    +0.003 C 
ATOM     12  C   LIG A   1      -6.246   1.898 125.133  0.00  0.00    +0.004 C 
ATOM     13  C   LIG A   1      -5.718   3.220 124.546  0.00  0.00    +0.003 C 
ATOM     14  C   LIG A   1      -6.377   3.641 123.233  0.00  0.00    +0.031 C 
ATOM     15  C   LIG A   1      -7.893   3.450 123.264  0.00  0.00    +0.118 C 
ATOM     16  C   LIG A   1      -8.163   1.969 123.608  0.00  0.00    +0.025 C 
ATOM     17  C   LIG A   1      -9.495   1.431 123.111  0.00  0.00    +0.051 C 
ATOM     18  C   LIG A   1      -9.635  -0.054 123.389  0.00  0.00    +0.182 C 
ATOM     19  O   LIG A   1      -9.226  -1.174 122.580  0.00  0.00    -0.461 OA
ATOM     20  C   LIG A   1      -9.024  -0.389 124.701  0.00  0.00    +0.060 C 
ENDROOT
BRANCH   5  21
ATOM     21  O   LIG A   1      -8.300  -3.213 126.576  0.00  0.00    -0.364 OA
ATOM     22  H   LIG A   1      -7.892  -3.888 127.144  0.00  0.00    +0.213 HD
ENDBRANCH   5  21
BRANCH  15  23
ATOM     23  O   LIG A   1      -8.435   3.816 122.006  0.00  0.00    -0.392 OA
ATOM     24  H   LIG A   1      -8.631   2.990 121.527  0.00  0.00    +0.210 HD
ENDBRANCH  15  23
TORSDOF 2
ENDMDL
MODEL 4
REMARK VINA RESULT:      -6.9      1.625      3.728
REMARK  Name = NuBBE_2069
REMARK  3 active torsions:
REMARK  status: ('A' for Active; 'I' for Inactive)
REMARK    1  A    between atoms: C_3  and  C_4
REMARK    2  A    between atoms: C_5  and  O_6
REMARK    3  A    between atoms: C_16  and  O_18
REMARK                            x       y       z     vdW  Elec       q    Type
REMARK                         _______ _______ _______ _____ _____    ______ ____
ROOT
ATOM      1  O   LIG A   1      -9.593  -1.871 125.667  0.00  0.00    -0.250 OA
ATOM      2  C   LIG A   1      -8.738  -0.993 125.627  0.00  0.00    +0.319 C 
ATOM      3  C   LIG A   1      -8.892   0.401 125.095  0.00  0.00    +0.125 C 
ATOM      4  C   LIG A   1      -9.361   1.044 126.504  0.00  0.00    +0.029 C 
ATOM      5  C   LIG A   1      -9.969   1.253 123.864  0.00  0.00    +0.183 C 
ATOM      6  C   LIG A   1      -8.926   2.156 124.118  0.00  0.00    +0.066 C 
ATOM      7  C   LIG A   1      -7.876   1.193 122.971  0.00  0.00    +0.015 C 
ATOM      8  C   LIG A   1      -6.721   1.700 123.653  0.00  0.00    +0.005 C 
ATOM      9  C   LIG A   1      -7.685   2.942 122.652  0.00  0.00    +0.170 C 
ATOM     10  O   LIG A   1      -9.425   2.346 122.488  0.00  0.00    -0.347 OA
ATOM     11  C   LIG A   1      -6.078   2.594 124.830  0.00  0.00    +0.003 C 
ATOM     12  C   LIG A   1      -6.751   3.837 125.514  0.00  0.00    +0.004 C 
ATOM     13  C   LIG A   1      -5.782   4.685 126.358  0.00  0.00    +0.003 C 
ATOM     14  C   LIG A   1      -4.882   3.880 127.295  0.00  0.00    +0.031 C 
ATOM     15  C   LIG A   1      -4.307   2.639 126.613  0.00  0.00    +0.118 C 
ATOM     16  C   LIG A   1      -5.499   1.810 126.085  0.00  0.00    +0.025 C 
ATOM     17  C   LIG A   1      -5.224   0.322 125.935  0.00  0.00    +0.051 C 
ATOM     18  C   LIG A   1      -6.471  -0.436 125.523  0.00  0.00    +0.182 C 
ATOM     19  O   LIG A   1      -7.497  -1.020 126.349  0.00  0.00    -0.461 OA
ATOM     20  C   LIG A   1      -7.273   0.376 124.572  0.00  0.00    +0.060 C 
ENDROOT
BRANCH   5  21
ATOM     21  O   LIG A   1     -10.354   0.221 122.990  0.00  0.00    -0.364 OA
ATOM     22  H   LIG A   1      -9.578  -0.286 122.700  0.00  0.00    +0.213 HD
ENDBRANCH   5  21
BRANCH  15  23
ATOM     23  O   LIG A   1      -3.520   1.916 127.545  0.00  0.00    -0.392 OA
ATOM     24  H   LIG A   1      -3.181   2.559 128.194  0.00  0.00    +0.210 HD
ENDBRANCH  15  23
TORSDOF 2
ENDMDL
MODEL 5
REMARK VINA RESULT:      -6.9      6.013      7.207
REMARK  Name = NuBBE_2069
REMARK  3 active torsions:
REMARK  status: ('A' for Active; 'I' for Inactive)
REMARK    1  A    between atoms: C_3  and  C_4
REMARK    2  A    between atoms: C_5  and  O_6
REMARK    3  A    between atoms: C_16  and  O_18
REMARK                            x       y       z     vdW  Elec       q    Type
REMARK                         _______ _______ _______ _____ _____    ______ ____
ROOT
ATOM      1  O   LIG A   1     -11.196   4.217 130.080  0.00  0.00    -0.250 OA
ATOM      2  C   LIG A   1     -10.065   4.583 130.380  0.00  0.00    +0.319 C 
ATOM      3  C   LIG A   1      -8.978   3.756 131.002  0.00  0.00    +0.125 C 
ATOM      4  C   LIG A   1      -8.350   3.262 129.594  0.00  0.00    +0.029 C 
ATOM      5  C   LIG A   1      -8.881   2.249 132.059  0.00  0.00    +0.183 C 
ATOM      6  C   LIG A   1      -7.598   2.814 132.115  0.00  0.00    +0.066 C 
ATOM      7  C   LIG A   1      -8.225   4.001 133.355  0.00  0.00    +0.015 C 
ATOM      8  C   LIG A   1      -7.174   4.902 132.979  0.00  0.00    +0.005 C 
ATOM      9  C   LIG A   1      -6.641   3.357 133.875  0.00  0.00    +0.170 C 
ATOM     10  O   LIG A   1      -7.923   2.053 133.617  0.00  0.00    -0.347 OA
ATOM     11  C   LIG A   1      -5.901   5.248 132.053  0.00  0.00    +0.003 C 
ATOM     12  C   LIG A   1      -4.950   4.204 131.368  0.00  0.00    +0.004 C 
ATOM     13  C   LIG A   1      -3.642   4.813 130.828  0.00  0.00    +0.003 C 
ATOM     14  C   LIG A   1      -3.823   6.099 130.025  0.00  0.00    +0.031 C 
ATOM     15  C   LIG A   1      -4.813   7.056 130.688  0.00  0.00    +0.118 C 
ATOM     16  C   LIG A   1      -6.140   6.288 130.874  0.00  0.00    +0.025 C 
ATOM     17  C   LIG A   1      -7.381   7.164 130.934  0.00  0.00    +0.051 C 
ATOM     18  C   LIG A   1      -8.648   6.332 131.004  0.00  0.00    +0.182 C 
ATOM     19  O   LIG A   1      -9.448   5.799 129.931  0.00  0.00    -0.461 OA
ATOM     20  C   LIG A   1      -8.423   5.127 131.842  0.00  0.00    +0.060 C 
ENDROOT
BRANCH   5  21
ATOM     21  O   LIG A   1     -10.117   2.235 132.731  0.00  0.00    -0.364 OA
ATOM     22  H   LIG A   1      -9.991   2.412 133.678  0.00  0.00    +0.213 HD
ENDBRANCH   5  21
BRANCH  15  23
ATOM     23  O   LIG A   1      -4.969   8.206 129.873  0.00  0.00    -0.392 OA
ATOM     24  H   LIG A   1      -4.236   8.203 129.230  0.00  0.00    +0.210 HD
ENDBRANCH  15  23
TORSDOF 2
ENDMDL
MODEL 6
REMARK VINA RESULT:      -6.8      1.656      5.452
REMARK  Name = NuBBE_2069
REMARK  3 active torsions:
REMARK  status: ('A' for Active; 'I' for Inactive)
REMARK    1  A    between atoms: C_3  and  C_4
REMARK    2  A    between atoms: C_5  and  O_6
REMARK    3  A    between atoms: C_16  and  O_18
REMARK                            x       y       z     vdW  Elec       q    Type
REMARK                         _______ _______ _______ _____ _____    ______ ____
ROOT
ATOM      1  O   LIG A   1      -7.074   3.188 128.618  0.00  0.00    -0.250 OA
ATOM      2  C   LIG A   1      -7.369   2.473 127.666  0.00  0.00    +0.319 C 
ATOM      3  C   LIG A   1      -6.758   2.488 126.296  0.00  0.00    +0.125 C 
ATOM      4  C   LIG A   1      -5.604   1.406 126.639  0.00  0.00    +0.029 C 
ATOM      5  C   LIG A   1      -5.883   3.715 125.233  0.00  0.00    +0.183 C 
ATOM      6  C   LIG A   1      -6.222   2.665 124.368  0.00  0.00    +0.066 C 
ATOM      7  C   LIG A   1      -7.914   3.350 124.274  0.00  0.00    +0.015 C 
ATOM      8  C   LIG A   1      -8.391   2.043 123.927  0.00  0.00    +0.005 C 
ATOM      9  C   LIG A   1      -7.348   2.897 122.640  0.00  0.00    +0.170 C 
ATOM     10  O   LIG A   1      -6.264   4.132 123.483  0.00  0.00    -0.347 OA
ATOM     11  C   LIG A   1      -8.102   0.480 123.657  0.00  0.00    +0.003 C 
ATOM     12  C   LIG A   1      -6.738  -0.135 123.184  0.00  0.00    +0.004 C 
ATOM     13  C   LIG A   1      -6.847  -1.591 122.694  0.00  0.00    +0.003 C 
ATOM     14  C   LIG A   1      -7.653  -2.512 123.609  0.00  0.00    +0.031 C 
ATOM     15  C   LIG A   1      -8.936  -1.848 124.107  0.00  0.00    +0.118 C 
ATOM     16  C   LIG A   1      -8.531  -0.531 124.806  0.00  0.00    +0.025 C 
ATOM     17  C   LIG A   1      -9.511  -0.042 125.861  0.00  0.00    +0.051 C 
ATOM     18  C   LIG A   1      -8.989   1.188 126.578  0.00  0.00    +0.182 C 
ATOM     19  O   LIG A   1      -8.155   1.274 127.750  0.00  0.00    -0.461 OA
ATOM     20  C   LIG A   1      -8.264   2.067 125.625  0.00  0.00    +0.060 C 
ENDROOT
BRANCH   5  21
ATOM     21  O   LIG A   1      -6.348   4.955 125.708  0.00  0.00    -0.364 OA
ATOM     22  H   LIG A   1      -6.042   5.107 126.617  0.00  0.00    +0.213 HD
ENDBRANCH   5  21
BRANCH  15  23
ATOM     23  O   LIG A   1      -9.612  -2.735 124.982  0.00  0.00    -0.392 OA
ATOM     24  H   LIG A   1     -10.389  -2.259 125.329  0.00  0.00    +0.210 HD
ENDBRANCH  15  23
TORSDOF 2
ENDMDL
MODEL 7
REMARK VINA RESULT:      -6.8      6.073      9.443
REMARK  Name = NuBBE_2069
REMARK  3 active torsions:
REMARK  status: ('A' for Active; 'I' for Inactive)
REMARK    1  A    between atoms: C_3  and  C_4
REMARK    2  A    between atoms: C_5  and  O_6
REMARK    3  A    between atoms: C_16  and  O_18
REMARK                            x       y       z     vdW  Elec       q    Type
REMARK                         _______ _______ _______ _____ _____    ______ ____
ROOT
ATOM      1  O   LIG A   1      -4.012   9.618 129.634  0.00  0.00    -0.250 OA
ATOM      2  C   LIG A   1      -3.836   8.404 129.650  0.00  0.00    +0.319 C 
ATOM      3  C   LIG A   1      -3.759   7.513 130.855  0.00  0.00    +0.125 C 
ATOM      4  C   LIG A   1      -5.345   7.196 130.902  0.00  0.00    +0.029 C 
ATOM      5  C   LIG A   1      -3.313   7.702 132.634  0.00  0.00    +0.183 C 
ATOM      6  C   LIG A   1      -3.325   6.318 132.410  0.00  0.00    +0.066 C 
ATOM      7  C   LIG A   1      -1.659   6.470 131.673  0.00  0.00    +0.015 C 
ATOM      8  C   LIG A   1      -1.910   5.266 130.935  0.00  0.00    +0.005 C 
ATOM      9  C   LIG A   1      -1.712   5.065 132.778  0.00  0.00    +0.170 C 
ATOM     10  O   LIG A   1      -2.137   6.666 133.595  0.00  0.00    -0.347 OA
ATOM     11  C   LIG A   1      -2.897   4.056 130.537  0.00  0.00    +0.003 C 
ATOM     12  C   LIG A   1      -4.068   3.495 131.419  0.00  0.00    +0.004 C 
ATOM     13  C   LIG A   1      -4.619   2.140 130.936  0.00  0.00    +0.003 C 
ATOM     14  C   LIG A   1      -4.888   2.061 129.434  0.00  0.00    +0.031 C 
ATOM     15  C   LIG A   1      -3.759   2.684 128.614  0.00  0.00    +0.118 C 
ATOM     16  C   LIG A   1      -3.583   4.139 129.105  0.00  0.00    +0.025 C 
ATOM     17  C   LIG A   1      -2.987   5.090 128.080  0.00  0.00    +0.051 C 
ATOM     18  C   LIG A   1      -2.952   6.516 128.597  0.00  0.00    +0.182 C 
ATOM     19  O   LIG A   1      -3.961   7.541 128.510  0.00  0.00    -0.461 OA
ATOM     20  C   LIG A   1      -2.632   6.527 130.047  0.00  0.00    +0.060 C 
ENDROOT
BRANCH   5  21
ATOM     21  O   LIG A   1      -2.455   8.817 132.644  0.00  0.00    -0.364 OA
ATOM     22  H   LIG A   1      -2.570   9.326 133.463  0.00  0.00    +0.213 HD
ENDBRANCH   5  21
BRANCH  15  23
ATOM     23  O   LIG A   1      -4.089   2.619 127.237  0.00  0.00    -0.392 OA
ATOM     24  H   LIG A   1      -4.988   2.246 127.175  0.00  0.00    +0.210 HD
ENDBRANCH  15  23
TORSDOF 2
ENDMDL
MODEL 8
REMARK VINA RESULT:      -6.7      6.201      7.607
REMARK  Name = NuBBE_2069
REMARK  3 active torsions:
REMARK  status: ('A' for Active; 'I' for Inactive)
REMARK    1  A    between atoms: C_3  and  C_4
REMARK    2  A    between atoms: C_5  and  O_6
REMARK    3  A    between atoms: C_16  and  O_18
REMARK                            x       y       z     vdW  Elec       q    Type
REMARK                         _______ _______ _______ _____ _____    ______ ____
ROOT
ATOM      1  O   LIG A   1      -9.081   5.559 128.251  0.00  0.00    -0.250 OA
ATOM      2  C   LIG A   1      -8.933   5.224 129.421  0.00  0.00    +0.319 C 
ATOM      3  C   LIG A   1      -8.319   3.954 129.932  0.00  0.00    +0.125 C 
ATOM      4  C   LIG A   1      -6.811   4.539 129.999  0.00  0.00    +0.029 C 
ATOM      5  C   LIG A   1      -8.079   2.237 129.307  0.00  0.00    +0.183 C 
ATOM      6  C   LIG A   1      -7.813   2.161 130.681  0.00  0.00    +0.066 C 
ATOM      7  C   LIG A   1      -9.616   2.114 130.980  0.00  0.00    +0.015 C 
ATOM      8  C   LIG A   1      -9.380   2.629 132.298  0.00  0.00    +0.005 C 
ATOM      9  C   LIG A   1      -8.798   0.885 131.989  0.00  0.00    +0.170 C 
ATOM     10  O   LIG A   1      -8.502   0.674 130.178  0.00  0.00    -0.347 OA
ATOM     11  C   LIG A   1      -8.356   3.165 133.422  0.00  0.00    +0.003 C 
ATOM     12  C   LIG A   1      -6.837   2.787 133.538  0.00  0.00    +0.004 C 
ATOM     13  C   LIG A   1      -6.198   3.178 134.884  0.00  0.00    +0.003 C 
ATOM     14  C   LIG A   1      -6.516   4.597 135.350  0.00  0.00    +0.031 C 
ATOM     15  C   LIG A   1      -7.989   4.951 135.151  0.00  0.00    +0.118 C 
ATOM     16  C   LIG A   1      -8.316   4.737 133.656  0.00  0.00    +0.025 C 
ATOM     17  C   LIG A   1      -9.474   5.569 133.131  0.00  0.00    +0.051 C 
ATOM     18  C   LIG A   1      -9.658   5.386 131.636  0.00  0.00    +0.182 C 
ATOM     19  O   LIG A   1      -9.046   6.107 130.549  0.00  0.00    -0.461 OA
ATOM     20  C   LIG A   1      -9.389   3.976 131.255  0.00  0.00    +0.060 C 
ENDROOT
BRANCH   5  21
ATOM     21  O   LIG A   1      -9.114   2.079 128.367  0.00  0.00    -0.364 OA
ATOM     22  H   LIG A   1      -9.734   2.825 128.416  0.00  0.00    +0.213 HD
ENDBRANCH   5  21
BRANCH  15  23
ATOM     23  O   LIG A   1      -8.207   6.291 135.561  0.00  0.00    -0.392 OA
ATOM     24  H   LIG A   1      -7.333   6.680 135.747  0.00  0.00    +0.210 HD
ENDBRANCH  15  23
TORSDOF 2
ENDMDL
MODEL 9
REMARK VINA RESULT:      -6.7      2.558      3.659
REMARK  Name = NuBBE_2069
REMARK  3 active torsions:
REMARK  status: ('A' for Active; 'I' for Inactive)
REMARK    1  A    between atoms: C_3  and  C_4
REMARK    2  A    between atoms: C_5  and  O_6
REMARK    3  A    between atoms: C_16  and  O_18
REMARK                            x       y       z     vdW  Elec       q    Type
REMARK                         _______ _______ _______ _____ _____    ______ ____
ROOT
ATOM      1  O   LIG A   1      -9.332   1.487 123.108  0.00  0.00    -0.250 OA
ATOM      2  C   LIG A   1      -8.897   0.989 124.141  0.00  0.00    +0.319 C 
ATOM      3  C   LIG A   1      -8.322  -0.386 124.314  0.00  0.00    +0.125 C 
ATOM      4  C   LIG A   1      -6.799   0.052 123.985  0.00  0.00    +0.029 C 
ATOM      5  C   LIG A   1      -8.482  -2.020 123.476  0.00  0.00    +0.183 C 
ATOM      6  C   LIG A   1      -7.845  -2.299 124.694  0.00  0.00    +0.066 C 
ATOM      7  C   LIG A   1      -9.478  -2.228 125.511  0.00  0.00    +0.015 C 
ATOM      8  C   LIG A   1      -8.814  -1.914 126.743  0.00  0.00    +0.005 C 
ATOM      9  C   LIG A   1      -8.562  -3.646 126.100  0.00  0.00    +0.170 C 
ATOM     10  O   LIG A   1      -8.825  -3.641 124.273  0.00  0.00    -0.347 OA
ATOM     11  C   LIG A   1      -7.454  -1.622 127.557  0.00  0.00    +0.003 C 
ATOM     12  C   LIG A   1      -6.023  -2.143 127.176  0.00  0.00    +0.004 C 
ATOM     13  C   LIG A   1      -4.983  -1.990 128.301  0.00  0.00    +0.003 C 
ATOM     14  C   LIG A   1      -4.978  -0.622 128.982  0.00  0.00    +0.031 C 
ATOM     15  C   LIG A   1      -6.392  -0.118 129.268  0.00  0.00    +0.118 C 
ATOM     16  C   LIG A   1      -7.157  -0.105 127.926  0.00  0.00    +0.025 C 
ATOM     17  C   LIG A   1      -8.307   0.887 127.857  0.00  0.00    +0.051 C 
ATOM     18  C   LIG A   1      -8.932   0.920 126.475  0.00  0.00    +0.182 C 
ATOM     19  O   LIG A   1      -8.574   1.722 125.333  0.00  0.00    -0.461 OA
ATOM     20  C   LIG A   1      -8.957  -0.446 125.892  0.00  0.00    +0.060 C 
ENDROOT
BRANCH   5  21
ATOM     21  O   LIG A   1      -9.754  -1.962 122.877  0.00  0.00    -0.364 OA
ATOM     22  H   LIG A   1      -9.673  -1.949 121.910  0.00  0.00    +0.213 HD
ENDBRANCH   5  21
BRANCH  15  23
ATOM     23  O   LIG A   1      -6.319   1.169 129.857  0.00  0.00    -0.392 OA
ATOM     24  H   LIG A   1      -7.011   1.211 130.544  0.00  0.00    +0.210 HD
ENDBRANCH  15  23
TORSDOF 2
ENDMDL
