MODEL 1
REMARK VINA RESULT:      -6.4      0.000      0.000
REMARK  Name = NuBBE_1898
REMARK  7 active torsions:
REMARK  status: ('A' for Active; 'I' for Inactive)
REMARK    1  A    between atoms: C_2  and  C_3
REMARK    2  A    between atoms: C_6  and  C_7
REMARK    3  A    between atoms: C_10  and  O_11
REMARK    4  A    between atoms: C_12  and  O_13
REMARK    5  A    between atoms: C_14  and  C_15
REMARK    6  A    between atoms: C_15  and  C_16
REMARK    7  A    between atoms: C_15  and  C_17
REMARK                            x       y       z     vdW  Elec       q    Type
REMARK                         _______ _______ _______ _____ _____    ______ ____
ROOT
ATOM      1  C   LIG A   1     -11.794   7.492 127.673  0.00  0.00    +0.025 A 
ATOM      2  C   LIG A   1     -12.942   8.204 128.057  0.00  0.00    +0.012 A 
ATOM      3  C   LIG A   1     -13.265   8.346 129.394  0.00  0.00    +0.005 A 
ATOM      4  C   LIG A   1     -12.451   7.783 130.377  0.00  0.00    -0.043 A 
ATOM      5  C   LIG A   1     -12.864   7.990 131.817  0.00  0.00    +0.044 C 
ATOM      6  C   LIG A   1     -11.281   7.053 130.017  0.00  0.00    -0.010 A 
ATOM      7  C   LIG A   1     -10.916   6.885 128.641  0.00  0.00    +0.038 A 
ATOM      8  C   LIG A   1      -9.718   6.132 128.416  0.00  0.00    +0.167 A 
ATOM      9  C   LIG A   1      -8.947   5.595 129.462  0.00  0.00    +0.162 A 
ATOM     10  C   LIG A   1      -9.302   5.758 130.788  0.00  0.00    +0.001 A 
ATOM     11  C   LIG A   1     -10.472   6.485 131.035  0.00  0.00    +0.016 A 
ENDROOT
BRANCH  10  12
ATOM     12  C   LIG A   1      -8.472   5.176 131.919  0.00  0.00    +0.017 C 
ATOM     13  C   LIG A   1      -7.369   6.142 132.367  0.00  0.00    +0.012 C 
ATOM     14  C   LIG A   1      -9.355   4.772 133.103  0.00  0.00    +0.012 C 
ENDBRANCH  10  12
BRANCH   1  16
ATOM     15  O   LIG A   1     -10.708   7.999 125.593  0.00  0.00    -0.296 OA
ATOM     16  C   LIG A   1     -11.622   7.456 126.196  0.00  0.00    +0.259 C 
ENDBRANCH   1  16
BRANCH   8  17
ATOM     17  O   LIG A   1      -9.168   5.834 127.187  0.00  0.00    -0.503 OA
ATOM     18  H   LIG A   1      -9.823   5.377 126.620  0.00  0.00    +0.292 HD
ENDBRANCH   8  17
BRANCH   9  19
ATOM     19  O   LIG A   1      -7.817   4.888 129.134  0.00  0.00    -0.503 OA
ATOM     20  H   LIG A   1      -7.803   4.157 129.786  0.00  0.00    +0.292 HD
ENDBRANCH   9  19
TORSDOF 4
ENDMDL
MODEL 2
REMARK VINA RESULT:      -6.3      7.629      9.551
REMARK  Name = NuBBE_1898
REMARK  7 active torsions:
REMARK  status: ('A' for Active; 'I' for Inactive)
REMARK    1  A    between atoms: C_2  and  C_3
REMARK    2  A    between atoms: C_6  and  C_7
REMARK    3  A    between atoms: C_10  and  O_11
REMARK    4  A    between atoms: C_12  and  O_13
REMARK    5  A    between atoms: C_14  and  C_15
REMARK    6  A    between atoms: C_15  and  C_16
REMARK    7  A    between atoms: C_15  and  C_17
REMARK                            x       y       z     vdW  Elec       q    Type
REMARK                         _______ _______ _______ _____ _____    ______ ____
ROOT
ATOM      1  C   LIG A   1      -7.572   4.308 119.479  0.00  0.00    +0.025 A 
ATOM      2  C   LIG A   1      -6.520   5.021 118.882  0.00  0.00    +0.012 A 
ATOM      3  C   LIG A   1      -5.348   5.256 119.575  0.00  0.00    +0.005 A 
ATOM      4  C   LIG A   1      -5.197   4.784 120.881  0.00  0.00    -0.043 A 
ATOM      5  C   LIG A   1      -3.883   5.071 121.571  0.00  0.00    +0.044 C 
ATOM      6  C   LIG A   1      -6.249   4.060 121.513  0.00  0.00    -0.010 A 
ATOM      7  C   LIG A   1      -7.479   3.799 120.823  0.00  0.00    +0.038 A 
ATOM      8  C   LIG A   1      -8.453   3.061 121.572  0.00  0.00    +0.167 A 
ATOM      9  C   LIG A   1      -8.227   2.617 122.887  0.00  0.00    +0.162 A 
ATOM     10  C   LIG A   1      -7.041   2.870 123.549  0.00  0.00    +0.001 A 
ATOM     11  C   LIG A   1      -6.074   3.595 122.843  0.00  0.00    +0.016 A 
ENDROOT
BRANCH  10  12
ATOM     12  C   LIG A   1      -6.797   2.394 124.970  0.00  0.00    +0.017 C 
ATOM     13  C   LIG A   1      -6.382   0.919 125.010  0.00  0.00    +0.012 C 
ATOM     14  C   LIG A   1      -5.760   3.270 125.679  0.00  0.00    +0.012 C 
ENDBRANCH  10  12
BRANCH   1  16
ATOM     15  O   LIG A   1      -9.877   4.518 118.843  0.00  0.00    -0.296 OA
ATOM     16  C   LIG A   1      -8.740   4.161 118.570  0.00  0.00    +0.259 C 
ENDBRANCH   1  16
BRANCH   8  17
ATOM     17  O   LIG A   1      -9.706   2.694 121.130  0.00  0.00    -0.503 OA
ATOM     18  H   LIG A   1     -10.016   3.307 120.433  0.00  0.00    +0.292 HD
ENDBRANCH   8  17
BRANCH   9  19
ATOM     19  O   LIG A   1      -9.229   1.918 123.513  0.00  0.00    -0.503 OA
ATOM     20  H   LIG A   1      -9.912   2.599 123.688  0.00  0.00    +0.292 HD
ENDBRANCH   9  19
TORSDOF 4
ENDMDL
MODEL 3
REMARK VINA RESULT:      -6.2      9.623     10.966
REMARK  Name = NuBBE_1898
REMARK  7 active torsions:
REMARK  status: ('A' for Active; 'I' for Inactive)
REMARK    1  A    between atoms: C_2  and  C_3
REMARK    2  A    between atoms: C_6  and  C_7
REMARK    3  A    between atoms: C_10  and  O_11
REMARK    4  A    between atoms: C_12  and  O_13
REMARK    5  A    between atoms: C_14  and  C_15
REMARK    6  A    between atoms: C_15  and  C_16
REMARK    7  A    between atoms: C_15  and  C_17
REMARK                            x       y       z     vdW  Elec       q    Type
REMARK                         _______ _______ _______ _____ _____    ______ ____
ROOT
ATOM      1  C   LIG A   1      -6.130  -2.003 128.762  0.00  0.00    +0.025 A 
ATOM      2  C   LIG A   1      -6.767  -2.665 129.825  0.00  0.00    +0.012 A 
ATOM      3  C   LIG A   1      -7.931  -3.379 129.611  0.00  0.00    +0.005 A 
ATOM      4  C   LIG A   1      -8.487  -3.450 128.333  0.00  0.00    -0.043 A 
ATOM      5  C   LIG A   1      -9.755  -4.257 128.176  0.00  0.00    +0.044 C 
ATOM      6  C   LIG A   1      -7.865  -2.786 127.236  0.00  0.00    -0.010 A 
ATOM      7  C   LIG A   1      -6.657  -2.036 127.422  0.00  0.00    +0.038 A 
ATOM      8  C   LIG A   1      -6.135  -1.419 126.238  0.00  0.00    +0.167 A 
ATOM      9  C   LIG A   1      -6.753  -1.537 124.981  0.00  0.00    +0.162 A 
ATOM     10  C   LIG A   1      -7.918  -2.261 124.805  0.00  0.00    +0.001 A 
ATOM     11  C   LIG A   1      -8.452  -2.868 125.947  0.00  0.00    +0.016 A 
ENDROOT
BRANCH  10  12
ATOM     12  C   LIG A   1      -8.588  -2.386 123.449  0.00  0.00    +0.017 C 
ATOM     13  C   LIG A   1      -9.620  -3.520 123.430  0.00  0.00    +0.012 C 
ATOM     14  C   LIG A   1      -9.227  -1.062 123.021  0.00  0.00    +0.012 C 
ENDBRANCH  10  12
BRANCH   1  16
ATOM     15  O   LIG A   1      -4.779  -0.081 129.256  0.00  0.00    -0.296 OA
ATOM     16  C   LIG A   1      -4.895  -1.297 129.197  0.00  0.00    +0.259 C 
ENDBRANCH   1  16
BRANCH   8  17
ATOM     17  O   LIG A   1      -4.995  -0.647 126.163  0.00  0.00    -0.503 OA
ATOM     18  H   LIG A   1      -5.053   0.111 126.780  0.00  0.00    +0.292 HD
ENDBRANCH   8  17
BRANCH   9  19
ATOM     19  O   LIG A   1      -6.169  -0.904 123.912  0.00  0.00    -0.503 OA
ATOM     20  H   LIG A   1      -6.274   0.048 124.121  0.00  0.00    +0.292 HD
ENDBRANCH   9  19
TORSDOF 4
ENDMDL
MODEL 4
REMARK VINA RESULT:      -6.1      5.400      8.343
REMARK  Name = NuBBE_1898
REMARK  7 active torsions:
REMARK  status: ('A' for Active; 'I' for Inactive)
REMARK    1  A    between atoms: C_2  and  C_3
REMARK    2  A    between atoms: C_6  and  C_7
REMARK    3  A    between atoms: C_10  and  O_11
REMARK    4  A    between atoms: C_12  and  O_13
REMARK    5  A    between atoms: C_14  and  C_15
REMARK    6  A    between atoms: C_15  and  C_16
REMARK    7  A    between atoms: C_15  and  C_17
REMARK                            x       y       z     vdW  Elec       q    Type
REMARK                         _______ _______ _______ _____ _____    ______ ____
ROOT
ATOM      1  C   LIG A   1      -5.455   4.271 128.762  0.00  0.00    +0.025 A 
ATOM      2  C   LIG A   1      -4.170   4.046 129.283  0.00  0.00    +0.012 A 
ATOM      3  C   LIG A   1      -3.111   3.763 128.441  0.00  0.00    +0.005 A 
ATOM      4  C   LIG A   1      -3.307   3.700 127.061  0.00  0.00    -0.043 A 
ATOM      5  C   LIG A   1      -2.099   3.396 126.205  0.00  0.00    +0.044 C 
ATOM      6  C   LIG A   1      -4.600   3.921 126.504  0.00  0.00    -0.010 A 
ATOM      7  C   LIG A   1      -5.722   4.216 127.347  0.00  0.00    +0.038 A 
ATOM      8  C   LIG A   1      -6.964   4.418 126.661  0.00  0.00    +0.167 A 
ATOM      9  C   LIG A   1      -7.083   4.338 125.262  0.00  0.00    +0.162 A 
ATOM     10  C   LIG A   1      -6.000   4.054 124.451  0.00  0.00    +0.001 A 
ATOM     11  C   LIG A   1      -4.776   3.846 125.097  0.00  0.00    +0.016 A 
ENDROOT
BRANCH  10  12
ATOM     12  C   LIG A   1      -6.128   3.965 122.941  0.00  0.00    +0.017 C 
ATOM     13  C   LIG A   1      -4.856   4.448 122.236  0.00  0.00    +0.012 C 
ATOM     14  C   LIG A   1      -6.490   2.545 122.498  0.00  0.00    +0.012 C 
ENDBRANCH  10  12
BRANCH   1  16
ATOM     15  O   LIG A   1      -7.076   5.607 129.924  0.00  0.00    -0.296 OA
ATOM     16  C   LIG A   1      -6.452   4.560 129.827  0.00  0.00    +0.259 C 
ENDBRANCH   1  16
BRANCH   8  17
ATOM     17  O   LIG A   1      -8.176   4.706 127.249  0.00  0.00    -0.503 OA
ATOM     18  H   LIG A   1      -8.598   3.888 127.583  0.00  0.00    +0.292 HD
ENDBRANCH   8  17
BRANCH   9  19
ATOM     19  O   LIG A   1      -8.321   4.548 124.707  0.00  0.00    -0.503 OA
ATOM     20  H   LIG A   1      -8.218   5.395 124.224  0.00  0.00    +0.292 HD
ENDBRANCH   9  19
TORSDOF 4
ENDMDL
MODEL 5
REMARK VINA RESULT:      -6.0      9.688     10.175
REMARK  Name = NuBBE_1898
REMARK  7 active torsions:
REMARK  status: ('A' for Active; 'I' for Inactive)
REMARK    1  A    between atoms: C_2  and  C_3
REMARK    2  A    between atoms: C_6  and  C_7
REMARK    3  A    between atoms: C_10  and  O_11
REMARK    4  A    between atoms: C_12  and  O_13
REMARK    5  A    between atoms: C_14  and  C_15
REMARK    6  A    between atoms: C_15  and  C_16
REMARK    7  A    between atoms: C_15  and  C_17
REMARK                            x       y       z     vdW  Elec       q    Type
REMARK                         _______ _______ _______ _____ _____    ______ ____
ROOT
ATOM      1  C   LIG A   1      -7.651  -1.728 125.748  0.00  0.00    +0.025 A 
ATOM      2  C   LIG A   1      -8.882  -2.271 125.343  0.00  0.00    +0.012 A 
ATOM      3  C   LIG A   1      -9.570  -3.143 126.166  0.00  0.00    +0.005 A 
ATOM      4  C   LIG A   1      -9.047  -3.493 127.413  0.00  0.00    -0.043 A 
ATOM      5  C   LIG A   1      -9.862  -4.443 128.260  0.00  0.00    +0.044 C 
ATOM      6  C   LIG A   1      -7.800  -2.960 127.849  0.00  0.00    -0.010 A 
ATOM      7  C   LIG A   1      -7.059  -2.054 127.021  0.00  0.00    +0.038 A 
ATOM      8  C   LIG A   1      -5.822  -1.592 127.578  0.00  0.00    +0.167 A 
ATOM      9  C   LIG A   1      -5.361  -1.990 128.846  0.00  0.00    +0.162 A 
ATOM     10  C   LIG A   1      -6.078  -2.863 129.642  0.00  0.00    +0.001 A 
ATOM     11  C   LIG A   1      -7.287  -3.335 129.118  0.00  0.00    +0.016 A 
ENDROOT
BRANCH  10  12
ATOM     12  C   LIG A   1      -5.579  -3.297 131.009  0.00  0.00    +0.017 C 
ATOM     13  C   LIG A   1      -6.543  -2.872 132.123  0.00  0.00    +0.012 C 
ATOM     14  C   LIG A   1      -5.326  -4.806 131.055  0.00  0.00    +0.012 C 
ENDBRANCH  10  12
BRANCH   1  16
ATOM     15  O   LIG A   1      -6.055  -1.043 124.092  0.00  0.00    -0.296 OA
ATOM     16  C   LIG A   1      -7.075  -0.815 124.726  0.00  0.00    +0.259 C 
ENDBRANCH   1  16
BRANCH   8  17
ATOM     17  O   LIG A   1      -4.937  -0.724 126.975  0.00  0.00    -0.503 OA
ATOM     18  H   LIG A   1      -4.678  -0.012 127.596  0.00  0.00    +0.292 HD
ENDBRANCH   8  17
BRANCH   9  19
ATOM     19  O   LIG A   1      -4.161  -1.487 129.283  0.00  0.00    -0.503 OA
ATOM     20  H   LIG A   1      -4.359  -0.545 129.471  0.00  0.00    +0.292 HD
ENDBRANCH   9  19
TORSDOF 4
ENDMDL
MODEL 6
REMARK VINA RESULT:      -6.0      6.864      8.500
REMARK  Name = NuBBE_1898
REMARK  7 active torsions:
REMARK  status: ('A' for Active; 'I' for Inactive)
REMARK    1  A    between atoms: C_2  and  C_3
REMARK    2  A    between atoms: C_6  and  C_7
REMARK    3  A    between atoms: C_10  and  O_11
REMARK    4  A    between atoms: C_12  and  O_13
REMARK    5  A    between atoms: C_14  and  C_15
REMARK    6  A    between atoms: C_15  and  C_16
REMARK    7  A    between atoms: C_15  and  C_17
REMARK                            x       y       z     vdW  Elec       q    Type
REMARK                         _______ _______ _______ _____ _____    ______ ____
ROOT
ATOM      1  C   LIG A   1      -8.596   0.720 123.656  0.00  0.00    +0.025 A 
ATOM      2  C   LIG A   1      -8.593  -0.655 123.941  0.00  0.00    +0.012 A 
ATOM      3  C   LIG A   1      -7.621  -1.201 124.759  0.00  0.00    +0.005 A 
ATOM      4  C   LIG A   1      -6.631  -0.387 125.312  0.00  0.00    -0.043 A 
ATOM      5  C   LIG A   1      -5.608  -1.054 126.204  0.00  0.00    +0.044 C 
ATOM      6  C   LIG A   1      -6.607   1.011 125.037  0.00  0.00    -0.010 A 
ATOM      7  C   LIG A   1      -7.599   1.610 124.193  0.00  0.00    +0.038 A 
ATOM      8  C   LIG A   1      -7.461   3.024 123.999  0.00  0.00    +0.167 A 
ATOM      9  C   LIG A   1      -6.433   3.777 124.593  0.00  0.00    +0.162 A 
ATOM     10  C   LIG A   1      -5.478   3.197 125.406  0.00  0.00    +0.001 A 
ATOM     11  C   LIG A   1      -5.586   1.816 125.607  0.00  0.00    +0.016 A 
ENDROOT
BRANCH  10  12
ATOM     12  C   LIG A   1      -4.366   4.009 126.045  0.00  0.00    +0.017 C 
ATOM     13  C   LIG A   1      -4.841   4.718 127.318  0.00  0.00    +0.012 C 
ATOM     14  C   LIG A   1      -3.138   3.140 126.332  0.00  0.00    +0.012 C 
ENDBRANCH  10  12
BRANCH   1  16
ATOM     15  O   LIG A   1     -10.678   0.391 122.507  0.00  0.00    -0.296 OA
ATOM     16  C   LIG A   1      -9.721   1.107 122.763  0.00  0.00    +0.259 C 
ENDBRANCH   1  16
BRANCH   8  17
ATOM     17  O   LIG A   1      -8.283   3.819 123.231  0.00  0.00    -0.503 OA
ATOM     18  H   LIG A   1      -9.161   3.399 123.121  0.00  0.00    +0.292 HD
ENDBRANCH   8  17
BRANCH   9  19
ATOM     19  O   LIG A   1      -6.393   5.126 124.340  0.00  0.00    -0.503 OA
ATOM     20  H   LIG A   1      -7.232   5.459 124.724  0.00  0.00    +0.292 HD
ENDBRANCH   9  19
TORSDOF 4
ENDMDL
MODEL 7
REMARK VINA RESULT:      -5.9      8.750     10.453
REMARK  Name = NuBBE_1898
REMARK  7 active torsions:
REMARK  status: ('A' for Active; 'I' for Inactive)
REMARK    1  A    between atoms: C_2  and  C_3
REMARK    2  A    between atoms: C_6  and  C_7
REMARK    3  A    between atoms: C_10  and  O_11
REMARK    4  A    between atoms: C_12  and  O_13
REMARK    5  A    between atoms: C_14  and  C_15
REMARK    6  A    between atoms: C_15  and  C_16
REMARK    7  A    between atoms: C_15  and  C_17
REMARK                            x       y       z     vdW  Elec       q    Type
REMARK                         _______ _______ _______ _____ _____    ______ ____
ROOT
ATOM      1  C   LIG A   1      -7.575  -0.834 123.776  0.00  0.00    +0.025 A 
ATOM      2  C   LIG A   1      -7.000  -1.423 122.638  0.00  0.00    +0.012 A 
ATOM      3  C   LIG A   1      -6.010  -2.379 122.766  0.00  0.00    +0.005 A 
ATOM      4  C   LIG A   1      -5.572  -2.771 124.032  0.00  0.00    -0.043 A 
ATOM      5  C   LIG A   1      -4.494  -3.830 124.092  0.00  0.00    +0.044 C 
ATOM      6  C   LIG A   1      -6.134  -2.189 125.205  0.00  0.00    -0.010 A 
ATOM      7  C   LIG A   1      -7.162  -1.194 125.109  0.00  0.00    +0.038 A 
ATOM      8  C   LIG A   1      -7.642  -0.692 126.363  0.00  0.00    +0.167 A 
ATOM      9  C   LIG A   1      -7.150  -1.139 127.602  0.00  0.00    +0.162 A 
ATOM     10  C   LIG A   1      -6.160  -2.098 127.691  0.00  0.00    +0.001 A 
ATOM     11  C   LIG A   1      -5.668  -2.601 126.480  0.00  0.00    +0.016 A 
ENDROOT
BRANCH  10  12
ATOM     12  C   LIG A   1      -5.625  -2.579 129.028  0.00  0.00    +0.017 C 
ATOM     13  C   LIG A   1      -6.555  -3.615 129.670  0.00  0.00    +0.012 C 
ATOM     14  C   LIG A   1      -4.205  -3.135 128.890  0.00  0.00    +0.012 C 
ENDBRANCH  10  12
BRANCH   1  16
ATOM     15  O   LIG A   1      -9.800   0.064 123.724  0.00  0.00    -0.296 OA
ATOM     16  C   LIG A   1      -8.619   0.166 123.427  0.00  0.00    +0.259 C 
ENDBRANCH   1  16
BRANCH   8  17
ATOM     17  O   LIG A   1      -8.618   0.267 126.530  0.00  0.00    -0.503 OA
ATOM     18  H   LIG A   1      -9.188   0.318 125.735  0.00  0.00    +0.292 HD
ENDBRANCH   8  17
BRANCH   9  19
ATOM     19  O   LIG A   1      -7.680  -0.589 128.742  0.00  0.00    -0.503 OA
ATOM     20  H   LIG A   1      -7.584   0.376 128.602  0.00  0.00    +0.292 HD
ENDBRANCH   9  19
TORSDOF 4
ENDMDL
MODEL 8
REMARK VINA RESULT:      -5.9      3.632      6.225
REMARK  Name = NuBBE_1898
REMARK  7 active torsions:
REMARK  status: ('A' for Active; 'I' for Inactive)
REMARK    1  A    between atoms: C_2  and  C_3
REMARK    2  A    between atoms: C_6  and  C_7
REMARK    3  A    between atoms: C_10  and  O_11
REMARK    4  A    between atoms: C_12  and  O_13
REMARK    5  A    between atoms: C_14  and  C_15
REMARK    6  A    between atoms: C_15  and  C_16
REMARK    7  A    between atoms: C_15  and  C_17
REMARK                            x       y       z     vdW  Elec       q    Type
REMARK                         _______ _______ _______ _____ _____    ______ ____
ROOT
ATOM      1  C   LIG A   1      -8.685   5.637 132.675  0.00  0.00    +0.025 A 
ATOM      2  C   LIG A   1      -8.938   4.791 133.768  0.00  0.00    +0.012 A 
ATOM      3  C   LIG A   1      -7.897   4.307 134.538  0.00  0.00    +0.005 A 
ATOM      4  C   LIG A   1      -6.579   4.657 134.236  0.00  0.00    -0.043 A 
ATOM      5  C   LIG A   1      -5.495   4.097 135.130  0.00  0.00    +0.044 C 
ATOM      6  C   LIG A   1      -6.292   5.511 133.133  0.00  0.00    -0.010 A 
ATOM      7  C   LIG A   1      -7.347   6.030 132.312  0.00  0.00    +0.038 A 
ATOM      8  C   LIG A   1      -6.923   6.876 131.236  0.00  0.00    +0.167 A 
ATOM      9  C   LIG A   1      -5.572   7.184 130.997  0.00  0.00    +0.162 A 
ATOM     10  C   LIG A   1      -4.557   6.683 131.789  0.00  0.00    +0.001 A 
ATOM     11  C   LIG A   1      -4.944   5.847 132.843  0.00  0.00    +0.016 A 
ENDROOT
BRANCH  10  12
ATOM     12  C   LIG A   1      -3.098   7.012 131.529  0.00  0.00    +0.017 C 
ATOM     13  C   LIG A   1      -2.636   8.224 132.345  0.00  0.00    +0.012 C 
ATOM     14  C   LIG A   1      -2.199   5.801 131.798  0.00  0.00    +0.012 C 
ENDBRANCH  10  12
BRANCH   1  16
ATOM     15  O   LIG A   1     -10.885   6.585 132.529  0.00  0.00    -0.296 OA
ATOM     16  C   LIG A   1      -9.934   6.048 131.980  0.00  0.00    +0.259 C 
ENDBRANCH   1  16
BRANCH   8  17
ATOM     17  O   LIG A   1      -7.745   7.488 130.314  0.00  0.00    -0.503 OA
ATOM     18  H   LIG A   1      -8.654   7.129 130.376  0.00  0.00    +0.292 HD
ENDBRANCH   8  17
BRANCH   9  19
ATOM     19  O   LIG A   1      -5.276   8.006 129.937  0.00  0.00    -0.503 OA
ATOM     20  H   LIG A   1      -6.141   8.138 129.497  0.00  0.00    +0.292 HD
ENDBRANCH   9  19
TORSDOF 4
ENDMDL
MODEL 9
REMARK VINA RESULT:      -5.9      7.564      9.006
REMARK  Name = NuBBE_1898
REMARK  7 active torsions:
REMARK  status: ('A' for Active; 'I' for Inactive)
REMARK    1  A    between atoms: C_2  and  C_3
REMARK    2  A    between atoms: C_6  and  C_7
REMARK    3  A    between atoms: C_10  and  O_11
REMARK    4  A    between atoms: C_12  and  O_13
REMARK    5  A    between atoms: C_14  and  C_15
REMARK    6  A    between atoms: C_15  and  C_16
REMARK    7  A    between atoms: C_15  and  C_17
REMARK                            x       y       z     vdW  Elec       q    Type
REMARK                         _______ _______ _______ _____ _____    ______ ____
ROOT
ATOM      1  C   LIG A   1      -9.275   0.022 123.694  0.00  0.00    +0.025 A 
ATOM      2  C   LIG A   1      -9.354  -1.024 122.760  0.00  0.00    +0.012 A 
ATOM      3  C   LIG A   1      -8.993  -2.310 123.115  0.00  0.00    +0.005 A 
ATOM      4  C   LIG A   1      -8.546  -2.583 124.409  0.00  0.00    -0.043 A 
ATOM      5  C   LIG A   1      -8.179  -4.015 124.725  0.00  0.00    +0.044 C 
ATOM      6  C   LIG A   1      -8.452  -1.541 125.376  0.00  0.00    -0.010 A 
ATOM      7  C   LIG A   1      -8.818  -0.195 125.042  0.00  0.00    +0.038 A 
ATOM      8  C   LIG A   1      -8.678   0.756 126.106  0.00  0.00    +0.167 A 
ATOM      9  C   LIG A   1      -8.220   0.404 127.388  0.00  0.00    +0.162 A 
ATOM     10  C   LIG A   1      -7.869  -0.894 127.707  0.00  0.00    +0.001 A 
ATOM     11  C   LIG A   1      -7.990  -1.842 126.684  0.00  0.00    +0.016 A 
ENDROOT
BRANCH  10  12
ATOM     12  C   LIG A   1      -7.371  -1.274 129.089  0.00  0.00    +0.017 C 
ATOM     13  C   LIG A   1      -7.968  -2.606 129.560  0.00  0.00    +0.012 C 
ATOM     14  C   LIG A   1      -5.841  -1.318 129.136  0.00  0.00    +0.012 C 
ENDBRANCH  10  12
BRANCH   1  16
ATOM     15  O   LIG A   1      -8.990   2.307 123.015  0.00  0.00    -0.296 OA
ATOM     16  C   LIG A   1      -9.709   1.324 123.119  0.00  0.00    +0.259 C 
ENDBRANCH   1  16
BRANCH   8  17
ATOM     17  O   LIG A   1      -8.960   2.103 126.029  0.00  0.00    -0.503 OA
ATOM     18  H   LIG A   1      -8.806   2.435 125.120  0.00  0.00    +0.292 HD
ENDBRANCH   8  17
BRANCH   9  19
ATOM     19  O   LIG A   1      -8.124   1.395 128.333  0.00  0.00    -0.503 OA
ATOM     20  H   LIG A   1      -7.311   1.880 128.078  0.00  0.00    +0.292 HD
ENDBRANCH   9  19
TORSDOF 4
ENDMDL
