MODEL 1
REMARK VINA RESULT:      -8.5      0.000      0.000
REMARK  Name = NuBBE_1185
REMARK  16 active torsions:
REMARK  status: ('A' for Active; 'I' for Inactive)
REMARK    1  A    between atoms: O_1  and  C_2
REMARK    2  A    between atoms: C_3  and  O_45
REMARK    3  A    between atoms: C_17  and  O_18
REMARK    4  A    between atoms: O_18  and  C_19
REMARK    5  A    between atoms: C_22  and  C_36
REMARK    6  A    between atoms: C_24  and  O_35
REMARK    7  A    between atoms: C_26  and  O_31
REMARK    8  A    between atoms: C_28  and  O_30
REMARK    9  A    between atoms: O_31  and  C_32
REMARK   10  A    between atoms: C_32  and  C_33
REMARK   11  A    between atoms: C_36  and  O_37
REMARK   12  A    between atoms: O_37  and  C_38
REMARK   13  A    between atoms: C_38  and  C_39
REMARK   14  A    between atoms: C_41  and  O_42
REMARK   15  A    between atoms: O_42  and  C_43
REMARK   16  A    between atoms: O_45  and  C_46
REMARK                            x       y       z     vdW  Elec       q    Type
REMARK                         _______ _______ _______ _____ _____    ______ ____
ROOT
ATOM      1  C   LIG A   1      -8.269   3.691 120.604  0.00  0.00    +0.202 A 
ATOM      2  C   LIG A   1      -7.235   4.166 119.782  0.00  0.00    +0.166 A 
ATOM      3  C   LIG A   1      -5.978   4.396 120.337  0.00  0.00    +0.065 A 
ATOM      4  C   LIG A   1      -5.783   4.202 121.709  0.00  0.00    +0.074 A 
ATOM      5  C   LIG A   1      -6.803   3.708 122.520  0.00  0.00    +0.047 A 
ATOM      6  C   LIG A   1      -8.034   3.425 121.952  0.00  0.00    +0.185 A 
ATOM      7  O   LIG A   1      -9.069   2.900 122.759  0.00  0.00    -0.418 OA
ATOM      8  C   LIG A   1      -8.900   2.572 124.108  0.00  0.00    +0.345 A 
ATOM      9  O   LIG A   1      -9.777   2.020 124.760  0.00  0.00    -0.244 OA
ATOM     10  C   LIG A   1      -4.490   4.580 122.308  0.00  0.00    +0.345 A 
ATOM     11  O   LIG A   1      -4.459   4.571 123.693  0.00  0.00    -0.418 OA
ATOM     12  C   LIG A   1      -5.460   4.025 124.536  0.00  0.00    +0.186 A 
ATOM     13  C   LIG A   1      -6.622   3.550 123.936  0.00  0.00    +0.047 A 
ATOM     14  C   LIG A   1      -7.613   2.985 124.729  0.00  0.00    +0.074 A 
ATOM     15  C   LIG A   1      -7.410   2.865 126.110  0.00  0.00    +0.065 A 
ATOM     16  C   LIG A   1      -6.265   3.415 126.722  0.00  0.00    +0.170 A 
ATOM     17  C   LIG A   1      -5.267   4.007 125.925  0.00  0.00    +0.205 A 
ATOM     18  O   LIG A   1      -3.531   4.930 121.632  0.00  0.00    -0.244 OA
ENDROOT
BRANCH   1  19
ATOM     19  O   LIG A   1      -9.540   3.563 120.116  0.00  0.00    -0.501 OA
ATOM     20  H   LIG A   1      -9.605   2.655 119.765  0.00  0.00    +0.292 HD
ENDBRANCH   1  19
BRANCH  17  21
ATOM     21  O   LIG A   1      -4.208   4.612 126.543  0.00  0.00    -0.488 OA
ATOM     22  C   LIG A   1      -3.058   3.824 126.831  0.00  0.00    +0.277 C 
ENDBRANCH  17  21
BRANCH   2  23
ATOM     23  O   LIG A   1      -7.544   4.369 118.461  0.00  0.00    -0.491 OA
ATOM     24  C   LIG A   1      -6.677   5.259 117.756  0.00  0.00    +0.277 C 
ENDBRANCH   2  23
BRANCH  16  25
ATOM     25  O   LIG A   1      -6.257   3.259 128.088  0.00  0.00    -0.457 OA
BRANCH  25  26
ATOM     26  C   LIG A   1      -7.470   3.538 128.809  0.00  0.00    +0.341 C 
ATOM     27  O   LIG A   1      -7.875   4.882 128.584  0.00  0.00    -0.330 OA
ATOM     28  C   LIG A   1      -9.140   5.187 129.164  0.00  0.00    +0.192 C 
ATOM     29  C   LIG A   1      -8.983   5.205 130.683  0.00  0.00    +0.190 C 
ATOM     30  C   LIG A   1      -8.348   3.892 131.188  0.00  0.00    +0.242 C 
ATOM     31  C   LIG A   1      -7.177   3.392 130.316  0.00  0.00    +0.226 C 
BRANCH  31  32
ATOM     32  O   LIG A   1      -6.920   2.014 130.649  0.00  0.00    -0.382 OA
ATOM     33  H   LIG A   1      -7.735   1.666 131.053  0.00  0.00    +0.210 HD
ENDBRANCH  31  32
BRANCH  29  34
ATOM     34  O   LIG A   1     -10.255   5.461 131.293  0.00  0.00    -0.385 OA
ATOM     35  H   LIG A   1     -10.446   4.782 131.969  0.00  0.00    +0.210 HD
ENDBRANCH  29  34
BRANCH  30  36
ATOM     36  O   LIG A   1      -7.796   4.146 132.512  0.00  0.00    -0.456 OA
BRANCH  36  37
ATOM     37  C   LIG A   1      -8.253   3.380 133.538  0.00  0.00    +0.304 C 
ATOM     38  C   LIG A   1      -8.564   4.272 134.713  0.00  0.00    +0.136 C 
ATOM     39  O   LIG A   1      -8.400   2.183 133.504  0.00  0.00    -0.251 OA
ENDBRANCH  36  37
ENDBRANCH  30  36
BRANCH  28  40
ATOM     40  C   LIG A   1      -9.632   6.539 128.617  0.00  0.00    +0.266 C 
BRANCH  40  41
ATOM     41  O   LIG A   1      -9.861   6.503 127.194  0.00  0.00    -0.462 OA
BRANCH  41  42
ATOM     42  C   LIG A   1     -10.666   7.488 126.701  0.00  0.00    +0.304 C 
ATOM     43  C   LIG A   1     -11.139   8.382 127.803  0.00  0.00    +0.136 C 
ATOM     44  O   LIG A   1     -11.022   7.617 125.538  0.00  0.00    -0.251 OA
ENDBRANCH  41  42
ENDBRANCH  40  41
ENDBRANCH  28  40
ENDBRANCH  25  26
ENDBRANCH  16  25
TORSDOF 12
ENDMDL
MODEL 2
REMARK VINA RESULT:      -8.3      1.357      3.238
REMARK  Name = NuBBE_1185
REMARK  16 active torsions:
REMARK  status: ('A' for Active; 'I' for Inactive)
REMARK    1  A    between atoms: O_1  and  C_2
REMARK    2  A    between atoms: C_3  and  O_45
REMARK    3  A    between atoms: C_17  and  O_18
REMARK    4  A    between atoms: O_18  and  C_19
REMARK    5  A    between atoms: C_22  and  C_36
REMARK    6  A    between atoms: C_24  and  O_35
REMARK    7  A    between atoms: C_26  and  O_31
REMARK    8  A    between atoms: C_28  and  O_30
REMARK    9  A    between atoms: O_31  and  C_32
REMARK   10  A    between atoms: C_32  and  C_33
REMARK   11  A    between atoms: C_36  and  O_37
REMARK   12  A    between atoms: O_37  and  C_38
REMARK   13  A    between atoms: C_38  and  C_39
REMARK   14  A    between atoms: C_41  and  O_42
REMARK   15  A    between atoms: O_42  and  C_43
REMARK   16  A    between atoms: O_45  and  C_46
REMARK                            x       y       z     vdW  Elec       q    Type
REMARK                         _______ _______ _______ _____ _____    ______ ____
ROOT
ATOM      1  C   LIG A   1      -4.931   4.548 121.926  0.00  0.00    +0.202 A 
ATOM      2  C   LIG A   1      -5.765   4.319 120.821  0.00  0.00    +0.166 A 
ATOM      3  C   LIG A   1      -7.024   3.757 121.026  0.00  0.00    +0.065 A 
ATOM      4  C   LIG A   1      -7.411   3.382 122.317  0.00  0.00    +0.074 A 
ATOM      5  C   LIG A   1      -6.592   3.632 123.417  0.00  0.00    +0.047 A 
ATOM      6  C   LIG A   1      -5.366   4.244 123.215  0.00  0.00    +0.185 A 
ATOM      7  O   LIG A   1      -4.537   4.526 124.325  0.00  0.00    -0.418 OA
ATOM      8  C   LIG A   1      -4.919   4.285 125.649  0.00  0.00    +0.345 A 
ATOM      9  O   LIG A   1      -4.230   4.634 126.599  0.00  0.00    -0.244 OA
ATOM     10  C   LIG A   1      -8.684   2.664 122.501  0.00  0.00    +0.345 A 
ATOM     11  O   LIG A   1      -8.882   2.133 123.766  0.00  0.00    -0.418 OA
ATOM     12  C   LIG A   1      -8.095   2.416 124.910  0.00  0.00    +0.186 A 
ATOM     13  C   LIG A   1      -6.965   3.209 124.738  0.00  0.00    +0.047 A 
ATOM     14  C   LIG A   1      -6.183   3.527 125.842  0.00  0.00    +0.074 A 
ATOM     15  C   LIG A   1      -6.567   3.081 127.113  0.00  0.00    +0.065 A 
ATOM     16  C   LIG A   1      -7.669   2.216 127.272  0.00  0.00    +0.170 A 
ATOM     17  C   LIG A   1      -8.452   1.873 126.154  0.00  0.00    +0.205 A 
ATOM     18  O   LIG A   1      -9.484   2.500 121.589  0.00  0.00    -0.244 OA
ENDROOT
BRANCH   1  19
ATOM     19  O   LIG A   1      -3.650   4.993 121.747  0.00  0.00    -0.501 OA
ATOM     20  H   LIG A   1      -3.076   4.368 122.228  0.00  0.00    +0.292 HD
ENDBRANCH   1  19
BRANCH  17  21
ATOM     21  O   LIG A   1      -9.461   0.965 126.313  0.00  0.00    -0.488 OA
ATOM     22  C   LIG A   1      -9.201  -0.394 125.980  0.00  0.00    +0.277 C 
ENDBRANCH  17  21
BRANCH   2  23
ATOM     23  O   LIG A   1      -5.272   4.678 119.593  0.00  0.00    -0.491 OA
ATOM     24  C   LIG A   1      -5.765   5.911 119.068  0.00  0.00    +0.277 C 
ENDBRANCH   2  23
BRANCH  16  25
ATOM     25  O   LIG A   1      -7.866   1.829 128.576  0.00  0.00    -0.457 OA
BRANCH  25  26
ATOM     26  C   LIG A   1      -8.914   2.471 129.322  0.00  0.00    +0.341 C 
ATOM     27  O   LIG A   1      -8.794   3.883 129.220  0.00  0.00    -0.330 OA
ATOM     28  C   LIG A   1      -9.877   4.581 129.827  0.00  0.00    +0.192 C 
ATOM     29  C   LIG A   1      -9.771   4.413 131.342  0.00  0.00    +0.190 C 
ATOM     30  C   LIG A   1      -9.674   2.921 131.726  0.00  0.00    +0.242 C 
ATOM     31  C   LIG A   1      -8.741   2.102 130.810  0.00  0.00    +0.226 C 
BRANCH  31  32
ATOM     32  O   LIG A   1      -9.015   0.703 131.018  0.00  0.00    -0.382 OA
ATOM     33  H   LIG A   1      -9.445   0.628 131.889  0.00  0.00    +0.210 HD
ENDBRANCH  31  32
BRANCH  29  34
ATOM     34  O   LIG A   1     -10.880   5.065 131.974  0.00  0.00    -0.385 OA
ATOM     35  H   LIG A   1     -10.651   5.297 132.895  0.00  0.00    +0.210 HD
ENDBRANCH  29  34
BRANCH  30  36
ATOM     36  O   LIG A   1      -9.108   2.844 133.066  0.00  0.00    -0.456 OA
BRANCH  36  37
ATOM     37  C   LIG A   1      -8.017   3.611 133.329  0.00  0.00    +0.304 C 
ATOM     38  C   LIG A   1      -8.291   4.445 134.555  0.00  0.00    +0.136 C 
ATOM     39  O   LIG A   1      -6.992   3.608 132.693  0.00  0.00    -0.251 OA
ENDBRANCH  36  37
ENDBRANCH  30  36
BRANCH  28  40
ATOM     40  C   LIG A   1      -9.825   6.060 129.405  0.00  0.00    +0.266 C 
BRANCH  40  41
ATOM     41  O   LIG A   1      -9.651   6.217 127.982  0.00  0.00    -0.462 OA
BRANCH  41  42
ATOM     42  C   LIG A   1     -10.482   7.116 127.381  0.00  0.00    +0.304 C 
ATOM     43  C   LIG A   1     -10.614   8.350 128.217  0.00  0.00    +0.136 C 
ATOM     44  O   LIG A   1     -11.099   6.947 126.338  0.00  0.00    -0.251 OA
ENDBRANCH  41  42
ENDBRANCH  40  41
ENDBRANCH  28  40
ENDBRANCH  25  26
ENDBRANCH  16  25
TORSDOF 12
ENDMDL
MODEL 3
REMARK VINA RESULT:      -8.2      3.352      4.867
REMARK  Name = NuBBE_1185
REMARK  16 active torsions:
REMARK  status: ('A' for Active; 'I' for Inactive)
REMARK    1  A    between atoms: O_1  and  C_2
REMARK    2  A    between atoms: C_3  and  O_45
REMARK    3  A    between atoms: C_17  and  O_18
REMARK    4  A    between atoms: O_18  and  C_19
REMARK    5  A    between atoms: C_22  and  C_36
REMARK    6  A    between atoms: C_24  and  O_35
REMARK    7  A    between atoms: C_26  and  O_31
REMARK    8  A    between atoms: C_28  and  O_30
REMARK    9  A    between atoms: O_31  and  C_32
REMARK   10  A    between atoms: C_32  and  C_33
REMARK   11  A    between atoms: C_36  and  O_37
REMARK   12  A    between atoms: O_37  and  C_38
REMARK   13  A    between atoms: C_38  and  C_39
REMARK   14  A    between atoms: C_41  and  O_42
REMARK   15  A    between atoms: O_42  and  C_43
REMARK   16  A    between atoms: O_45  and  C_46
REMARK                            x       y       z     vdW  Elec       q    Type
REMARK                         _______ _______ _______ _____ _____    ______ ____
ROOT
ATOM      1  C   LIG A   1      -6.571  -1.520 123.783  0.00  0.00    +0.202 A 
ATOM      2  C   LIG A   1      -5.871  -2.592 124.357  0.00  0.00    +0.166 A 
ATOM      3  C   LIG A   1      -5.538  -2.539 125.709  0.00  0.00    +0.065 A 
ATOM      4  C   LIG A   1      -5.859  -1.400 126.455  0.00  0.00    +0.074 A 
ATOM      5  C   LIG A   1      -6.576  -0.346 125.890  0.00  0.00    +0.047 A 
ATOM      6  C   LIG A   1      -6.955  -0.429 124.561  0.00  0.00    +0.185 A 
ATOM      7  O   LIG A   1      -7.704   0.622 123.984  0.00  0.00    -0.418 OA
ATOM      8  C   LIG A   1      -8.158   1.729 124.708  0.00  0.00    +0.345 A 
ATOM      9  O   LIG A   1      -8.894   2.574 124.214  0.00  0.00    -0.244 OA
ATOM     10  C   LIG A   1      -5.381  -1.297 127.845  0.00  0.00    +0.345 A 
ATOM     11  O   LIG A   1      -5.544  -0.053 128.433  0.00  0.00    -0.418 OA
ATOM     12  C   LIG A   1      -6.312   1.014 127.903  0.00  0.00    +0.186 A 
ATOM     13  C   LIG A   1      -6.869   0.845 126.639  0.00  0.00    +0.047 A 
ATOM     14  C   LIG A   1      -7.649   1.860 126.099  0.00  0.00    +0.074 A 
ATOM     15  C   LIG A   1      -7.897   3.016 126.851  0.00  0.00    +0.065 A 
ATOM     16  C   LIG A   1      -7.271   3.215 128.097  0.00  0.00    +0.170 A 
ATOM     17  C   LIG A   1      -6.462   2.198 128.641  0.00  0.00    +0.205 A 
ATOM     18  O   LIG A   1      -4.829  -2.227 128.420  0.00  0.00    -0.244 OA
ENDROOT
BRANCH   1  19
ATOM     19  O   LIG A   1      -6.814  -1.491 122.437  0.00  0.00    -0.501 OA
ATOM     20  H   LIG A   1      -7.519  -0.831 122.303  0.00  0.00    +0.292 HD
ENDBRANCH   1  19
BRANCH  17  21
ATOM     21  O   LIG A   1      -5.794   2.444 129.807  0.00  0.00    -0.488 OA
ATOM     22  C   LIG A   1      -4.519   3.070 129.732  0.00  0.00    +0.277 C 
ENDBRANCH  17  21
BRANCH   2  23
ATOM     23  O   LIG A   1      -5.562  -3.639 123.527  0.00  0.00    -0.491 OA
ATOM     24  C   LIG A   1      -4.295  -4.256 123.759  0.00  0.00    +0.277 C 
ENDBRANCH   2  23
BRANCH  16  25
ATOM     25  O   LIG A   1      -7.579   4.427 128.668  0.00  0.00    -0.457 OA
BRANCH  25  26
ATOM     26  C   LIG A   1      -8.776   4.519 129.458  0.00  0.00    +0.341 C 
ATOM     27  O   LIG A   1      -9.530   5.662 129.075  0.00  0.00    -0.330 OA
ATOM     28  C   LIG A   1     -10.793   5.741 129.728  0.00  0.00    +0.192 C 
ATOM     29  C   LIG A   1     -10.555   6.060 131.203  0.00  0.00    +0.190 C 
ATOM     30  C   LIG A   1      -9.571   5.051 131.833  0.00  0.00    +0.242 C 
ATOM     31  C   LIG A   1      -8.365   4.712 130.933  0.00  0.00    +0.226 C 
BRANCH  31  32
ATOM     32  O   LIG A   1      -7.740   3.518 131.443  0.00  0.00    -0.382 OA
ATOM     33  H   LIG A   1      -8.393   3.084 132.020  0.00  0.00    +0.210 HD
ENDBRANCH  31  32
BRANCH  29  34
ATOM     34  O   LIG A   1     -11.811   6.096 131.893  0.00  0.00    -0.385 OA
ATOM     35  H   LIG A   1     -12.355   6.836 131.561  0.00  0.00    +0.210 HD
ENDBRANCH  29  34
BRANCH  30  36
ATOM     36  O   LIG A   1      -9.026   5.658 133.040  0.00  0.00    -0.456 OA
BRANCH  36  37
ATOM     37  C   LIG A   1      -8.679   4.825 134.057  0.00  0.00    +0.304 C 
ATOM     38  C   LIG A   1      -7.728   5.549 134.977  0.00  0.00    +0.136 C 
ATOM     39  O   LIG A   1      -9.081   3.698 134.205  0.00  0.00    -0.251 OA
ENDBRANCH  36  37
ENDBRANCH  30  36
BRANCH  28  40
ATOM     40  C   LIG A   1     -11.651   6.816 129.036  0.00  0.00    +0.266 C 
BRANCH  40  41
ATOM     41  O   LIG A   1     -11.565   8.094 129.699  0.00  0.00    -0.462 OA
BRANCH  41  42
ATOM     42  C   LIG A   1     -12.682   8.874 129.622  0.00  0.00    +0.304 C 
ATOM     43  C   LIG A   1     -13.375   8.673 128.313  0.00  0.00    +0.136 C 
ATOM     44  O   LIG A   1     -13.059   9.681 130.461  0.00  0.00    -0.251 OA
ENDBRANCH  41  42
ENDBRANCH  40  41
ENDBRANCH  28  40
ENDBRANCH  25  26
ENDBRANCH  16  25
TORSDOF 12
ENDMDL
MODEL 4
REMARK VINA RESULT:      -8.1      4.420      6.103
REMARK  Name = NuBBE_1185
REMARK  16 active torsions:
REMARK  status: ('A' for Active; 'I' for Inactive)
REMARK    1  A    between atoms: O_1  and  C_2
REMARK    2  A    between atoms: C_3  and  O_45
REMARK    3  A    between atoms: C_17  and  O_18
REMARK    4  A    between atoms: O_18  and  C_19
REMARK    5  A    between atoms: C_22  and  C_36
REMARK    6  A    between atoms: C_24  and  O_35
REMARK    7  A    between atoms: C_26  and  O_31
REMARK    8  A    between atoms: C_28  and  O_30
REMARK    9  A    between atoms: O_31  and  C_32
REMARK   10  A    between atoms: C_32  and  C_33
REMARK   11  A    between atoms: C_36  and  O_37
REMARK   12  A    between atoms: O_37  and  C_38
REMARK   13  A    between atoms: C_38  and  C_39
REMARK   14  A    between atoms: C_41  and  O_42
REMARK   15  A    between atoms: O_42  and  C_43
REMARK   16  A    between atoms: O_45  and  C_46
REMARK                            x       y       z     vdW  Elec       q    Type
REMARK                         _______ _______ _______ _____ _____    ______ ____
ROOT
ATOM      1  C   LIG A   1      -6.357  -1.545 124.161  0.00  0.00    +0.202 A 
ATOM      2  C   LIG A   1      -5.425  -2.565 124.404  0.00  0.00    +0.166 A 
ATOM      3  C   LIG A   1      -5.080  -2.870 125.720  0.00  0.00    +0.065 A 
ATOM      4  C   LIG A   1      -5.626  -2.121 126.768  0.00  0.00    +0.074 A 
ATOM      5  C   LIG A   1      -6.569  -1.123 126.527  0.00  0.00    +0.047 A 
ATOM      6  C   LIG A   1      -6.953  -0.864 125.221  0.00  0.00    +0.185 A 
ATOM      7  O   LIG A   1      -7.927   0.128 124.965  0.00  0.00    -0.418 OA
ATOM      8  C   LIG A   1      -8.596   0.826 125.976  0.00  0.00    +0.345 A 
ATOM      9  O   LIG A   1      -9.511   1.604 125.736  0.00  0.00    -0.244 OA
ATOM     10  C   LIG A   1      -5.149  -2.360 128.141  0.00  0.00    +0.345 A 
ATOM     11  O   LIG A   1      -5.567  -1.429 129.079  0.00  0.00    -0.418 OA
ATOM     12  C   LIG A   1      -6.563  -0.442 128.873  0.00  0.00    +0.186 A 
ATOM     13  C   LIG A   1      -7.099  -0.321 127.594  0.00  0.00    +0.047 A 
ATOM     14  C   LIG A   1      -8.095   0.619 127.361  0.00  0.00    +0.074 A 
ATOM     15  C   LIG A   1      -8.573   1.398 128.423  0.00  0.00    +0.065 A 
ATOM     16  C   LIG A   1      -7.977   1.325 129.698  0.00  0.00    +0.170 A 
ATOM     17  C   LIG A   1      -6.952   0.388 129.935  0.00  0.00    +0.205 A 
ATOM     18  O   LIG A   1      -4.393  -3.281 128.423  0.00  0.00    -0.244 OA
ENDROOT
BRANCH   1  19
ATOM     19  O   LIG A   1      -6.631  -1.147 122.881  0.00  0.00    -0.501 OA
ATOM     20  H   LIG A   1      -7.211  -0.367 122.958  0.00  0.00    +0.292 HD
ENDBRANCH   1  19
BRANCH  17  21
ATOM     21  O   LIG A   1      -6.327   0.393 131.150  0.00  0.00    -0.488 OA
ATOM     22  C   LIG A   1      -5.212   1.259 131.329  0.00  0.00    +0.277 C 
ENDBRANCH  17  21
BRANCH   2  23
ATOM     23  O   LIG A   1      -4.914  -3.206 123.305  0.00  0.00    -0.491 OA
ATOM     24  C   LIG A   1      -4.341  -4.491 123.553  0.00  0.00    +0.277 C 
ENDBRANCH   2  23
BRANCH  16  25
ATOM     25  O   LIG A   1      -8.530   2.200 130.602  0.00  0.00    -0.457 OA
BRANCH  25  26
ATOM     26  C   LIG A   1      -8.582   3.594 130.252  0.00  0.00    +0.341 C 
ATOM     27  O   LIG A   1      -7.546   4.305 130.915  0.00  0.00    -0.330 OA
ATOM     28  C   LIG A   1      -7.458   5.667 130.511  0.00  0.00    +0.192 C 
ATOM     29  C   LIG A   1      -8.679   6.411 131.050  0.00  0.00    +0.190 C 
ATOM     30  C   LIG A   1      -9.985   5.702 130.631  0.00  0.00    +0.242 C 
ATOM     31  C   LIG A   1      -9.925   4.164 130.752  0.00  0.00    +0.226 C 
BRANCH  31  32
ATOM     32  O   LIG A   1     -11.021   3.608 130.002  0.00  0.00    -0.382 OA
ATOM     33  H   LIG A   1     -11.765   3.508 130.623  0.00  0.00    +0.210 HD
ENDBRANCH  31  32
BRANCH  29  34
ATOM     34  O   LIG A   1      -8.639   7.776 130.614  0.00  0.00    -0.385 OA
ATOM     35  H   LIG A   1      -8.705   7.819 129.640  0.00  0.00    +0.210 HD
ENDBRANCH  29  34
BRANCH  30  36
ATOM     36  O   LIG A   1     -11.039   6.145 131.534  0.00  0.00    -0.456 OA
BRANCH  36  37
ATOM     37  C   LIG A   1     -12.102   6.791 130.985  0.00  0.00    +0.304 C 
ATOM     38  C   LIG A   1     -11.860   6.959 129.506  0.00  0.00    +0.136 C 
ATOM     39  O   LIG A   1     -13.084   7.153 131.583  0.00  0.00    -0.251 OA
ENDBRANCH  36  37
ENDBRANCH  30  36
BRANCH  28  40
ATOM     40  C   LIG A   1      -6.140   6.265 131.036  0.00  0.00    +0.266 C 
BRANCH  40  41
ATOM     41  O   LIG A   1      -5.786   7.488 130.358  0.00  0.00    -0.462 OA
BRANCH  41  42
ATOM     42  C   LIG A   1      -4.484   7.588 129.964  0.00  0.00    +0.304 C 
ATOM     43  C   LIG A   1      -3.586   7.749 131.149  0.00  0.00    +0.136 C 
ATOM     44  O   LIG A   1      -4.078   7.610 128.810  0.00  0.00    -0.251 OA
ENDBRANCH  41  42
ENDBRANCH  40  41
ENDBRANCH  28  40
ENDBRANCH  25  26
ENDBRANCH  16  25
TORSDOF 12
ENDMDL
MODEL 5
REMARK VINA RESULT:      -8.1      1.972      4.001
REMARK  Name = NuBBE_1185
REMARK  16 active torsions:
REMARK  status: ('A' for Active; 'I' for Inactive)
REMARK    1  A    between atoms: O_1  and  C_2
REMARK    2  A    between atoms: C_3  and  O_45
REMARK    3  A    between atoms: C_17  and  O_18
REMARK    4  A    between atoms: O_18  and  C_19
REMARK    5  A    between atoms: C_22  and  C_36
REMARK    6  A    between atoms: C_24  and  O_35
REMARK    7  A    between atoms: C_26  and  O_31
REMARK    8  A    between atoms: C_28  and  O_30
REMARK    9  A    between atoms: O_31  and  C_32
REMARK   10  A    between atoms: C_32  and  C_33
REMARK   11  A    between atoms: C_36  and  O_37
REMARK   12  A    between atoms: O_37  and  C_38
REMARK   13  A    between atoms: C_38  and  C_39
REMARK   14  A    between atoms: C_41  and  O_42
REMARK   15  A    between atoms: O_42  and  C_43
REMARK   16  A    between atoms: O_45  and  C_46
REMARK                            x       y       z     vdW  Elec       q    Type
REMARK                         _______ _______ _______ _____ _____    ______ ____
ROOT
ATOM      1  C   LIG A   1      -6.059   4.105 122.898  0.00  0.00    +0.202 A 
ATOM      2  C   LIG A   1      -7.042   3.438 122.150  0.00  0.00    +0.166 A 
ATOM      3  C   LIG A   1      -8.062   2.763 122.819  0.00  0.00    +0.065 A 
ATOM      4  C   LIG A   1      -8.057   2.716 124.218  0.00  0.00    +0.074 A 
ATOM      5  C   LIG A   1      -7.094   3.398 124.960  0.00  0.00    +0.047 A 
ATOM      6  C   LIG A   1      -6.117   4.117 124.290  0.00  0.00    +0.185 A 
ATOM      7  O   LIG A   1      -5.150   4.834 125.032  0.00  0.00    -0.418 OA
ATOM      8  C   LIG A   1      -5.164   4.924 126.427  0.00  0.00    +0.345 A 
ATOM      9  O   LIG A   1      -4.381   5.636 127.043  0.00  0.00    -0.244 OA
ATOM     10  C   LIG A   1      -9.059   1.885 124.908  0.00  0.00    +0.345 A 
ATOM     11  O   LIG A   1      -8.845   1.713 126.267  0.00  0.00    -0.418 OA
ATOM     12  C   LIG A   1      -7.910   2.435 127.051  0.00  0.00    +0.186 A 
ATOM     13  C   LIG A   1      -7.059   3.317 126.393  0.00  0.00    +0.047 A 
ATOM     14  C   LIG A   1      -6.146   4.059 127.133  0.00  0.00    +0.074 A 
ATOM     15  C   LIG A   1      -6.127   3.939 128.529  0.00  0.00    +0.065 A 
ATOM     16  C   LIG A   1      -6.938   2.990 129.183  0.00  0.00    +0.170 A 
ATOM     17  C   LIG A   1      -7.850   2.220 128.436  0.00  0.00    +0.205 A 
ATOM     18  O   LIG A   1      -9.982   1.340 124.315  0.00  0.00    -0.244 OA
ENDROOT
BRANCH   1  19
ATOM     19  O   LIG A   1      -4.986   4.680 122.275  0.00  0.00    -0.501 OA
ATOM     20  H   LIG A   1      -5.067   5.640 122.426  0.00  0.00    +0.292 HD
ENDBRANCH   1  19
BRANCH  17  21
ATOM     21  O   LIG A   1      -8.564   1.246 129.075  0.00  0.00    -0.488 OA
ATOM     22  C   LIG A   1      -7.919   0.005 129.339  0.00  0.00    +0.277 C 
ENDBRANCH  17  21
BRANCH   2  23
ATOM     23  O   LIG A   1      -6.928   3.505 120.786  0.00  0.00    -0.491 OA
ATOM     24  C   LIG A   1      -8.074   4.008 120.096  0.00  0.00    +0.277 C 
ENDBRANCH   2  23
BRANCH  16  25
ATOM     25  O   LIG A   1      -6.748   2.966 130.544  0.00  0.00    -0.457 OA
BRANCH  25  26
ATOM     26  C   LIG A   1      -7.764   3.548 131.380  0.00  0.00    +0.341 C 
ATOM     27  O   LIG A   1      -8.407   4.616 130.699  0.00  0.00    -0.330 OA
ATOM     28  C   LIG A   1      -9.511   5.153 131.420  0.00  0.00    +0.192 C 
ATOM     29  C   LIG A   1      -8.976   5.898 132.642  0.00  0.00    +0.190 C 
ATOM     30  C   LIG A   1      -8.046   4.991 133.476  0.00  0.00    +0.242 C 
ATOM     31  C   LIG A   1      -7.076   4.143 132.627  0.00  0.00    +0.226 C 
BRANCH  31  32
ATOM     32  O   LIG A   1      -6.543   3.096 133.458  0.00  0.00    -0.382 OA
ATOM     33  H   LIG A   1      -5.902   2.604 132.915  0.00  0.00    +0.210 HD
ENDBRANCH  31  32
BRANCH  29  34
ATOM     34  O   LIG A   1     -10.073   6.405 133.412  0.00  0.00    -0.385 OA
ATOM     35  H   LIG A   1     -10.891   5.918 133.191  0.00  0.00    +0.210 HD
ENDBRANCH  29  34
BRANCH  30  36
ATOM     36  O   LIG A   1      -7.218   5.853 134.309  0.00  0.00    -0.456 OA
BRANCH  36  37
ATOM     37  C   LIG A   1      -7.047   5.490 135.609  0.00  0.00    +0.304 C 
ATOM     38  C   LIG A   1      -7.837   6.428 136.485  0.00  0.00    +0.136 C 
ATOM     39  O   LIG A   1      -6.384   4.559 135.992  0.00  0.00    -0.251 OA
ENDBRANCH  36  37
ENDBRANCH  30  36
BRANCH  28  40
ATOM     40  C   LIG A   1     -10.321   6.075 130.490  0.00  0.00    +0.266 C 
BRANCH  40  41
ATOM     41  O   LIG A   1     -11.743   5.909 130.659  0.00  0.00    -0.462 OA
BRANCH  41  42
ATOM     42  C   LIG A   1     -12.452   7.058 130.850  0.00  0.00    +0.304 C 
ATOM     43  C   LIG A   1     -12.125   8.061 129.791  0.00  0.00    +0.136 C 
ATOM     44  O   LIG A   1     -13.211   7.293 131.781  0.00  0.00    -0.251 OA
ENDBRANCH  41  42
ENDBRANCH  40  41
ENDBRANCH  28  40
ENDBRANCH  25  26
ENDBRANCH  16  25
TORSDOF 12
ENDMDL
MODEL 6
REMARK VINA RESULT:      -8.1      3.232      5.010
REMARK  Name = NuBBE_1185
REMARK  16 active torsions:
REMARK  status: ('A' for Active; 'I' for Inactive)
REMARK    1  A    between atoms: O_1  and  C_2
REMARK    2  A    between atoms: C_3  and  O_45
REMARK    3  A    between atoms: C_17  and  O_18
REMARK    4  A    between atoms: O_18  and  C_19
REMARK    5  A    between atoms: C_22  and  C_36
REMARK    6  A    between atoms: C_24  and  O_35
REMARK    7  A    between atoms: C_26  and  O_31
REMARK    8  A    between atoms: C_28  and  O_30
REMARK    9  A    between atoms: O_31  and  C_32
REMARK   10  A    between atoms: C_32  and  C_33
REMARK   11  A    between atoms: C_36  and  O_37
REMARK   12  A    between atoms: O_37  and  C_38
REMARK   13  A    between atoms: C_38  and  C_39
REMARK   14  A    between atoms: C_41  and  O_42
REMARK   15  A    between atoms: O_42  and  C_43
REMARK   16  A    between atoms: O_45  and  C_46
REMARK                            x       y       z     vdW  Elec       q    Type
REMARK                         _______ _______ _______ _____ _____    ______ ____
ROOT
ATOM      1  C   LIG A   1      -8.348   3.788 120.234  0.00  0.00    +0.202 A 
ATOM      2  C   LIG A   1      -7.195   4.427 119.752  0.00  0.00    +0.166 A 
ATOM      3  C   LIG A   1      -6.067   4.496 120.569  0.00  0.00    +0.065 A 
ATOM      4  C   LIG A   1      -6.121   3.979 121.867  0.00  0.00    +0.074 A 
ATOM      5  C   LIG A   1      -7.259   3.324 122.336  0.00  0.00    +0.047 A 
ATOM      6  C   LIG A   1      -8.357   3.205 121.500  0.00  0.00    +0.185 A 
ATOM      7  O   LIG A   1      -9.508   2.521 121.954  0.00  0.00    -0.418 OA
ATOM      8  C   LIG A   1      -9.579   1.879 123.195  0.00  0.00    +0.345 A 
ATOM      9  O   LIG A   1     -10.546   1.203 123.524  0.00  0.00    -0.244 OA
ATOM     10  C   LIG A   1      -4.972   4.182 122.766  0.00  0.00    +0.345 A 
ATOM     11  O   LIG A   1      -5.195   3.843 124.092  0.00  0.00    -0.418 OA
ATOM     12  C   LIG A   1      -6.318   3.130 124.582  0.00  0.00    +0.186 A 
ATOM     13  C   LIG A   1      -7.337   2.830 123.683  0.00  0.00    +0.047 A 
ATOM     14  C   LIG A   1      -8.441   2.111 124.122  0.00  0.00    +0.074 A 
ATOM     15  C   LIG A   1      -8.491   1.662 125.449  0.00  0.00    +0.065 A 
ATOM     16  C   LIG A   1      -7.493   2.032 126.374  0.00  0.00    +0.170 A 
ATOM     17  C   LIG A   1      -6.382   2.779 125.938  0.00  0.00    +0.205 A 
ATOM     18  O   LIG A   1      -3.915   4.666 122.382  0.00  0.00    -0.244 OA
ENDROOT
BRANCH   1  19
ATOM     19  O   LIG A   1      -9.504   3.801 119.503  0.00  0.00    -0.501 OA
ATOM     20  H   LIG A   1     -10.219   4.016 120.129  0.00  0.00    +0.292 HD
ENDBRANCH   1  19
BRANCH  17  21
ATOM     21  O   LIG A   1      -5.472   3.202 126.866  0.00  0.00    -0.488 OA
ATOM     22  C   LIG A   1      -5.727   4.424 127.549  0.00  0.00    +0.277 C 
ENDBRANCH  17  21
BRANCH   2  23
ATOM     23  O   LIG A   1      -7.261   4.942 118.483  0.00  0.00    -0.491 OA
ATOM     24  C   LIG A   1      -6.181   5.798 118.110  0.00  0.00    +0.277 C 
ENDBRANCH   2  23
BRANCH  16  25
ATOM     25  O   LIG A   1      -7.732   1.556 127.641  0.00  0.00    -0.457 OA
BRANCH  25  26
ATOM     26  C   LIG A   1      -7.350   0.202 127.939  0.00  0.00    +0.341 C 
ATOM     27  O   LIG A   1      -8.247  -0.708 127.317  0.00  0.00    -0.330 OA
ATOM     28  C   LIG A   1      -7.852  -2.068 127.463  0.00  0.00    +0.192 C 
ATOM     29  C   LIG A   1      -8.035  -2.471 128.925  0.00  0.00    +0.190 C 
ATOM     30  C   LIG A   1      -7.303  -1.487 129.863  0.00  0.00    +0.242 C 
ATOM     31  C   LIG A   1      -7.468  -0.006 129.464  0.00  0.00    +0.226 C 
BRANCH  31  32
ATOM     32  O   LIG A   1      -6.468   0.764 130.157  0.00  0.00    -0.382 OA
ATOM     33  H   LIG A   1      -6.427   0.418 131.066  0.00  0.00    +0.210 HD
ENDBRANCH  31  32
BRANCH  29  34
ATOM     34  O   LIG A   1      -7.596  -3.823 129.108  0.00  0.00    -0.385 OA
ATOM     35  H   LIG A   1      -7.581  -4.289 128.250  0.00  0.00    +0.210 HD
ENDBRANCH  29  34
BRANCH  30  36
ATOM     36  O   LIG A   1      -7.887  -1.623 131.191  0.00  0.00    -0.456 OA
BRANCH  36  37
ATOM     37  C   LIG A   1      -7.032  -1.779 132.237  0.00  0.00    +0.304 C 
ATOM     38  C   LIG A   1      -7.039  -3.226 132.660  0.00  0.00    +0.136 C 
ATOM     39  O   LIG A   1      -6.367  -0.903 132.731  0.00  0.00    -0.251 OA
ENDBRANCH  36  37
ENDBRANCH  30  36
BRANCH  28  40
ATOM     40  C   LIG A   1      -8.693  -2.942 126.514  0.00  0.00    +0.266 C 
BRANCH  40  41
ATOM     41  O   LIG A   1      -9.404  -2.158 125.535  0.00  0.00    -0.462 OA
BRANCH  41  42
ATOM     42  C   LIG A   1      -9.234  -2.540 124.237  0.00  0.00    +0.304 C 
ATOM     43  C   LIG A   1      -8.196  -1.694 123.570  0.00  0.00    +0.136 C 
ATOM     44  O   LIG A   1      -9.867  -3.407 123.649  0.00  0.00    -0.251 OA
ENDBRANCH  41  42
ENDBRANCH  40  41
ENDBRANCH  28  40
ENDBRANCH  25  26
ENDBRANCH  16  25
TORSDOF 12
ENDMDL
MODEL 7
REMARK VINA RESULT:      -8.0      2.630      9.622
REMARK  Name = NuBBE_1185
REMARK  16 active torsions:
REMARK  status: ('A' for Active; 'I' for Inactive)
REMARK    1  A    between atoms: O_1  and  C_2
REMARK    2  A    between atoms: C_3  and  O_45
REMARK    3  A    between atoms: C_17  and  O_18
REMARK    4  A    between atoms: O_18  and  C_19
REMARK    5  A    between atoms: C_22  and  C_36
REMARK    6  A    between atoms: C_24  and  O_35
REMARK    7  A    between atoms: C_26  and  O_31
REMARK    8  A    between atoms: C_28  and  O_30
REMARK    9  A    between atoms: O_31  and  C_32
REMARK   10  A    between atoms: C_32  and  C_33
REMARK   11  A    between atoms: C_36  and  O_37
REMARK   12  A    between atoms: O_37  and  C_38
REMARK   13  A    between atoms: C_38  and  C_39
REMARK   14  A    between atoms: C_41  and  O_42
REMARK   15  A    between atoms: O_42  and  C_43
REMARK   16  A    between atoms: O_45  and  C_46
REMARK                            x       y       z     vdW  Elec       q    Type
REMARK                         _______ _______ _______ _____ _____    ______ ____
ROOT
ATOM      1  C   LIG A   1      -8.385   4.717 133.735  0.00  0.00    +0.202 A 
ATOM      2  C   LIG A   1      -7.518   5.298 134.674  0.00  0.00    +0.166 A 
ATOM      3  C   LIG A   1      -6.273   5.761 134.252  0.00  0.00    +0.065 A 
ATOM      4  C   LIG A   1      -5.888   5.590 132.918  0.00  0.00    +0.074 A 
ATOM      5  C   LIG A   1      -6.759   5.034 131.982  0.00  0.00    +0.047 A 
ATOM      6  C   LIG A   1      -8.018   4.630 132.394  0.00  0.00    +0.185 A 
ATOM      7  O   LIG A   1      -8.919   4.088 131.449  0.00  0.00    -0.418 OA
ATOM      8  C   LIG A   1      -8.638   4.003 130.081  0.00  0.00    +0.345 A 
ATOM      9  O   LIG A   1      -9.472   3.629 129.266  0.00  0.00    -0.244 OA
ATOM     10  C   LIG A   1      -4.519   5.957 132.516  0.00  0.00    +0.345 A 
ATOM     11  O   LIG A   1      -4.150   5.547 131.245  0.00  0.00    -0.418 OA
ATOM     12  C   LIG A   1      -5.027   5.031 130.258  0.00  0.00    +0.186 A 
ATOM     13  C   LIG A   1      -6.353   4.816 130.621  0.00  0.00    +0.047 A 
ATOM     14  C   LIG A   1      -7.247   4.334 129.673  0.00  0.00    +0.074 A 
ATOM     15  C   LIG A   1      -6.811   4.114 128.360  0.00  0.00    +0.065 A 
ATOM     16  C   LIG A   1      -5.452   4.261 128.017  0.00  0.00    +0.170 A 
ATOM     17  C   LIG A   1      -4.537   4.729 128.979  0.00  0.00    +0.205 A 
ATOM     18  O   LIG A   1      -3.745   6.532 133.271  0.00  0.00    -0.244 OA
ENDROOT
BRANCH   1  19
ATOM     19  O   LIG A   1      -9.564   4.154 134.137  0.00  0.00    -0.501 OA
ATOM     20  H   LIG A   1      -9.873   4.683 134.896  0.00  0.00    +0.292 HD
ENDBRANCH   1  19
BRANCH  17  21
ATOM     21  O   LIG A   1      -3.211   4.781 128.653  0.00  0.00    -0.488 OA
ATOM     22  C   LIG A   1      -2.698   5.995 128.115  0.00  0.00    +0.277 C 
ENDBRANCH  17  21
BRANCH   2  23
ATOM     23  O   LIG A   1      -7.972   5.375 135.966  0.00  0.00    -0.491 OA
ATOM     24  C   LIG A   1      -7.778   6.634 136.613  0.00  0.00    +0.277 C 
ENDBRANCH   2  23
BRANCH  16  25
ATOM     25  O   LIG A   1      -5.191   3.946 126.704  0.00  0.00    -0.457 OA
BRANCH  25  26
ATOM     26  C   LIG A   1      -6.247   3.356 125.926  0.00  0.00    +0.341 C 
ATOM     27  O   LIG A   1      -6.112   1.942 125.909  0.00  0.00    -0.330 OA
ATOM     28  C   LIG A   1      -7.199   1.285 125.265  0.00  0.00    +0.192 C 
ATOM     29  C   LIG A   1      -7.122   1.579 123.768  0.00  0.00    +0.190 C 
ATOM     30  C   LIG A   1      -7.046   3.099 123.507  0.00  0.00    +0.242 C 
ATOM     31  C   LIG A   1      -6.103   3.849 124.471  0.00  0.00    +0.226 C 
BRANCH  31  32
ATOM     32  O   LIG A   1      -6.394   5.257 124.384  0.00  0.00    -0.382 OA
ATOM     33  H   LIG A   1      -6.179   5.643 125.252  0.00  0.00    +0.210 HD
ENDBRANCH  31  32
BRANCH  29  34
ATOM     34  O   LIG A   1      -8.236   0.970 123.103  0.00  0.00    -0.385 OA
ATOM     35  H   LIG A   1      -7.922   0.403 122.372  0.00  0.00    +0.210 HD
ENDBRANCH  29  34
BRANCH  30  36
ATOM     36  O   LIG A   1      -6.505   3.292 122.168  0.00  0.00    -0.456 OA
BRANCH  36  37
ATOM     37  C   LIG A   1      -7.379   3.634 121.184  0.00  0.00    +0.304 C 
ATOM     38  C   LIG A   1      -6.601   4.131 119.992  0.00  0.00    +0.136 C 
ATOM     39  O   LIG A   1      -8.579   3.538 121.251  0.00  0.00    -0.251 OA
ENDBRANCH  36  37
ENDBRANCH  30  36
BRANCH  28  40
ATOM     40  C   LIG A   1      -7.125  -0.223 125.563  0.00  0.00    +0.266 C 
BRANCH  40  41
ATOM     41  O   LIG A   1      -8.345  -0.725 126.147  0.00  0.00    -0.462 OA
BRANCH  41  42
ATOM     42  C   LIG A   1      -9.010  -1.661 125.409  0.00  0.00    +0.304 C 
ATOM     43  C   LIG A   1      -9.152  -2.935 126.180  0.00  0.00    +0.136 C 
ATOM     44  O   LIG A   1      -9.395  -1.532 124.256  0.00  0.00    -0.251 OA
ENDBRANCH  41  42
ENDBRANCH  40  41
ENDBRANCH  28  40
ENDBRANCH  25  26
ENDBRANCH  16  25
TORSDOF 12
ENDMDL
MODEL 8
REMARK VINA RESULT:      -8.0      3.542      5.208
REMARK  Name = NuBBE_1185
REMARK  16 active torsions:
REMARK  status: ('A' for Active; 'I' for Inactive)
REMARK    1  A    between atoms: O_1  and  C_2
REMARK    2  A    between atoms: C_3  and  O_45
REMARK    3  A    between atoms: C_17  and  O_18
REMARK    4  A    between atoms: O_18  and  C_19
REMARK    5  A    between atoms: C_22  and  C_36
REMARK    6  A    between atoms: C_24  and  O_35
REMARK    7  A    between atoms: C_26  and  O_31
REMARK    8  A    between atoms: C_28  and  O_30
REMARK    9  A    between atoms: O_31  and  C_32
REMARK   10  A    between atoms: C_32  and  C_33
REMARK   11  A    between atoms: C_36  and  O_37
REMARK   12  A    between atoms: O_37  and  C_38
REMARK   13  A    between atoms: C_38  and  C_39
REMARK   14  A    between atoms: C_41  and  O_42
REMARK   15  A    between atoms: O_42  and  C_43
REMARK   16  A    between atoms: O_45  and  C_46
REMARK                            x       y       z     vdW  Elec       q    Type
REMARK                         _______ _______ _______ _____ _____    ______ ____
ROOT
ATOM      1  C   LIG A   1      -9.162   1.020 123.853  0.00  0.00    +0.202 A 
ATOM      2  C   LIG A   1      -8.768  -0.323 123.742  0.00  0.00    +0.166 A 
ATOM      3  C   LIG A   1      -7.633  -0.756 124.424  0.00  0.00    +0.065 A 
ATOM      4  C   LIG A   1      -6.877   0.162 125.160  0.00  0.00    +0.074 A 
ATOM      5  C   LIG A   1      -7.282   1.490 125.290  0.00  0.00    +0.047 A 
ATOM      6  C   LIG A   1      -8.443   1.902 124.658  0.00  0.00    +0.185 A 
ATOM      7  O   LIG A   1      -8.878   3.240 124.803  0.00  0.00    -0.418 OA
ATOM      8  C   LIG A   1      -8.233   4.172 125.622  0.00  0.00    +0.345 A 
ATOM      9  O   LIG A   1      -8.685   5.293 125.815  0.00  0.00    -0.244 OA
ATOM     10  C   LIG A   1      -5.606  -0.277 125.762  0.00  0.00    +0.345 A 
ATOM     11  O   LIG A   1      -4.815   0.740 126.274  0.00  0.00    -0.418 OA
ATOM     12  C   LIG A   1      -5.224   2.084 126.465  0.00  0.00    +0.186 A 
ATOM     13  C   LIG A   1      -6.486   2.447 126.008  0.00  0.00    +0.047 A 
ATOM     14  C   LIG A   1      -6.930   3.750 126.200  0.00  0.00    +0.074 A 
ATOM     15  C   LIG A   1      -6.118   4.662 126.888  0.00  0.00    +0.065 A 
ATOM     16  C   LIG A   1      -4.812   4.311 127.283  0.00  0.00    +0.170 A 
ATOM     17  C   LIG A   1      -4.349   2.998 127.071  0.00  0.00    +0.205 A 
ATOM     18  O   LIG A   1      -5.248  -1.448 125.758  0.00  0.00    -0.244 OA
ENDROOT
BRANCH   1  19
ATOM     19  O   LIG A   1     -10.203   1.501 123.109  0.00  0.00    -0.501 OA
ATOM     20  H   LIG A   1     -10.754   0.729 122.882  0.00  0.00    +0.292 HD
ENDBRANCH   1  19
BRANCH  17  21
ATOM     21  O   LIG A   1      -3.052   2.702 127.380  0.00  0.00    -0.488 OA
ATOM     22  C   LIG A   1      -2.034   3.111 126.473  0.00  0.00    +0.277 C 
ENDBRANCH  17  21
BRANCH   2  23
ATOM     23  O   LIG A   1      -9.551  -1.130 122.956  0.00  0.00    -0.491 OA
ATOM     24  C   LIG A   1      -9.332  -2.533 123.105  0.00  0.00    +0.277 C 
ENDBRANCH   2  23
BRANCH  16  25
ATOM     25  O   LIG A   1      -4.137   5.343 127.889  0.00  0.00    -0.457 OA
BRANCH  25  26
ATOM     26  C   LIG A   1      -4.037   5.337 129.324  0.00  0.00    +0.341 C 
ATOM     27  O   LIG A   1      -5.332   5.388 129.906  0.00  0.00    -0.330 OA
ATOM     28  C   LIG A   1      -5.313   5.253 131.323  0.00  0.00    +0.192 C 
ATOM     29  C   LIG A   1      -4.701   6.519 131.921  0.00  0.00    +0.190 C 
ATOM     30  C   LIG A   1      -3.325   6.819 131.288  0.00  0.00    +0.242 C 
ATOM     31  C   LIG A   1      -3.286   6.613 129.758  0.00  0.00    +0.226 C 
BRANCH  31  32
ATOM     32  O   LIG A   1      -1.908   6.554 129.345  0.00  0.00    -0.382 OA
ATOM     33  H   LIG A   1      -1.872   6.899 128.435  0.00  0.00    +0.210 HD
ENDBRANCH  31  32
BRANCH  29  34
ATOM     34  O   LIG A   1      -4.624   6.386 133.346  0.00  0.00    -0.385 OA
ATOM     35  H   LIG A   1      -4.241   5.519 133.582  0.00  0.00    +0.210 HD
ENDBRANCH  29  34
BRANCH  30  36
ATOM     36  O   LIG A   1      -3.027   8.225 131.522  0.00  0.00    -0.456 OA
BRANCH  36  37
ATOM     37  C   LIG A   1      -2.213   8.526 132.569  0.00  0.00    +0.304 C 
ATOM     38  C   LIG A   1      -1.149   7.464 132.681  0.00  0.00    +0.136 C 
ATOM     39  O   LIG A   1      -2.319   9.495 133.279  0.00  0.00    -0.251 OA
ENDBRANCH  36  37
ENDBRANCH  30  36
BRANCH  28  40
ATOM     40  C   LIG A   1      -6.747   5.011 131.826  0.00  0.00    +0.266 C 
BRANCH  40  41
ATOM     41  O   LIG A   1      -7.400   6.234 132.225  0.00  0.00    -0.462 OA
BRANCH  41  42
ATOM     42  C   LIG A   1      -8.347   6.705 131.364  0.00  0.00    +0.304 C 
ATOM     43  C   LIG A   1      -9.708   6.238 131.771  0.00  0.00    +0.136 C 
ATOM     44  O   LIG A   1      -8.142   7.367 130.355  0.00  0.00    -0.251 OA
ENDBRANCH  41  42
ENDBRANCH  40  41
ENDBRANCH  28  40
ENDBRANCH  25  26
ENDBRANCH  16  25
TORSDOF 12
ENDMDL
MODEL 9
REMARK VINA RESULT:      -8.0      3.364      9.416
REMARK  Name = NuBBE_1185
REMARK  16 active torsions:
REMARK  status: ('A' for Active; 'I' for Inactive)
REMARK    1  A    between atoms: O_1  and  C_2
REMARK    2  A    between atoms: C_3  and  O_45
REMARK    3  A    between atoms: C_17  and  O_18
REMARK    4  A    between atoms: O_18  and  C_19
REMARK    5  A    between atoms: C_22  and  C_36
REMARK    6  A    between atoms: C_24  and  O_35
REMARK    7  A    between atoms: C_26  and  O_31
REMARK    8  A    between atoms: C_28  and  O_30
REMARK    9  A    between atoms: O_31  and  C_32
REMARK   10  A    between atoms: C_32  and  C_33
REMARK   11  A    between atoms: C_36  and  O_37
REMARK   12  A    between atoms: O_37  and  C_38
REMARK   13  A    between atoms: C_38  and  C_39
REMARK   14  A    between atoms: C_41  and  O_42
REMARK   15  A    between atoms: O_42  and  C_43
REMARK   16  A    between atoms: O_45  and  C_46
REMARK                            x       y       z     vdW  Elec       q    Type
REMARK                         _______ _______ _______ _____ _____    ______ ____
ROOT
ATOM      1  C   LIG A   1      -6.652  -2.734 130.180  0.00  0.00    +0.202 A 
ATOM      2  C   LIG A   1      -7.161  -2.269 131.403  0.00  0.00    +0.166 A 
ATOM      3  C   LIG A   1      -7.451  -0.913 131.545  0.00  0.00    +0.065 A 
ATOM      4  C   LIG A   1      -7.180  -0.035 130.491  0.00  0.00    +0.074 A 
ATOM      5  C   LIG A   1      -6.695  -0.500 129.270  0.00  0.00    +0.047 A 
ATOM      6  C   LIG A   1      -6.465  -1.857 129.113  0.00  0.00    +0.185 A 
ATOM      7  O   LIG A   1      -5.998  -2.345 127.871  0.00  0.00    -0.418 OA
ATOM      8  C   LIG A   1      -5.822  -1.535 126.745  0.00  0.00    +0.345 A 
ATOM      9  O   LIG A   1      -5.519  -1.995 125.651  0.00  0.00    -0.244 OA
ATOM     10  C   LIG A   1      -7.360   1.413 130.703  0.00  0.00    +0.345 A 
ATOM     11  O   LIG A   1      -6.856   2.221 129.696  0.00  0.00    -0.418 OA
ATOM     12  C   LIG A   1      -6.409   1.775 128.427  0.00  0.00    +0.186 A 
ATOM     13  C   LIG A   1      -6.372   0.403 128.200  0.00  0.00    +0.047 A 
ATOM     14  C   LIG A   1      -5.964  -0.070 126.959  0.00  0.00    +0.074 A 
ATOM     15  C   LIG A   1      -5.638   0.840 125.945  0.00  0.00    +0.065 A 
ATOM     16  C   LIG A   1      -5.604   2.226 126.203  0.00  0.00    +0.170 A 
ATOM     17  C   LIG A   1      -5.997   2.709 127.465  0.00  0.00    +0.205 A 
ATOM     18  O   LIG A   1      -7.867   1.870 131.719  0.00  0.00    -0.244 OA
ENDROOT
BRANCH   1  19
ATOM     19  O   LIG A   1      -6.253  -4.035 130.045  0.00  0.00    -0.501 OA
ATOM     20  H   LIG A   1      -6.247  -4.219 129.088  0.00  0.00    +0.292 HD
ENDBRANCH   1  19
BRANCH  17  21
ATOM     21  O   LIG A   1      -5.874   4.045 127.723  0.00  0.00    -0.488 OA
ATOM     22  C   LIG A   1      -4.623   4.525 128.205  0.00  0.00    +0.277 C 
ENDBRANCH  17  21
BRANCH   2  23
ATOM     23  O   LIG A   1      -7.347  -3.205 132.388  0.00  0.00    -0.491 OA
ATOM     24  C   LIG A   1      -8.051  -2.751 133.544  0.00  0.00    +0.277 C 
ENDBRANCH   2  23
BRANCH  16  25
ATOM     25  O   LIG A   1      -5.205   2.966 125.115  0.00  0.00    -0.457 OA
BRANCH  25  26
ATOM     26  C   LIG A   1      -6.222   3.493 124.245  0.00  0.00    +0.341 C 
ATOM     27  O   LIG A   1      -7.225   2.514 124.014  0.00  0.00    -0.330 OA
ATOM     28  C   LIG A   1      -8.329   3.012 123.266  0.00  0.00    +0.192 C 
ATOM     29  C   LIG A   1      -7.867   3.266 121.832  0.00  0.00    +0.190 C 
ATOM     30  C   LIG A   1      -6.616   4.171 121.808  0.00  0.00    +0.242 C 
ATOM     31  C   LIG A   1      -5.570   3.815 122.885  0.00  0.00    +0.226 C 
BRANCH  31  32
ATOM     32  O   LIG A   1      -4.657   4.922 123.012  0.00  0.00    -0.382 OA
ATOM     33  H   LIG A   1      -3.845   4.672 122.535  0.00  0.00    +0.210 HD
ENDBRANCH  31  32
BRANCH  29  34
ATOM     34  O   LIG A   1      -8.949   3.816 121.070  0.00  0.00    -0.385 OA
ATOM     35  H   LIG A   1      -8.638   4.583 120.551  0.00  0.00    +0.210 HD
ENDBRANCH  29  34
BRANCH  30  36
ATOM     36  O   LIG A   1      -5.961   3.987 120.520  0.00  0.00    -0.456 OA
BRANCH  36  37
ATOM     37  C   LIG A   1      -5.691   5.102 119.790  0.00  0.00    +0.304 C 
ATOM     38  C   LIG A   1      -6.576   5.111 118.569  0.00  0.00    +0.136 C 
ATOM     39  O   LIG A   1      -4.888   5.952 120.084  0.00  0.00    -0.251 OA
ENDBRANCH  36  37
ENDBRANCH  30  36
BRANCH  28  40
ATOM     40  C   LIG A   1      -9.482   1.994 123.329  0.00  0.00    +0.266 C 
BRANCH  40  41
ATOM     41  O   LIG A   1      -9.029   0.677 123.704  0.00  0.00    -0.462 OA
BRANCH  41  42
ATOM     42  C   LIG A   1      -9.526  -0.351 122.959  0.00  0.00    +0.304 C 
ATOM     43  C   LIG A   1      -8.611  -1.533 123.017  0.00  0.00    +0.136 C 
ATOM     44  O   LIG A   1     -10.541  -0.326 122.276  0.00  0.00    -0.251 OA
ENDBRANCH  41  42
ENDBRANCH  40  41
ENDBRANCH  28  40
ENDBRANCH  25  26
ENDBRANCH  16  25
TORSDOF 12
ENDMDL
