MODEL 1
REMARK VINA RESULT:      -9.0      0.000      0.000
REMARK  Name = NuBBE_316
REMARK  17 active torsions:
REMARK  status: ('A' for Active; 'I' for Inactive)
REMARK    1  A    between atoms: C_1  and  C_2
REMARK    2  A    between atoms: C_2  and  C_57
REMARK    3  A    between atoms: C_3  and  O_40
REMARK    4  A    between atoms: C_7  and  C_39
REMARK    5  A    between atoms: C_12  and  C_38
REMARK    6  A    between atoms: C_18  and  C_35
REMARK    7  A    between atoms: C_21  and  C_32
REMARK    8  A    between atoms: C_24  and  C_31
REMARK    9  A    between atoms: C_26  and  C_30
REMARK   10  A    between atoms: C_32  and  O_33
REMARK   11  A    between atoms: C_35  and  O_36
REMARK   12  A    between atoms: O_40  and  C_41
REMARK   13  A    between atoms: C_44  and  C_55
REMARK   14  A    between atoms: C_46  and  O_54
REMARK   15  A    between atoms: C_48  and  O_53
REMARK   16  A    between atoms: C_50  and  O_52
REMARK   17  A    between atoms: C_55  and  O_56
REMARK                            x       y       z     vdW  Elec       q    Type
REMARK                         _______ _______ _______ _____ _____    ______ ____
ROOT
ATOM      1  C   LIG A   1      -8.881   0.071 131.844  0.00  0.00    +0.014 C 
ATOM      2  C   LIG A   1      -7.810   1.199 131.796  0.00  0.00    -0.005 C 
ATOM      3  C   LIG A   1      -6.468   0.641 132.380  0.00  0.00    +0.127 C 
ATOM      4  C   LIG A   1      -5.379   1.722 132.318  0.00  0.00    +0.033 C 
ATOM      5  C   LIG A   1      -5.096   2.190 130.885  0.00  0.00    +0.010 C 
ATOM      6  C   LIG A   1      -6.364   2.629 130.049  0.00  0.00    -0.025 C 
ATOM      7  C   LIG A   1      -7.535   1.615 130.308  0.00  0.00    +0.003 C 
ATOM      8  C   LIG A   1      -8.784   2.017 129.526  0.00  0.00    +0.005 C 
ATOM      9  C   LIG A   1      -8.509   1.890 128.034  0.00  0.00    +0.009 C 
ATOM     10  C   LIG A   1      -7.345   2.744 127.462  0.00  0.00    -0.009 C 
ATOM     11  C   LIG A   1      -6.074   2.670 128.448  0.00  0.00    +0.006 C 
ATOM     12  C   LIG A   1      -5.098   1.534 128.104  0.00  0.00    +0.031 C 
ATOM     13  C   LIG A   1      -5.187   0.828 126.821  0.00  0.00    -0.026 C 
ATOM     14  C   LIG A   1      -6.123   0.988 125.878  0.00  0.00    -0.052 C 
ATOM     15  C   LIG A   1      -7.003   2.247 125.912  0.00  0.00    +0.094 C 
ATOM     16  C   LIG A   1      -8.313   2.068 125.056  0.00  0.00    +0.024 C 
ATOM     17  C   LIG A   1      -8.223   1.157 123.816  0.00  0.00    +0.020 C 
ATOM     18  C   LIG A   1      -7.641  -0.237 124.129  0.00  0.00    +0.074 C 
ATOM     19  C   LIG A   1      -6.218  -0.041 124.738  0.00  0.00    +0.036 C 
ATOM     20  C   LIG A   1      -5.500  -1.428 125.000  0.00  0.00    -0.003 C 
ATOM     21  C   LIG A   1      -5.483  -2.328 123.737  0.00  0.00    -0.011 C 
ATOM     22  C   LIG A   1      -6.847  -2.416 123.050  0.00  0.00    +0.004 C 
ATOM     23  C   LIG A   1      -7.442  -1.028 122.807  0.00  0.00    +0.019 C 
ATOM     24  C   LIG A   1      -4.932  -3.731 124.021  0.00  0.00    +0.008 C 
ATOM     25  C   LIG A   1      -5.992  -2.182 126.253  0.00  0.00    +0.008 C 
ATOM     26  C   LIG A   1      -7.877   4.209 127.407  0.00  0.00    +0.013 C 
ATOM     27  C   LIG A   1      -6.662   4.075 130.520  0.00  0.00    +0.012 C 
ATOM     28  C   LIG A   1      -8.376   2.334 132.676  0.00  0.00    +0.014 C 
ENDROOT
BRANCH  18  29
ATOM     29  C   LIG A   1      -8.640  -0.948 125.077  0.00  0.00    +0.311 C 
ATOM     30  O   LIG A   1      -8.629  -0.854 126.287  0.00  0.00    -0.250 OA
BRANCH  29  31
ATOM     31  O   LIG A   1      -9.631  -1.654 124.483  0.00  0.00    -0.480 OA
ATOM     32  H   LIG A   1     -10.295  -2.072 125.053  0.00  0.00    +0.295 HD
ENDBRANCH  29  31
ENDBRANCH  18  29
BRANCH  15  33
ATOM     33  C   LIG A   1      -6.118   3.337 125.236  0.00  0.00    +0.316 C 
ATOM     34  O   LIG A   1      -4.918   3.518 125.382  0.00  0.00    -0.250 OA
BRANCH  33  35
ATOM     35  O   LIG A   1      -6.765   4.116 124.342  0.00  0.00    -0.480 OA
ATOM     36  H   LIG A   1      -7.709   3.955 124.552  0.00  0.00    +0.295 HD
ENDBRANCH  33  35
ENDBRANCH  15  33
BRANCH   3  37
ATOM     37  O   LIG A   1      -6.115  -0.536 131.628  0.00  0.00    -0.345 OA
BRANCH  37  38
ATOM     38  C   LIG A   1      -5.939  -1.774 132.325  0.00  0.00    +0.282 C 
ATOM     39  O   LIG A   1      -4.633  -1.713 132.933  0.00  0.00    -0.341 OA
ATOM     40  C   LIG A   1      -4.301  -2.872 133.700  0.00  0.00    +0.178 C 
ATOM     41  C   LIG A   1      -4.233  -4.104 132.786  0.00  0.00    +0.177 C 
ATOM     42  C   LIG A   1      -5.585  -4.273 132.099  0.00  0.00    +0.179 C 
ATOM     43  C   LIG A   1      -6.051  -3.000 131.393  0.00  0.00    +0.201 C 
BRANCH  43  44
ATOM     44  O   LIG A   1      -7.407  -3.236 130.970  0.00  0.00    -0.384 OA
ATOM     45  H   LIG A   1      -7.961  -2.883 131.695  0.00  0.00    +0.210 HD
ENDBRANCH  43  44
BRANCH  42  46
ATOM     46  O   LIG A   1      -5.523  -5.343 131.138  0.00  0.00    -0.386 OA
ATOM     47  H   LIG A   1      -5.378  -6.149 131.674  0.00  0.00    +0.210 HD
ENDBRANCH  42  46
BRANCH  41  48
ATOM     48  O   LIG A   1      -3.963  -5.322 133.493  0.00  0.00    -0.387 OA
ATOM     49  H   LIG A   1      -4.490  -5.289 134.323  0.00  0.00    +0.210 HD
ENDBRANCH  41  48
BRANCH  40  50
ATOM     50  C   LIG A   1      -2.961  -2.626 134.411  0.00  0.00    +0.190 C 
BRANCH  50  51
ATOM     51  O   LIG A   1      -1.923  -3.409 133.820  0.00  0.00    -0.392 OA
ATOM     52  H   LIG A   1      -1.222  -2.785 133.556  0.00  0.00    +0.209 HD
ENDBRANCH  50  51
ENDBRANCH  40  50
ENDBRANCH  37  38
ENDBRANCH   3  37
TORSDOF 11
ENDMDL
MODEL 2
REMARK VINA RESULT:      -9.0      3.682      8.020
REMARK  Name = NuBBE_316
REMARK  17 active torsions:
REMARK  status: ('A' for Active; 'I' for Inactive)
REMARK    1  A    between atoms: C_1  and  C_2
REMARK    2  A    between atoms: C_2  and  C_57
REMARK    3  A    between atoms: C_3  and  O_40
REMARK    4  A    between atoms: C_7  and  C_39
REMARK    5  A    between atoms: C_12  and  C_38
REMARK    6  A    between atoms: C_18  and  C_35
REMARK    7  A    between atoms: C_21  and  C_32
REMARK    8  A    between atoms: C_24  and  C_31
REMARK    9  A    between atoms: C_26  and  C_30
REMARK   10  A    between atoms: C_32  and  O_33
REMARK   11  A    between atoms: C_35  and  O_36
REMARK   12  A    between atoms: O_40  and  C_41
REMARK   13  A    between atoms: C_44  and  C_55
REMARK   14  A    between atoms: C_46  and  O_54
REMARK   15  A    between atoms: C_48  and  O_53
REMARK   16  A    between atoms: C_50  and  O_52
REMARK   17  A    between atoms: C_55  and  O_56
REMARK                            x       y       z     vdW  Elec       q    Type
REMARK                         _______ _______ _______ _____ _____    ______ ____
ROOT
ATOM      1  C   LIG A   1      -7.082   6.099 130.732  0.00  0.00    +0.014 C 
ATOM      2  C   LIG A   1      -7.534   5.320 132.001  0.00  0.00    -0.005 C 
ATOM      3  C   LIG A   1      -9.099   5.342 132.072  0.00  0.00    +0.127 C 
ATOM      4  C   LIG A   1      -9.581   4.554 133.298  0.00  0.00    +0.033 C 
ATOM      5  C   LIG A   1      -9.143   3.084 133.261  0.00  0.00    +0.010 C 
ATOM      6  C   LIG A   1      -7.602   2.838 133.012  0.00  0.00    -0.025 C 
ATOM      7  C   LIG A   1      -7.092   3.818 131.895  0.00  0.00    +0.003 C 
ATOM      8  C   LIG A   1      -5.600   3.618 131.637  0.00  0.00    +0.005 C 
ATOM      9  C   LIG A   1      -5.371   2.234 131.046  0.00  0.00    +0.009 C 
ATOM     10  C   LIG A   1      -5.829   1.022 131.902  0.00  0.00    -0.009 C 
ATOM     11  C   LIG A   1      -7.281   1.315 132.534  0.00  0.00    +0.006 C 
ATOM     12  C   LIG A   1      -8.441   0.831 131.651  0.00  0.00    +0.031 C 
ATOM     13  C   LIG A   1      -8.201  -0.079 130.524  0.00  0.00    -0.026 C 
ATOM     14  C   LIG A   1      -7.016  -0.505 130.074  0.00  0.00    -0.052 C 
ATOM     15  C   LIG A   1      -5.782  -0.359 130.977  0.00  0.00    +0.094 C 
ATOM     16  C   LIG A   1      -4.441  -0.465 130.159  0.00  0.00    +0.024 C 
ATOM     17  C   LIG A   1      -4.449  -1.372 128.912  0.00  0.00    +0.020 C 
ATOM     18  C   LIG A   1      -5.601  -1.054 127.938  0.00  0.00    +0.074 C 
ATOM     19  C   LIG A   1      -6.947  -1.216 128.712  0.00  0.00    +0.036 C 
ATOM     20  C   LIG A   1      -8.195  -1.005 127.759  0.00  0.00    -0.003 C 
ATOM     21  C   LIG A   1      -8.129  -1.901 126.496  0.00  0.00    -0.011 C 
ATOM     22  C   LIG A   1      -6.764  -1.857 125.806  0.00  0.00    +0.004 C 
ATOM     23  C   LIG A   1      -5.627  -2.108 126.797  0.00  0.00    +0.019 C 
ATOM     24  C   LIG A   1      -9.248  -1.592 125.494  0.00  0.00    +0.008 C 
ATOM     25  C   LIG A   1      -8.504   0.468 127.420  0.00  0.00    +0.008 C 
ATOM     26  C   LIG A   1      -4.780   0.888 133.048  0.00  0.00    +0.013 C 
ATOM     27  C   LIG A   1      -6.941   3.056 134.397  0.00  0.00    +0.012 C 
ATOM     28  C   LIG A   1      -6.909   6.081 133.188  0.00  0.00    +0.014 C 
ENDROOT
BRANCH  18  29
ATOM     29  C   LIG A   1      -5.357   0.376 127.391  0.00  0.00    +0.311 C 
ATOM     30  O   LIG A   1      -5.756   1.394 127.917  0.00  0.00    -0.250 OA
BRANCH  29  31
ATOM     31  O   LIG A   1      -4.574   0.470 126.291  0.00  0.00    -0.480 OA
ATOM     32  H   LIG A   1      -4.438   1.349 125.904  0.00  0.00    +0.295 HD
ENDBRANCH  29  31
ENDBRANCH  18  29
BRANCH  15  33
ATOM     33  C   LIG A   1      -5.873  -1.587 131.933  0.00  0.00    +0.316 C 
ATOM     34  O   LIG A   1      -6.861  -1.998 132.524  0.00  0.00    -0.250 OA
BRANCH  33  35
ATOM     35  O   LIG A   1      -4.731  -2.297 132.052  0.00  0.00    -0.480 OA
ATOM     36  H   LIG A   1      -4.873  -3.048 131.438  0.00  0.00    +0.295 HD
ENDBRANCH  33  35
ENDBRANCH  15  33
BRANCH   3  37
ATOM     37  O   LIG A   1      -9.604   4.796 130.837  0.00  0.00    -0.345 OA
BRANCH  37  38
ATOM     38  C   LIG A   1     -10.680   5.468 130.175  0.00  0.00    +0.282 C 
ATOM     39  O   LIG A   1     -10.120   6.045 128.977  0.00  0.00    -0.341 OA
ATOM     40  C   LIG A   1     -11.075   6.741 128.174  0.00  0.00    +0.178 C 
ATOM     41  C   LIG A   1     -11.633   7.945 128.946  0.00  0.00    +0.177 C 
ATOM     42  C   LIG A   1     -12.271   7.440 130.236  0.00  0.00    +0.179 C 
ATOM     43  C   LIG A   1     -11.328   6.559 131.055  0.00  0.00    +0.201 C 
BRANCH  43  44
ATOM     44  O   LIG A   1     -12.113   5.996 132.124  0.00  0.00    -0.384 OA
ATOM     45  H   LIG A   1     -12.658   5.305 131.697  0.00  0.00    +0.210 HD
ENDBRANCH  43  44
BRANCH  42  46
ATOM     46  O   LIG A   1     -12.695   8.550 131.049  0.00  0.00    -0.386 OA
ATOM     47  H   LIG A   1     -12.681   8.205 131.965  0.00  0.00    +0.210 HD
ENDBRANCH  42  46
BRANCH  41  48
ATOM     48  O   LIG A   1     -12.645   8.662 128.226  0.00  0.00    -0.387 OA
ATOM     49  H   LIG A   1     -13.370   8.023 128.047  0.00  0.00    +0.210 HD
ENDBRANCH  41  48
BRANCH  40  50
ATOM     50  C   LIG A   1     -10.394   7.178 126.867  0.00  0.00    +0.190 C 
BRANCH  50  51
ATOM     51  O   LIG A   1      -9.557   6.138 126.361  0.00  0.00    -0.392 OA
ATOM     52  H   LIG A   1      -8.671   6.530 126.242  0.00  0.00    +0.209 HD
ENDBRANCH  50  51
ENDBRANCH  40  50
ENDBRANCH  37  38
ENDBRANCH   3  37
TORSDOF 11
ENDMDL
MODEL 3
REMARK VINA RESULT:      -9.0      2.967      8.595
REMARK  Name = NuBBE_316
REMARK  17 active torsions:
REMARK  status: ('A' for Active; 'I' for Inactive)
REMARK    1  A    between atoms: C_1  and  C_2
REMARK    2  A    between atoms: C_2  and  C_57
REMARK    3  A    between atoms: C_3  and  O_40
REMARK    4  A    between atoms: C_7  and  C_39
REMARK    5  A    between atoms: C_12  and  C_38
REMARK    6  A    between atoms: C_18  and  C_35
REMARK    7  A    between atoms: C_21  and  C_32
REMARK    8  A    between atoms: C_24  and  C_31
REMARK    9  A    between atoms: C_26  and  C_30
REMARK   10  A    between atoms: C_32  and  O_33
REMARK   11  A    between atoms: C_35  and  O_36
REMARK   12  A    between atoms: O_40  and  C_41
REMARK   13  A    between atoms: C_44  and  C_55
REMARK   14  A    between atoms: C_46  and  O_54
REMARK   15  A    between atoms: C_48  and  O_53
REMARK   16  A    between atoms: C_50  and  O_52
REMARK   17  A    between atoms: C_55  and  O_56
REMARK                            x       y       z     vdW  Elec       q    Type
REMARK                         _______ _______ _______ _____ _____    ______ ____
ROOT
ATOM      1  C   LIG A   1      -8.572  -2.580 129.670  0.00  0.00    +0.014 C 
ATOM      2  C   LIG A   1      -7.033  -2.509 129.453  0.00  0.00    -0.005 C 
ATOM      3  C   LIG A   1      -6.754  -2.044 127.984  0.00  0.00    +0.127 C 
ATOM      4  C   LIG A   1      -5.241  -1.934 127.746  0.00  0.00    +0.033 C 
ATOM      5  C   LIG A   1      -4.571  -0.921 128.683  0.00  0.00    +0.010 C 
ATOM      6  C   LIG A   1      -4.880  -1.109 130.222  0.00  0.00    -0.025 C 
ATOM      7  C   LIG A   1      -6.405  -1.436 130.411  0.00  0.00    +0.003 C 
ATOM      8  C   LIG A   1      -6.738  -1.639 131.888  0.00  0.00    +0.005 C 
ATOM      9  C   LIG A   1      -6.548  -0.325 132.633  0.00  0.00    +0.009 C 
ATOM     10  C   LIG A   1      -5.129   0.305 132.591  0.00  0.00    -0.009 C 
ATOM     11  C   LIG A   1      -4.536   0.222 131.096  0.00  0.00    +0.006 C 
ATOM     12  C   LIG A   1      -4.855   1.458 130.241  0.00  0.00    +0.031 C 
ATOM     13  C   LIG A   1      -5.364   2.688 130.858  0.00  0.00    -0.026 C 
ATOM     14  C   LIG A   1      -5.696   2.866 132.141  0.00  0.00    -0.052 C 
ATOM     15  C   LIG A   1      -5.195   1.857 133.185  0.00  0.00    +0.094 C 
ATOM     16  C   LIG A   1      -6.025   1.934 134.520  0.00  0.00    +0.024 C 
ATOM     17  C   LIG A   1      -6.600   3.310 134.912  0.00  0.00    +0.020 C 
ATOM     18  C   LIG A   1      -7.415   3.970 133.782  0.00  0.00    +0.074 C 
ATOM     19  C   LIG A   1      -6.481   4.128 132.541  0.00  0.00    +0.036 C 
ATOM     20  C   LIG A   1      -7.208   4.891 131.359  0.00  0.00    -0.003 C 
ATOM     21  C   LIG A   1      -7.813   6.243 131.816  0.00  0.00    -0.011 C 
ATOM     22  C   LIG A   1      -8.618   6.127 133.112  0.00  0.00    +0.004 C 
ATOM     23  C   LIG A   1      -7.821   5.410 134.204  0.00  0.00    +0.019 C 
ATOM     24  C   LIG A   1      -8.652   6.915 130.722  0.00  0.00    +0.008 C 
ATOM     25  C   LIG A   1      -8.215   4.036 130.562  0.00  0.00    +0.008 C 
ATOM     26  C   LIG A   1      -4.250  -0.556 133.548  0.00  0.00    +0.013 C 
ATOM     27  C   LIG A   1      -3.927  -2.242 130.678  0.00  0.00    +0.012 C 
ATOM     28  C   LIG A   1      -6.523  -3.946 129.693  0.00  0.00    +0.014 C 
ENDROOT
BRANCH  18  29
ATOM     29  C   LIG A   1      -8.656   3.076 133.528  0.00  0.00    +0.311 C 
ATOM     30  O   LIG A   1      -8.618   1.966 133.039  0.00  0.00    -0.250 OA
BRANCH  29  31
ATOM     31  O   LIG A   1      -9.842   3.561 133.964  0.00  0.00    -0.480 OA
ATOM     32  H   LIG A   1      -9.963   4.523 133.973  0.00  0.00    +0.295 HD
ENDBRANCH  29  31
ENDBRANCH  18  29
BRANCH  15  33
ATOM     33  C   LIG A   1      -3.738   2.325 133.484  0.00  0.00    +0.316 C 
ATOM     34  O   LIG A   1      -2.929   2.790 132.695  0.00  0.00    -0.250 OA
BRANCH  33  35
ATOM     35  O   LIG A   1      -3.378   2.256 134.784  0.00  0.00    -0.480 OA
ATOM     36  H   LIG A   1      -3.409   3.193 135.071  0.00  0.00    +0.295 HD
ENDBRANCH  33  35
ENDBRANCH  15  33
BRANCH   3  37
ATOM     37  O   LIG A   1      -7.433  -0.789 127.782  0.00  0.00    -0.345 OA
BRANCH  37  38
ATOM     38  C   LIG A   1      -8.424  -0.699 126.753  0.00  0.00    +0.282 C 
ATOM     39  O   LIG A   1      -8.237  -1.853 125.910  0.00  0.00    -0.341 OA
ATOM     40  C   LIG A   1      -9.171  -1.935 124.832  0.00  0.00    +0.178 C 
ATOM     41  C   LIG A   1      -8.985  -0.742 123.883  0.00  0.00    +0.177 C 
ATOM     42  C   LIG A   1      -9.181   0.545 124.679  0.00  0.00    +0.179 C 
ATOM     43  C   LIG A   1      -8.308   0.604 125.931  0.00  0.00    +0.201 C 
BRANCH  43  44
ATOM     44  O   LIG A   1      -8.736   1.756 126.680  0.00  0.00    -0.384 OA
ATOM     45  H   LIG A   1      -9.076   1.395 127.524  0.00  0.00    +0.210 HD
ENDBRANCH  43  44
BRANCH  42  46
ATOM     46  O   LIG A   1      -8.891   1.688 123.854  0.00  0.00    -0.386 OA
ATOM     47  H   LIG A   1      -9.680   1.788 123.283  0.00  0.00    +0.210 HD
ENDBRANCH  42  46
BRANCH  41  48
ATOM     48  O   LIG A   1      -9.930  -0.721 122.805  0.00  0.00    -0.387 OA
ATOM     49  H   LIG A   1      -9.798   0.131 122.331  0.00  0.00    +0.210 HD
ENDBRANCH  41  48
BRANCH  40  50
ATOM     50  C   LIG A   1      -8.965  -3.271 124.101  0.00  0.00    +0.190 C 
BRANCH  50  51
ATOM     51  O   LIG A   1     -10.144  -3.644 123.386  0.00  0.00    -0.392 OA
ATOM     52  H   LIG A   1      -9.858  -4.247 122.675  0.00  0.00    +0.209 HD
ENDBRANCH  50  51
ENDBRANCH  40  50
ENDBRANCH  37  38
ENDBRANCH   3  37
TORSDOF 11
ENDMDL
MODEL 4
REMARK VINA RESULT:      -9.0      4.088      8.593
REMARK  Name = NuBBE_316
REMARK  17 active torsions:
REMARK  status: ('A' for Active; 'I' for Inactive)
REMARK    1  A    between atoms: C_1  and  C_2
REMARK    2  A    between atoms: C_2  and  C_57
REMARK    3  A    between atoms: C_3  and  O_40
REMARK    4  A    between atoms: C_7  and  C_39
REMARK    5  A    between atoms: C_12  and  C_38
REMARK    6  A    between atoms: C_18  and  C_35
REMARK    7  A    between atoms: C_21  and  C_32
REMARK    8  A    between atoms: C_24  and  C_31
REMARK    9  A    between atoms: C_26  and  C_30
REMARK   10  A    between atoms: C_32  and  O_33
REMARK   11  A    between atoms: C_35  and  O_36
REMARK   12  A    between atoms: O_40  and  C_41
REMARK   13  A    between atoms: C_44  and  C_55
REMARK   14  A    between atoms: C_46  and  O_54
REMARK   15  A    between atoms: C_48  and  O_53
REMARK   16  A    between atoms: C_50  and  O_52
REMARK   17  A    between atoms: C_55  and  O_56
REMARK                            x       y       z     vdW  Elec       q    Type
REMARK                         _______ _______ _______ _____ _____    ______ ____
ROOT
ATOM      1  C   LIG A   1      -5.284   5.582 129.396  0.00  0.00    +0.014 C 
ATOM      2  C   LIG A   1      -5.726   5.703 130.883  0.00  0.00    -0.005 C 
ATOM      3  C   LIG A   1      -7.264   5.997 130.928  0.00  0.00    +0.127 C 
ATOM      4  C   LIG A   1      -7.740   6.091 132.384  0.00  0.00    +0.033 C 
ATOM      5  C   LIG A   1      -7.498   4.795 133.167  0.00  0.00    +0.010 C 
ATOM      6  C   LIG A   1      -6.026   4.222 133.098  0.00  0.00    -0.025 C 
ATOM      7  C   LIG A   1      -5.489   4.341 131.626  0.00  0.00    +0.003 C 
ATOM      8  C   LIG A   1      -4.061   3.809 131.525  0.00  0.00    +0.005 C 
ATOM      9  C   LIG A   1      -4.059   2.312 131.798  0.00  0.00    +0.009 C 
ATOM     10  C   LIG A   1      -4.596   1.851 133.180  0.00  0.00    -0.009 C 
ATOM     11  C   LIG A   1      -5.942   2.657 133.542  0.00  0.00    +0.006 C 
ATOM     12  C   LIG A   1      -7.223   1.952 133.072  0.00  0.00    +0.031 C 
ATOM     13  C   LIG A   1      -7.194   0.551 132.636  0.00  0.00    -0.026 C 
ATOM     14  C   LIG A   1      -6.114  -0.226 132.499  0.00  0.00    -0.052 C 
ATOM     15  C   LIG A   1      -4.801   0.201 133.173  0.00  0.00    +0.094 C 
ATOM     16  C   LIG A   1      -3.557  -0.537 132.553  0.00  0.00    +0.024 C 
ATOM     17  C   LIG A   1      -3.783  -1.965 132.015  0.00  0.00    +0.020 C 
ATOM     18  C   LIG A   1      -4.961  -2.060 131.025  0.00  0.00    +0.074 C 
ATOM     19  C   LIG A   1      -6.248  -1.567 131.757  0.00  0.00    +0.036 C 
ATOM     20  C   LIG A   1      -7.533  -1.724 130.844  0.00  0.00    -0.003 C 
ATOM     21  C   LIG A   1      -7.686  -3.163 130.287  0.00  0.00    -0.011 C 
ATOM     22  C   LIG A   1      -6.388  -3.711 129.690  0.00  0.00    +0.004 C 
ATOM     23  C   LIG A   1      -5.215  -3.548 130.657  0.00  0.00    +0.019 C 
ATOM     24  C   LIG A   1      -8.835  -3.286 129.279  0.00  0.00    +0.008 C 
ATOM     25  C   LIG A   1      -7.679  -0.650 129.746  0.00  0.00    +0.008 C 
ATOM     26  C   LIG A   1      -3.482   2.208 134.212  0.00  0.00    +0.013 C 
ATOM     27  C   LIG A   1      -5.231   5.058 134.133  0.00  0.00    +0.012 C 
ATOM     28  C   LIG A   1      -4.913   6.884 131.454  0.00  0.00    +0.014 C 
ENDROOT
BRANCH  18  29
ATOM     29  C   LIG A   1      -4.582  -1.219 129.779  0.00  0.00    +0.311 C 
ATOM     30  O   LIG A   1      -4.679  -0.011 129.707  0.00  0.00    -0.250 OA
BRANCH  29  31
ATOM     31  O   LIG A   1      -4.036  -1.897 128.743  0.00  0.00    -0.480 OA
ATOM     32  H   LIG A   1      -3.167  -2.307 128.877  0.00  0.00    +0.295 HD
ENDBRANCH  29  31
ENDBRANCH  18  29
BRANCH  15  33
ATOM     33  C   LIG A   1      -4.970  -0.274 134.648  0.00  0.00    +0.316 C 
ATOM     34  O   LIG A   1      -5.977  -0.218 135.338  0.00  0.00    -0.250 OA
BRANCH  33  35
ATOM     35  O   LIG A   1      -3.880  -0.872 135.178  0.00  0.00    -0.480 OA
ATOM     36  H   LIG A   1      -3.144  -0.304 134.866  0.00  0.00    +0.295 HD
ENDBRANCH  33  35
ENDBRANCH  15  33
BRANCH   3  37
ATOM     37  O   LIG A   1      -7.934   4.949 130.199  0.00  0.00    -0.345 OA
BRANCH  37  38
ATOM     38  C   LIG A   1      -9.299   5.141 129.814  0.00  0.00    +0.282 C 
ATOM     39  O   LIG A   1      -9.328   6.341 129.014  0.00  0.00    -0.341 OA
ATOM     40  C   LIG A   1     -10.627   6.671 128.519  0.00  0.00    +0.178 C 
ATOM     41  C   LIG A   1     -11.573   6.976 129.689  0.00  0.00    +0.177 C 
ATOM     42  C   LIG A   1     -11.630   5.753 130.599  0.00  0.00    +0.179 C 
ATOM     43  C   LIG A   1     -10.245   5.272 131.028  0.00  0.00    +0.201 C 
BRANCH  43  44
ATOM     44  O   LIG A   1     -10.436   4.013 131.703  0.00  0.00    -0.384 OA
ATOM     45  H   LIG A   1     -10.536   4.248 132.647  0.00  0.00    +0.210 HD
ENDBRANCH  43  44
BRANCH  42  46
ATOM     46  O   LIG A   1     -12.408   6.043 131.775  0.00  0.00    -0.386 OA
ATOM     47  H   LIG A   1     -13.023   5.286 131.857  0.00  0.00    +0.210 HD
ENDBRANCH  42  46
BRANCH  41  48
ATOM     48  O   LIG A   1     -12.917   7.259 129.275  0.00  0.00    -0.387 OA
ATOM     49  H   LIG A   1     -13.508   6.919 129.984  0.00  0.00    +0.210 HD
ENDBRANCH  41  48
BRANCH  40  50
ATOM     50  C   LIG A   1     -10.502   7.872 127.569  0.00  0.00    +0.190 C 
BRANCH  50  51
ATOM     51  O   LIG A   1     -11.194   9.006 128.094  0.00  0.00    -0.392 OA
ATOM     52  H   LIG A   1     -10.681   9.792 127.827  0.00  0.00    +0.209 HD
ENDBRANCH  50  51
ENDBRANCH  40  50
ENDBRANCH  37  38
ENDBRANCH   3  37
TORSDOF 11
ENDMDL
MODEL 5
REMARK VINA RESULT:      -8.9      3.012      8.387
REMARK  Name = NuBBE_316
REMARK  17 active torsions:
REMARK  status: ('A' for Active; 'I' for Inactive)
REMARK    1  A    between atoms: C_1  and  C_2
REMARK    2  A    between atoms: C_2  and  C_57
REMARK    3  A    between atoms: C_3  and  O_40
REMARK    4  A    between atoms: C_7  and  C_39
REMARK    5  A    between atoms: C_12  and  C_38
REMARK    6  A    between atoms: C_18  and  C_35
REMARK    7  A    between atoms: C_21  and  C_32
REMARK    8  A    between atoms: C_24  and  C_31
REMARK    9  A    between atoms: C_26  and  C_30
REMARK   10  A    between atoms: C_32  and  O_33
REMARK   11  A    between atoms: C_35  and  O_36
REMARK   12  A    between atoms: O_40  and  C_41
REMARK   13  A    between atoms: C_44  and  C_55
REMARK   14  A    between atoms: C_46  and  O_54
REMARK   15  A    between atoms: C_48  and  O_53
REMARK   16  A    between atoms: C_50  and  O_52
REMARK   17  A    between atoms: C_55  and  O_56
REMARK                            x       y       z     vdW  Elec       q    Type
REMARK                         _______ _______ _______ _____ _____    ______ ____
ROOT
ATOM      1  C   LIG A   1      -8.409  -2.631 129.902  0.00  0.00    +0.014 C 
ATOM      2  C   LIG A   1      -6.970  -2.334 129.391  0.00  0.00    -0.005 C 
ATOM      3  C   LIG A   1      -7.046  -1.941 127.877  0.00  0.00    +0.127 C 
ATOM      4  C   LIG A   1      -5.642  -1.611 127.348  0.00  0.00    +0.033 C 
ATOM      5  C   LIG A   1      -4.994  -0.439 128.095  0.00  0.00    +0.010 C 
ATOM      6  C   LIG A   1      -4.981  -0.558 129.671  0.00  0.00    -0.025 C 
ATOM      7  C   LIG A   1      -6.368  -1.107 130.163  0.00  0.00    +0.003 C 
ATOM      8  C   LIG A   1      -6.387  -1.249 131.684  0.00  0.00    +0.005 C 
ATOM      9  C   LIG A   1      -6.290   0.129 132.321  0.00  0.00    +0.009 C 
ATOM     10  C   LIG A   1      -5.030   0.971 131.980  0.00  0.00    -0.009 C 
ATOM     11  C   LIG A   1      -4.714   0.871 130.405  0.00  0.00    +0.006 C 
ATOM     12  C   LIG A   1      -5.388   1.974 129.574  0.00  0.00    +0.031 C 
ATOM     13  C   LIG A   1      -5.976   3.151 130.223  0.00  0.00    -0.026 C 
ATOM     14  C   LIG A   1      -6.094   3.370 131.538  0.00  0.00    -0.052 C 
ATOM     15  C   LIG A   1      -5.247   2.532 132.508  0.00  0.00    +0.094 C 
ATOM     16  C   LIG A   1      -5.822   2.576 133.974  0.00  0.00    +0.024 C 
ATOM     17  C   LIG A   1      -6.539   3.869 134.409  0.00  0.00    +0.020 C 
ATOM     18  C   LIG A   1      -7.646   4.307 133.429  0.00  0.00    +0.074 C 
ATOM     19  C   LIG A   1      -6.995   4.517 132.026  0.00  0.00    +0.036 C 
ATOM     20  C   LIG A   1      -8.043   5.067 130.973  0.00  0.00    -0.003 C 
ATOM     21  C   LIG A   1      -8.775   6.336 131.480  0.00  0.00    -0.011 C 
ATOM     22  C   LIG A   1      -9.298   6.191 132.910  0.00  0.00    +0.004 C 
ATOM     23  C   LIG A   1      -8.206   5.692 133.858  0.00  0.00    +0.019 C 
ATOM     24  C   LIG A   1      -9.900   6.784 130.539  0.00  0.00    +0.008 C 
ATOM     25  C   LIG A   1      -9.019   4.006 130.422  0.00  0.00    +0.008 C 
ATOM     26  C   LIG A   1      -3.858   0.333 132.787  0.00  0.00    +0.013 C 
ATOM     27  C   LIG A   1      -3.783  -1.490 129.984  0.00  0.00    +0.012 C 
ATOM     28  C   LIG A   1      -6.189  -3.651 129.590  0.00  0.00    +0.014 C 
ENDROOT
BRANCH  18  29
ATOM     29  C   LIG A   1      -8.743   3.212 133.457  0.00  0.00    +0.311 C 
ATOM     30  O   LIG A   1      -8.583   2.066 133.092  0.00  0.00    -0.250 OA
BRANCH  29  31
ATOM     31  O   LIG A   1      -9.929   3.567 134.004  0.00  0.00    -0.480 OA
ATOM     32  H   LIG A   1     -10.740   3.282 133.554  0.00  0.00    +0.295 HD
ENDBRANCH  29  31
ENDBRANCH  18  29
BRANCH  15  33
ATOM     33  C   LIG A   1      -3.861   3.245 132.502  0.00  0.00    +0.316 C 
ATOM     34  O   LIG A   1      -3.283   3.742 131.546  0.00  0.00    -0.250 OA
BRANCH  33  35
ATOM     35  O   LIG A   1      -3.284   3.371 133.717  0.00  0.00    -0.480 OA
ATOM     36  H   LIG A   1      -2.329   3.271 133.519  0.00  0.00    +0.295 HD
ENDBRANCH  33  35
ENDBRANCH  15  33
BRANCH   3  37
ATOM     37  O   LIG A   1      -7.953  -0.827 127.755  0.00  0.00    -0.345 OA
BRANCH  37  38
ATOM     38  C   LIG A   1      -7.951  -0.066 126.543  0.00  0.00    +0.282 C 
ATOM     39  O   LIG A   1      -7.699   1.302 126.926  0.00  0.00    -0.341 OA
ATOM     40  C   LIG A   1      -7.639   2.206 125.821  0.00  0.00    +0.178 C 
ATOM     41  C   LIG A   1      -8.999   2.259 125.111  0.00  0.00    +0.177 C 
ATOM     42  C   LIG A   1      -9.358   0.852 124.645  0.00  0.00    +0.179 C 
ATOM     43  C   LIG A   1      -9.283  -0.179 125.770  0.00  0.00    +0.201 C 
BRANCH  43  44
ATOM     44  O   LIG A   1      -9.444  -1.473 125.157  0.00  0.00    -0.384 OA
ATOM     45  H   LIG A   1      -9.645  -1.282 124.219  0.00  0.00    +0.210 HD
ENDBRANCH  43  44
BRANCH  42  46
ATOM     46  O   LIG A   1     -10.684   0.836 124.086  0.00  0.00    -0.386 OA
ATOM     47  H   LIG A   1     -10.611   1.359 123.261  0.00  0.00    +0.210 HD
ENDBRANCH  42  46
BRANCH  41  48
ATOM     48  O   LIG A   1      -9.002   3.103 123.951  0.00  0.00    -0.387 OA
ATOM     49  H   LIG A   1      -8.472   2.640 123.265  0.00  0.00    +0.210 HD
ENDBRANCH  41  48
BRANCH  40  50
ATOM     50  C   LIG A   1      -7.221   3.591 126.340  0.00  0.00    +0.190 C 
BRANCH  50  51
ATOM     51  O   LIG A   1      -8.370   4.390 126.630  0.00  0.00    -0.392 OA
ATOM     52  H   LIG A   1      -9.114   3.770 126.751  0.00  0.00    +0.209 HD
ENDBRANCH  50  51
ENDBRANCH  40  50
ENDBRANCH  37  38
ENDBRANCH   3  37
TORSDOF 11
ENDMDL
MODEL 6
REMARK VINA RESULT:      -8.8      2.762      8.146
REMARK  Name = NuBBE_316
REMARK  17 active torsions:
REMARK  status: ('A' for Active; 'I' for Inactive)
REMARK    1  A    between atoms: C_1  and  C_2
REMARK    2  A    between atoms: C_2  and  C_57
REMARK    3  A    between atoms: C_3  and  O_40
REMARK    4  A    between atoms: C_7  and  C_39
REMARK    5  A    between atoms: C_12  and  C_38
REMARK    6  A    between atoms: C_18  and  C_35
REMARK    7  A    between atoms: C_21  and  C_32
REMARK    8  A    between atoms: C_24  and  C_31
REMARK    9  A    between atoms: C_26  and  C_30
REMARK   10  A    between atoms: C_32  and  O_33
REMARK   11  A    between atoms: C_35  and  O_36
REMARK   12  A    between atoms: O_40  and  C_41
REMARK   13  A    between atoms: C_44  and  C_55
REMARK   14  A    between atoms: C_46  and  O_54
REMARK   15  A    between atoms: C_48  and  O_53
REMARK   16  A    between atoms: C_50  and  O_52
REMARK   17  A    between atoms: C_55  and  O_56
REMARK                            x       y       z     vdW  Elec       q    Type
REMARK                         _______ _______ _______ _____ _____    ______ ____
ROOT
ATOM      1  C   LIG A   1      -7.595  -3.073 131.310  0.00  0.00    +0.014 C 
ATOM      2  C   LIG A   1      -6.080  -2.812 131.071  0.00  0.00    -0.005 C 
ATOM      3  C   LIG A   1      -5.828  -2.703 129.529  0.00  0.00    +0.127 C 
ATOM      4  C   LIG A   1      -4.345  -2.413 129.258  0.00  0.00    +0.033 C 
ATOM      5  C   LIG A   1      -3.878  -1.098 129.893  0.00  0.00    +0.010 C 
ATOM      6  C   LIG A   1      -4.206  -0.929 131.430  0.00  0.00    -0.025 C 
ATOM      7  C   LIG A   1      -5.665  -1.440 131.710  0.00  0.00    +0.003 C 
ATOM      8  C   LIG A   1      -6.013  -1.305 133.191  0.00  0.00    +0.005 C 
ATOM      9  C   LIG A   1      -6.060   0.169 133.567  0.00  0.00    +0.009 C 
ATOM     10  C   LIG A   1      -4.759   0.990 133.350  0.00  0.00    -0.009 C 
ATOM     11  C   LIG A   1      -4.109   0.620 131.924  0.00  0.00    +0.006 C 
ATOM     12  C   LIG A   1      -4.591   1.524 130.779  0.00  0.00    +0.031 C 
ATOM     13  C   LIG A   1      -5.311   2.772 131.057  0.00  0.00    -0.026 C 
ATOM     14  C   LIG A   1      -5.711   3.220 132.253  0.00  0.00    -0.052 C 
ATOM     15  C   LIG A   1      -5.092   2.610 133.519  0.00  0.00    +0.094 C 
ATOM     16  C   LIG A   1      -5.970   2.894 134.795  0.00  0.00    +0.024 C 
ATOM     17  C   LIG A   1      -6.770   4.211 134.819  0.00  0.00    +0.020 C 
ATOM     18  C   LIG A   1      -7.640   4.415 133.562  0.00  0.00    +0.074 C 
ATOM     19  C   LIG A   1      -6.700   4.396 132.316  0.00  0.00    +0.036 C 
ATOM     20  C   LIG A   1      -7.498   4.699 130.981  0.00  0.00    -0.003 C 
ATOM     21  C   LIG A   1      -8.326   6.006 131.075  0.00  0.00    -0.011 C 
ATOM     22  C   LIG A   1      -9.147   6.100 132.363  0.00  0.00    +0.004 C 
ATOM     23  C   LIG A   1      -8.284   5.829 133.597  0.00  0.00    +0.019 C 
ATOM     24  C   LIG A   1      -9.222   6.226 129.850  0.00  0.00    +0.008 C 
ATOM     25  C   LIG A   1      -8.327   3.515 130.443  0.00  0.00    +0.008 C 
ATOM     26  C   LIG A   1      -3.789   0.560 134.492  0.00  0.00    +0.013 C 
ATOM     27  C   LIG A   1      -3.101  -1.735 132.158  0.00  0.00    +0.012 C 
ATOM     28  C   LIG A   1      -5.357  -4.035 131.672  0.00  0.00    +0.014 C 
ENDROOT
BRANCH  18  29
ATOM     29  C   LIG A   1      -8.713   3.297 133.560  0.00  0.00    +0.311 C 
ATOM     30  O   LIG A   1      -8.503   2.140 133.256  0.00  0.00    -0.250 OA
BRANCH  29  31
ATOM     31  O   LIG A   1      -9.941   3.645 134.009  0.00  0.00    -0.480 OA
ATOM     32  H   LIG A   1     -10.480   4.227 133.452  0.00  0.00    +0.295 HD
ENDBRANCH  29  31
ENDBRANCH  18  29
BRANCH  15  33
ATOM     33  C   LIG A   1      -3.740   3.370 133.675  0.00  0.00    +0.316 C 
ATOM     34  O   LIG A   1      -2.985   3.735 132.785  0.00  0.00    -0.250 OA
BRANCH  33  35
ATOM     35  O   LIG A   1      -3.423   3.707 134.944  0.00  0.00    -0.480 OA
ATOM     36  H   LIG A   1      -4.049   4.434 135.142  0.00  0.00    +0.295 HD
ENDBRANCH  33  35
ENDBRANCH  15  33
BRANCH   3  37
ATOM     37  O   LIG A   1      -6.691  -1.671 129.012  0.00  0.00    -0.345 OA
BRANCH  37  38
ATOM     38  C   LIG A   1      -7.067  -1.713 127.631  0.00  0.00    +0.282 C 
ATOM     39  O   LIG A   1      -7.176  -0.341 127.201  0.00  0.00    -0.341 OA
ATOM     40  C   LIG A   1      -7.524  -0.197 125.822  0.00  0.00    +0.178 C 
ATOM     41  C   LIG A   1      -8.921  -0.783 125.569  0.00  0.00    +0.177 C 
ATOM     42  C   LIG A   1      -8.911  -2.253 125.979  0.00  0.00    +0.179 C 
ATOM     43  C   LIG A   1      -8.396  -2.465 127.402  0.00  0.00    +0.201 C 
BRANCH  43  44
ATOM     44  O   LIG A   1      -8.250  -3.887 127.581  0.00  0.00    -0.384 OA
ATOM     45  H   LIG A   1      -7.397  -4.106 127.155  0.00  0.00    +0.210 HD
ENDBRANCH  43  44
BRANCH  42  46
ATOM     46  O   LIG A   1     -10.235  -2.807 125.875  0.00  0.00    -0.386 OA
ATOM     47  H   LIG A   1     -10.092  -3.760 125.708  0.00  0.00    +0.210 HD
ENDBRANCH  42  46
BRANCH  41  48
ATOM     48  O   LIG A   1      -9.318  -0.731 124.192  0.00  0.00    -0.387 OA
ATOM     49  H   LIG A   1      -9.373  -1.661 123.879  0.00  0.00    +0.210 HD
ENDBRANCH  41  48
BRANCH  40  50
ATOM     50  C   LIG A   1      -7.465   1.293 125.451  0.00  0.00    +0.190 C 
BRANCH  50  51
ATOM     51  O   LIG A   1      -7.353   1.459 124.037  0.00  0.00    -0.392 OA
ATOM     52  H   LIG A   1      -6.564   2.011 123.884  0.00  0.00    +0.209 HD
ENDBRANCH  50  51
ENDBRANCH  40  50
ENDBRANCH  37  38
ENDBRANCH   3  37
TORSDOF 11
ENDMDL
MODEL 7
REMARK VINA RESULT:      -8.7      1.106      1.655
REMARK  Name = NuBBE_316
REMARK  17 active torsions:
REMARK  status: ('A' for Active; 'I' for Inactive)
REMARK    1  A    between atoms: C_1  and  C_2
REMARK    2  A    between atoms: C_2  and  C_57
REMARK    3  A    between atoms: C_3  and  O_40
REMARK    4  A    between atoms: C_7  and  C_39
REMARK    5  A    between atoms: C_12  and  C_38
REMARK    6  A    between atoms: C_18  and  C_35
REMARK    7  A    between atoms: C_21  and  C_32
REMARK    8  A    between atoms: C_24  and  C_31
REMARK    9  A    between atoms: C_26  and  C_30
REMARK   10  A    between atoms: C_32  and  O_33
REMARK   11  A    between atoms: C_35  and  O_36
REMARK   12  A    between atoms: O_40  and  C_41
REMARK   13  A    between atoms: C_44  and  C_55
REMARK   14  A    between atoms: C_46  and  O_54
REMARK   15  A    between atoms: C_48  and  O_53
REMARK   16  A    between atoms: C_50  and  O_52
REMARK   17  A    between atoms: C_55  and  O_56
REMARK                            x       y       z     vdW  Elec       q    Type
REMARK                         _______ _______ _______ _____ _____    ______ ____
ROOT
ATOM      1  C   LIG A   1      -8.392  -0.039 131.992  0.00  0.00    +0.014 C 
ATOM      2  C   LIG A   1      -7.385   1.138 131.847  0.00  0.00    -0.005 C 
ATOM      3  C   LIG A   1      -5.975   0.655 132.329  0.00  0.00    +0.127 C 
ATOM      4  C   LIG A   1      -4.949   1.785 132.169  0.00  0.00    +0.033 C 
ATOM      5  C   LIG A   1      -4.803   2.245 130.713  0.00  0.00    +0.010 C 
ATOM      6  C   LIG A   1      -6.153   2.610 129.975  0.00  0.00    -0.025 C 
ATOM      7  C   LIG A   1      -7.248   1.545 130.337  0.00  0.00    +0.003 C 
ATOM      8  C   LIG A   1      -8.573   1.875 129.651  0.00  0.00    +0.005 C 
ATOM      9  C   LIG A   1      -8.410   1.739 128.144  0.00  0.00    +0.009 C 
ATOM     10  C   LIG A   1      -7.338   2.639 127.472  0.00  0.00    -0.009 C 
ATOM     11  C   LIG A   1      -5.991   2.641 128.355  0.00  0.00    +0.006 C 
ATOM     12  C   LIG A   1      -4.990   1.549 127.948  0.00  0.00    +0.031 C 
ATOM     13  C   LIG A   1      -5.145   0.820 126.684  0.00  0.00    -0.026 C 
ATOM     14  C   LIG A   1      -6.159   0.921 125.817  0.00  0.00    -0.052 C 
ATOM     15  C   LIG A   1      -7.094   2.136 125.906  0.00  0.00    +0.094 C 
ATOM     16  C   LIG A   1      -8.457   1.883 125.158  0.00  0.00    +0.024 C 
ATOM     17  C   LIG A   1      -8.420   0.958 123.925  0.00  0.00    +0.020 C 
ATOM     18  C   LIG A   1      -7.747  -0.401 124.206  0.00  0.00    +0.074 C 
ATOM     19  C   LIG A   1      -6.292  -0.127 124.699  0.00  0.00    +0.036 C 
ATOM     20  C   LIG A   1      -5.488  -1.474 124.918  0.00  0.00    -0.003 C 
ATOM     21  C   LIG A   1      -5.526  -2.391 123.668  0.00  0.00    -0.011 C 
ATOM     22  C   LIG A   1      -6.934  -2.555 123.092  0.00  0.00    +0.004 C 
ATOM     23  C   LIG A   1      -7.614  -1.201 122.881  0.00  0.00    +0.019 C 
ATOM     24  C   LIG A   1      -4.886  -3.762 123.922  0.00  0.00    +0.008 C 
ATOM     25  C   LIG A   1      -5.843  -2.233 126.214  0.00  0.00    +0.008 C 
ATOM     26  C   LIG A   1      -7.944   4.076 127.444  0.00  0.00    +0.013 C 
ATOM     27  C   LIG A   1      -6.484   4.047 130.453  0.00  0.00    +0.012 C 
ATOM     28  C   LIG A   1      -7.935   2.257 132.756  0.00  0.00    +0.014 C 
ENDROOT
BRANCH  18  29
ATOM     29  C   LIG A   1      -8.632  -1.146 125.239  0.00  0.00    +0.311 C 
ATOM     30  O   LIG A   1      -8.522  -1.044 126.443  0.00  0.00    -0.250 OA
BRANCH  29  31
ATOM     31  O   LIG A   1      -9.641  -1.893 124.733  0.00  0.00    -0.480 OA
ATOM     32  H   LIG A   1      -9.879  -1.764 123.801  0.00  0.00    +0.295 HD
ENDBRANCH  29  31
ENDBRANCH  18  29
BRANCH  15  33
ATOM     33  C   LIG A   1      -6.320   3.258 125.150  0.00  0.00    +0.316 C 
ATOM     34  O   LIG A   1      -5.119   3.484 125.180  0.00  0.00    -0.250 OA
BRANCH  33  35
ATOM     35  O   LIG A   1      -7.079   4.011 124.324  0.00  0.00    -0.480 OA
ATOM     36  H   LIG A   1      -6.759   4.921 124.499  0.00  0.00    +0.295 HD
ENDBRANCH  33  35
ENDBRANCH  15  33
BRANCH   3  37
ATOM     37  O   LIG A   1      -5.625  -0.515 131.564  0.00  0.00    -0.345 OA
BRANCH  37  38
ATOM     38  C   LIG A   1      -5.177  -1.685 132.258  0.00  0.00    +0.282 C 
ATOM     39  O   LIG A   1      -5.853  -1.682 133.531  0.00  0.00    -0.341 OA
ATOM     40  C   LIG A   1      -5.537  -2.808 134.352  0.00  0.00    +0.178 C 
ATOM     41  C   LIG A   1      -4.045  -2.789 134.718  0.00  0.00    +0.177 C 
ATOM     42  C   LIG A   1      -3.230  -2.807 133.429  0.00  0.00    +0.179 C 
ATOM     43  C   LIG A   1      -3.645  -1.707 132.453  0.00  0.00    +0.201 C 
BRANCH  43  44
ATOM     44  O   LIG A   1      -2.947  -1.965 131.220  0.00  0.00    -0.384 OA
ATOM     45  H   LIG A   1      -2.907  -1.098 130.768  0.00  0.00    +0.210 HD
ENDBRANCH  43  44
BRANCH  42  46
ATOM     46  O   LIG A   1      -1.829  -2.662 133.725  0.00  0.00    -0.386 OA
ATOM     47  H   LIG A   1      -1.785  -2.621 134.703  0.00  0.00    +0.210 HD
ENDBRANCH  42  46
BRANCH  41  48
ATOM     48  O   LIG A   1      -3.636  -3.923 135.494  0.00  0.00    -0.387 OA
ATOM     49  H   LIG A   1      -4.385  -4.140 136.093  0.00  0.00    +0.210 HD
ENDBRANCH  41  48
BRANCH  40  50
ATOM     50  C   LIG A   1      -6.423  -2.768 135.607  0.00  0.00    +0.190 C 
BRANCH  50  51
ATOM     51  O   LIG A   1      -6.417  -4.033 136.271  0.00  0.00    -0.392 OA
ATOM     52  H   LIG A   1      -5.933  -3.903 137.108  0.00  0.00    +0.209 HD
ENDBRANCH  50  51
ENDBRANCH  40  50
ENDBRANCH  37  38
ENDBRANCH   3  37
TORSDOF 11
ENDMDL
MODEL 8
REMARK VINA RESULT:      -8.6      2.158      6.179
REMARK  Name = NuBBE_316
REMARK  17 active torsions:
REMARK  status: ('A' for Active; 'I' for Inactive)
REMARK    1  A    between atoms: C_1  and  C_2
REMARK    2  A    between atoms: C_2  and  C_57
REMARK    3  A    between atoms: C_3  and  O_40
REMARK    4  A    between atoms: C_7  and  C_39
REMARK    5  A    between atoms: C_12  and  C_38
REMARK    6  A    between atoms: C_18  and  C_35
REMARK    7  A    between atoms: C_21  and  C_32
REMARK    8  A    between atoms: C_24  and  C_31
REMARK    9  A    between atoms: C_26  and  C_30
REMARK   10  A    between atoms: C_32  and  O_33
REMARK   11  A    between atoms: C_35  and  O_36
REMARK   12  A    between atoms: O_40  and  C_41
REMARK   13  A    between atoms: C_44  and  C_55
REMARK   14  A    between atoms: C_46  and  O_54
REMARK   15  A    between atoms: C_48  and  O_53
REMARK   16  A    between atoms: C_50  and  O_52
REMARK   17  A    between atoms: C_55  and  O_56
REMARK                            x       y       z     vdW  Elec       q    Type
REMARK                         _______ _______ _______ _____ _____    ______ ____
ROOT
ATOM      1  C   LIG A   1      -5.218  -2.550 125.466  0.00  0.00    +0.014 C 
ATOM      2  C   LIG A   1      -6.722  -2.150 125.483  0.00  0.00    -0.005 C 
ATOM      3  C   LIG A   1      -7.400  -2.802 126.736  0.00  0.00    +0.127 C 
ATOM      4  C   LIG A   1      -8.881  -2.401 126.800  0.00  0.00    +0.033 C 
ATOM      5  C   LIG A   1      -9.075  -0.884 126.910  0.00  0.00    +0.010 C 
ATOM      6  C   LIG A   1      -8.310  -0.019 125.830  0.00  0.00    -0.025 C 
ATOM      7  C   LIG A   1      -6.862  -0.594 125.632  0.00  0.00    +0.003 C 
ATOM      8  C   LIG A   1      -6.098   0.210 124.582  0.00  0.00    +0.005 C 
ATOM      9  C   LIG A   1      -5.865   1.622 125.098  0.00  0.00    +0.009 C 
ATOM     10  C   LIG A   1      -7.128   2.456 125.448  0.00  0.00    -0.009 C 
ATOM     11  C   LIG A   1      -8.178   1.546 126.260  0.00  0.00    +0.006 C 
ATOM     12  C   LIG A   1      -7.998   1.614 127.785  0.00  0.00    +0.031 C 
ATOM     13  C   LIG A   1      -7.163   2.654 128.397  0.00  0.00    -0.026 C 
ATOM     14  C   LIG A   1      -6.413   3.561 127.762  0.00  0.00    -0.052 C 
ATOM     15  C   LIG A   1      -6.674   3.828 126.271  0.00  0.00    +0.094 C 
ATOM     16  C   LIG A   1      -5.453   4.544 125.582  0.00  0.00    +0.024 C 
ATOM     17  C   LIG A   1      -4.611   5.494 126.455  0.00  0.00    +0.020 C 
ATOM     18  C   LIG A   1      -4.128   4.844 127.768  0.00  0.00    +0.074 C 
ATOM     19  C   LIG A   1      -5.385   4.376 128.566  0.00  0.00    +0.036 C 
ATOM     20  C   LIG A   1      -4.989   3.783 129.980  0.00  0.00    -0.003 C 
ATOM     21  C   LIG A   1      -4.100   4.755 130.797  0.00  0.00    -0.011 C 
ATOM     22  C   LIG A   1      -2.941   5.330 129.981  0.00  0.00    +0.004 C 
ATOM     23  C   LIG A   1      -3.426   5.911 128.652  0.00  0.00    +0.019 C 
ATOM     24  C   LIG A   1      -3.583   4.129 132.099  0.00  0.00    +0.008 C 
ATOM     25  C   LIG A   1      -4.414   2.352 129.941  0.00  0.00    +0.008 C 
ATOM     26  C   LIG A   1      -7.752   2.880 124.084  0.00  0.00    +0.013 C 
ATOM     27  C   LIG A   1      -9.202  -0.095 124.564  0.00  0.00    +0.012 C 
ATOM     28  C   LIG A   1      -7.307  -2.716 124.172  0.00  0.00    +0.014 C 
ENDROOT
BRANCH  18  29
ATOM     29  C   LIG A   1      -3.162   3.694 127.382  0.00  0.00    +0.311 C 
ATOM     30  O   LIG A   1      -3.490   2.533 127.252  0.00  0.00    -0.250 OA
BRANCH  29  31
ATOM     31  O   LIG A   1      -1.888   4.053 127.100  0.00  0.00    -0.480 OA
ATOM     32  H   LIG A   1      -1.714   4.984 126.890  0.00  0.00    +0.295 HD
ENDBRANCH  29  31
ENDBRANCH  18  29
BRANCH  15  33
ATOM     33  C   LIG A   1      -7.882   4.813 126.277  0.00  0.00    +0.316 C 
ATOM     34  O   LIG A   1      -8.742   4.932 127.137  0.00  0.00    -0.250 OA
BRANCH  33  35
ATOM     35  O   LIG A   1      -7.922   5.666 125.230  0.00  0.00    -0.480 OA
ATOM     36  H   LIG A   1      -8.748   5.410 124.768  0.00  0.00    +0.295 HD
ENDBRANCH  33  35
ENDBRANCH  15  33
BRANCH   3  37
ATOM     37  O   LIG A   1      -6.668  -2.380 127.903  0.00  0.00    -0.345 OA
BRANCH  37  38
ATOM     38  C   LIG A   1      -7.293  -2.488 129.186  0.00  0.00    +0.282 C 
ATOM     39  O   LIG A   1      -7.558  -1.138 129.621  0.00  0.00    -0.341 OA
ATOM     40  C   LIG A   1      -8.212  -1.061 130.890  0.00  0.00    +0.178 C 
ATOM     41  C   LIG A   1      -7.303  -1.637 131.985  0.00  0.00    +0.177 C 
ATOM     42  C   LIG A   1      -6.971  -3.083 131.629  0.00  0.00    +0.179 C 
ATOM     43  C   LIG A   1      -6.411  -3.229 130.215  0.00  0.00    +0.201 C 
BRANCH  43  44
ATOM     44  O   LIG A   1      -6.335  -4.641 129.944  0.00  0.00    -0.384 OA
ATOM     45  H   LIG A   1      -5.504  -4.756 129.442  0.00  0.00    +0.210 HD
ENDBRANCH  43  44
BRANCH  42  46
ATOM     46  O   LIG A   1      -6.019  -3.619 132.565  0.00  0.00    -0.386 OA
ATOM     47  H   LIG A   1      -6.264  -3.220 133.425  0.00  0.00    +0.210 HD
ENDBRANCH  42  46
BRANCH  41  48
ATOM     48  O   LIG A   1      -7.914  -1.650 133.282  0.00  0.00    -0.387 OA
ATOM     49  H   LIG A   1      -7.778  -0.755 133.667  0.00  0.00    +0.210 HD
ENDBRANCH  41  48
BRANCH  40  50
ATOM     50  C   LIG A   1      -8.570   0.407 131.171  0.00  0.00    +0.190 C 
BRANCH  50  51
ATOM     51  O   LIG A   1      -9.785   0.497 131.918  0.00  0.00    -0.392 OA
ATOM     52  H   LIG A   1     -10.218  -0.375 131.848  0.00  0.00    +0.209 HD
ENDBRANCH  50  51
ENDBRANCH  40  50
ENDBRANCH  37  38
ENDBRANCH   3  37
TORSDOF 11
ENDMDL
MODEL 9
REMARK VINA RESULT:      -8.5      4.121      8.242
REMARK  Name = NuBBE_316
REMARK  17 active torsions:
REMARK  status: ('A' for Active; 'I' for Inactive)
REMARK    1  A    between atoms: C_1  and  C_2
REMARK    2  A    between atoms: C_2  and  C_57
REMARK    3  A    between atoms: C_3  and  O_40
REMARK    4  A    between atoms: C_7  and  C_39
REMARK    5  A    between atoms: C_12  and  C_38
REMARK    6  A    between atoms: C_18  and  C_35
REMARK    7  A    between atoms: C_21  and  C_32
REMARK    8  A    between atoms: C_24  and  C_31
REMARK    9  A    between atoms: C_26  and  C_30
REMARK   10  A    between atoms: C_32  and  O_33
REMARK   11  A    between atoms: C_35  and  O_36
REMARK   12  A    between atoms: O_40  and  C_41
REMARK   13  A    between atoms: C_44  and  C_55
REMARK   14  A    between atoms: C_46  and  O_54
REMARK   15  A    between atoms: C_48  and  O_53
REMARK   16  A    between atoms: C_50  and  O_52
REMARK   17  A    between atoms: C_55  and  O_56
REMARK                            x       y       z     vdW  Elec       q    Type
REMARK                         _______ _______ _______ _____ _____    ______ ____
ROOT
ATOM      1  C   LIG A   1      -2.855   4.442 131.437  0.00  0.00    +0.014 C 
ATOM      2  C   LIG A   1      -3.638   4.541 132.778  0.00  0.00    -0.005 C 
ATOM      3  C   LIG A   1      -5.003   5.261 132.510  0.00  0.00    +0.127 C 
ATOM      4  C   LIG A   1      -5.816   5.348 133.810  0.00  0.00    +0.033 C 
ATOM      5  C   LIG A   1      -6.133   3.968 134.398  0.00  0.00    +0.010 C 
ATOM      6  C   LIG A   1      -4.893   3.003 134.580  0.00  0.00    -0.025 C 
ATOM      7  C   LIG A   1      -3.965   3.104 133.317  0.00  0.00    +0.003 C 
ATOM      8  C   LIG A   1      -2.747   2.194 133.465  0.00  0.00    +0.005 C 
ATOM      9  C   LIG A   1      -3.199   0.741 133.475  0.00  0.00    +0.009 C 
ATOM     10  C   LIG A   1      -4.190   0.324 134.596  0.00  0.00    -0.009 C 
ATOM     11  C   LIG A   1      -5.333   1.446 134.763  0.00  0.00    +0.006 C 
ATOM     12  C   LIG A   1      -6.574   1.190 133.894  0.00  0.00    +0.031 C 
ATOM     13  C   LIG A   1      -6.785  -0.111 133.248  0.00  0.00    -0.026 C 
ATOM     14  C   LIG A   1      -5.942  -1.150 133.239  0.00  0.00    -0.052 C 
ATOM     15  C   LIG A   1      -4.798  -1.187 134.264  0.00  0.00    +0.094 C 
ATOM     16  C   LIG A   1      -3.662  -2.190 133.837  0.00  0.00    +0.024 C 
ATOM     17  C   LIG A   1      -4.088  -3.433 133.030  0.00  0.00    +0.020 C 
ATOM     18  C   LIG A   1      -4.937  -3.088 131.790  0.00  0.00    +0.074 C 
ATOM     19  C   LIG A   1      -6.206  -2.317 132.272  0.00  0.00    +0.036 C 
ATOM     20  C   LIG A   1      -7.191  -2.008 131.071  0.00  0.00    -0.003 C 
ATOM     21  C   LIG A   1      -7.547  -3.280 130.260  0.00  0.00    -0.011 C 
ATOM     22  C   LIG A   1      -6.319  -4.119 129.900  0.00  0.00    +0.004 C 
ATOM     23  C   LIG A   1      -5.451  -4.397 131.128  0.00  0.00    +0.019 C 
ATOM     24  C   LIG A   1      -8.372  -2.969 129.005  0.00  0.00    +0.008 C 
ATOM     25  C   LIG A   1      -6.756  -0.836 130.166  0.00  0.00    +0.008 C 
ATOM     26  C   LIG A   1      -3.345   0.243 135.904  0.00  0.00    +0.013 C 
ATOM     27  C   LIG A   1      -4.223   3.471 135.898  0.00  0.00    +0.012 C 
ATOM     28  C   LIG A   1      -2.738   5.377 133.713  0.00  0.00    +0.014 C 
ENDROOT
BRANCH  18  29
ATOM     29  C   LIG A   1      -4.034  -2.276 130.826  0.00  0.00    +0.311 C 
ATOM     30  O   LIG A   1      -4.069  -1.069 130.701  0.00  0.00    -0.250 OA
BRANCH  29  31
ATOM     31  O   LIG A   1      -3.097  -2.979 130.148  0.00  0.00    -0.480 OA
ATOM     32  H   LIG A   1      -2.982  -2.789 129.204  0.00  0.00    +0.295 HD
ENDBRANCH  29  31
ENDBRANCH  18  29
BRANCH  15  33
ATOM     33  C   LIG A   1      -5.475  -1.734 135.557  0.00  0.00    +0.316 C 
ATOM     34  O   LIG A   1      -6.546  -1.393 136.037  0.00  0.00    -0.250 OA
BRANCH  33  35
ATOM     35  O   LIG A   1      -4.811  -2.743 136.160  0.00  0.00    -0.480 OA
ATOM     36  H   LIG A   1      -4.410  -3.225 135.406  0.00  0.00    +0.295 HD
ENDBRANCH  33  35
ENDBRANCH  15  33
BRANCH   3  37
ATOM     37  O   LIG A   1      -5.694   4.526 131.480  0.00  0.00    -0.345 OA
BRANCH  37  38
ATOM     38  C   LIG A   1      -7.121   4.612 131.411  0.00  0.00    +0.282 C 
ATOM     39  O   LIG A   1      -7.605   3.254 131.363  0.00  0.00    -0.341 OA
ATOM     40  C   LIG A   1      -9.030   3.153 131.317  0.00  0.00    +0.178 C 
ATOM     41  C   LIG A   1      -9.559   3.787 130.022  0.00  0.00    +0.177 C 
ATOM     42  C   LIG A   1      -9.114   5.245 129.979  0.00  0.00    +0.179 C 
ATOM     43  C   LIG A   1      -7.608   5.409 130.181  0.00  0.00    +0.201 C 
BRANCH  43  44
ATOM     44  O   LIG A   1      -7.360   6.821 130.319  0.00  0.00    -0.384 OA
ATOM     45  H   LIG A   1      -6.694   7.027 129.632  0.00  0.00    +0.210 HD
ENDBRANCH  43  44
BRANCH  42  46
ATOM     46  O   LIG A   1      -9.482   5.841 128.721  0.00  0.00    -0.386 OA
ATOM     47  H   LIG A   1     -10.456   5.745 128.678  0.00  0.00    +0.210 HD
ENDBRANCH  42  46
BRANCH  41  48
ATOM     48  O   LIG A   1     -10.990   3.779 129.929  0.00  0.00    -0.387 OA
ATOM     49  H   LIG A   1     -11.282   4.716 129.989  0.00  0.00    +0.210 HD
ENDBRANCH  41  48
BRANCH  40  50
ATOM     50  C   LIG A   1      -9.422   1.671 131.418  0.00  0.00    +0.190 C 
BRANCH  50  51
ATOM     51  O   LIG A   1     -10.685   1.526 132.069  0.00  0.00    -0.392 OA
ATOM     52  H   LIG A   1     -10.785   0.576 132.271  0.00  0.00    +0.209 HD
ENDBRANCH  50  51
ENDBRANCH  40  50
ENDBRANCH  37  38
ENDBRANCH   3  37
TORSDOF 11
ENDMDL
