MODEL 1
REMARK VINA RESULT:      -6.9      0.000      0.000
REMARK  Name = NuBBE_1837
REMARK  13 active torsions:
REMARK  status: ('A' for Active; 'I' for Inactive)
REMARK    1  A    between atoms: C_1  and  C_2
REMARK    2  A    between atoms: C_1  and  C_4
REMARK    3  A    between atoms: C_7  and  C_22
REMARK    4  A    between atoms: C_8  and  C_10
REMARK    5  A    between atoms: C_12  and  O_13
REMARK    6  A    between atoms: O_13  and  C_14
REMARK    7  A    between atoms: C_15  and  O_20
REMARK    8  A    between atoms: C_16  and  O_18
REMARK    9  A    between atoms: O_18  and  C_19
REMARK   10  A    between atoms: O_20  and  C_21
REMARK   11  A    between atoms: C_24  and  O_27
REMARK   12  A    between atoms: C_25  and  O_26
REMARK   13  A    between atoms: O_27  and  C_28
REMARK                            x       y       z     vdW  Elec       q    Type
REMARK                         _______ _______ _______ _____ _____    ______ ____
ROOT
ATOM      1  C   LIG A   1      -8.685   1.333 123.560  0.00  0.00    +0.044 A 
ATOM      2  C   LIG A   1      -7.685   1.150 124.521  0.00  0.00    +0.143 A 
ATOM      3  C   LIG A   1      -7.263  -0.070 125.020  0.00  0.00    +0.028 A 
ATOM      4  C   LIG A   1      -6.292   0.202 126.034  0.00  0.00    +0.003 A 
ATOM      5  C   LIG A   1      -6.191   1.583 126.093  0.00  0.00    +0.139 A 
ATOM      6  O   LIG A   1      -7.010   2.145 125.150  0.00  0.00    -0.454 OA
ATOM      7  C   LIG A   1      -5.613  -0.808 126.884  0.00  0.00    +0.048 C 
ATOM      8  C   LIG A   1      -7.849  -1.239 124.515  0.00  0.00    +0.061 A 
ATOM      9  C   LIG A   1      -8.917  -1.136 123.617  0.00  0.00    +0.162 A 
ATOM     10  C   LIG A   1      -9.322   0.138 123.166  0.00  0.00    +0.166 A 
ENDROOT
BRANCH   5  11
ATOM     11  C   LIG A   1      -5.467   2.554 126.909  0.00  0.00    +0.025 A 
ATOM     12  C   LIG A   1      -4.079   2.714 126.845  0.00  0.00    +0.061 A 
ATOM     13  C   LIG A   1      -3.429   3.720 127.585  0.00  0.00    +0.166 A 
ATOM     14  C   LIG A   1      -4.185   4.582 128.408  0.00  0.00    +0.203 A 
ATOM     15  C   LIG A   1      -5.569   4.387 128.523  0.00  0.00    +0.166 A 
ATOM     16  C   LIG A   1      -6.192   3.386 127.774  0.00  0.00    +0.061 A 
BRANCH  13  17
ATOM     17  O   LIG A   1      -2.066   3.749 127.384  0.00  0.00    -0.491 OA
ATOM     18  C   LIG A   1      -1.538   2.956 126.324  0.00  0.00    +0.277 C 
ENDBRANCH  13  17
BRANCH  15  19
ATOM     19  O   LIG A   1      -6.290   5.270 129.282  0.00  0.00    -0.491 OA
ATOM     20  C   LIG A   1      -6.551   4.870 130.621  0.00  0.00    +0.277 C 
ENDBRANCH  15  19
BRANCH  14  21
ATOM     21  O   LIG A   1      -3.532   5.652 128.957  0.00  0.00    -0.488 OA
ATOM     22  C   LIG A   1      -3.418   6.855 128.219  0.00  0.00    +0.277 C 
ENDBRANCH  14  21
ENDBRANCH   5  11
BRANCH  10  23
ATOM     23  O   LIG A   1     -10.436   0.259 122.371  0.00  0.00    -0.503 OA
ATOM     24  H   LIG A   1     -10.104   0.312 121.456  0.00  0.00    +0.292 HD
ENDBRANCH  10  23
BRANCH   9  25
ATOM     25  O   LIG A   1      -9.632  -2.224 123.172  0.00  0.00    -0.491 OA
ATOM     26  C   LIG A   1      -9.345  -3.461 123.832  0.00  0.00    +0.277 C 
ENDBRANCH   9  25
BRANCH   1  27
ATOM     27  C   LIG A   1      -9.099   2.689 123.052  0.00  0.00    +0.069 C 
BRANCH  27  28
ATOM     28  C   LIG A   1      -8.268   3.179 121.903  0.00  0.00    -0.030 C 
ATOM     29  C   LIG A   1      -8.784   3.674 120.749  0.00  0.00    +0.004 C 
ENDBRANCH  27  28
ENDBRANCH   1  27
TORSDOF 8
ENDMDL
MODEL 2
REMARK VINA RESULT:      -6.9      0.557      2.516
REMARK  Name = NuBBE_1837
REMARK  13 active torsions:
REMARK  status: ('A' for Active; 'I' for Inactive)
REMARK    1  A    between atoms: C_1  and  C_2
REMARK    2  A    between atoms: C_1  and  C_4
REMARK    3  A    between atoms: C_7  and  C_22
REMARK    4  A    between atoms: C_8  and  C_10
REMARK    5  A    between atoms: C_12  and  O_13
REMARK    6  A    between atoms: O_13  and  C_14
REMARK    7  A    between atoms: C_15  and  O_20
REMARK    8  A    between atoms: C_16  and  O_18
REMARK    9  A    between atoms: O_18  and  C_19
REMARK   10  A    between atoms: O_20  and  C_21
REMARK   11  A    between atoms: C_24  and  O_27
REMARK   12  A    between atoms: C_25  and  O_26
REMARK   13  A    between atoms: O_27  and  C_28
REMARK                            x       y       z     vdW  Elec       q    Type
REMARK                         _______ _______ _______ _____ _____    ______ ____
ROOT
ATOM      1  C   LIG A   1      -8.752   1.348 123.419  0.00  0.00    +0.044 A 
ATOM      2  C   LIG A   1      -7.746   1.242 124.385  0.00  0.00    +0.143 A 
ATOM      3  C   LIG A   1      -7.297   0.062 124.953  0.00  0.00    +0.028 A 
ATOM      4  C   LIG A   1      -6.328   0.413 125.945  0.00  0.00    +0.003 A 
ATOM      5  C   LIG A   1      -6.256   1.797 125.923  0.00  0.00    +0.139 A 
ATOM      6  O   LIG A   1      -7.090   2.286 124.953  0.00  0.00    -0.454 OA
ATOM      7  C   LIG A   1      -5.626  -0.531 126.850  0.00  0.00    +0.048 C 
ATOM      8  C   LIG A   1      -7.860  -1.146 124.520  0.00  0.00    +0.061 A 
ATOM      9  C   LIG A   1      -8.932  -1.118 123.622  0.00  0.00    +0.162 A 
ATOM     10  C   LIG A   1      -9.365   0.119 123.099  0.00  0.00    +0.166 A 
ENDROOT
BRANCH   5  11
ATOM     11  C   LIG A   1      -5.550   2.829 126.678  0.00  0.00    +0.025 A 
ATOM     12  C   LIG A   1      -6.176   3.627 127.641  0.00  0.00    +0.061 A 
ATOM     13  C   LIG A   1      -5.441   4.551 128.407  0.00  0.00    +0.166 A 
ATOM     14  C   LIG A   1      -4.050   4.679 128.204  0.00  0.00    +0.203 A 
ATOM     15  C   LIG A   1      -3.427   3.925 127.198  0.00  0.00    +0.166 A 
ATOM     16  C   LIG A   1      -4.177   3.011 126.454  0.00  0.00    +0.061 A 
BRANCH  13  17
ATOM     17  O   LIG A   1      -6.212   5.235 129.322  0.00  0.00    -0.491 OA
ATOM     18  C   LIG A   1      -7.455   4.653 129.703  0.00  0.00    +0.277 C 
ENDBRANCH  13  17
BRANCH  15  19
ATOM     19  O   LIG A   1      -2.069   4.024 127.057  0.00  0.00    -0.491 OA
ATOM     20  C   LIG A   1      -1.418   2.890 126.499  0.00  0.00    +0.277 C 
ENDBRANCH  15  19
BRANCH  14  21
ATOM     21  O   LIG A   1      -3.358   5.452 129.096  0.00  0.00    -0.488 OA
ATOM     22  C   LIG A   1      -2.935   4.891 130.326  0.00  0.00    +0.277 C 
ENDBRANCH  14  21
ENDBRANCH   5  11
BRANCH  10  23
ATOM     23  O   LIG A   1     -10.484   0.170 122.302  0.00  0.00    -0.503 OA
ATOM     24  H   LIG A   1     -10.191   0.561 121.460  0.00  0.00    +0.292 HD
ENDBRANCH  10  23
BRANCH   9  25
ATOM     25  O   LIG A   1      -9.626  -2.245 123.244  0.00  0.00    -0.491 OA
ATOM     26  C   LIG A   1      -9.179  -3.469 123.836  0.00  0.00    +0.277 C 
ENDBRANCH   9  25
BRANCH   1  27
ATOM     27  C   LIG A   1      -9.196   2.662 122.835  0.00  0.00    +0.069 C 
BRANCH  27  28
ATOM     28  C   LIG A   1      -8.307   3.161 121.734  0.00  0.00    -0.030 C 
ATOM     29  C   LIG A   1      -8.757   3.800 120.624  0.00  0.00    +0.004 C 
ENDBRANCH  27  28
ENDBRANCH   1  27
TORSDOF 8
ENDMDL
MODEL 3
REMARK VINA RESULT:      -6.7      4.607      6.438
REMARK  Name = NuBBE_1837
REMARK  13 active torsions:
REMARK  status: ('A' for Active; 'I' for Inactive)
REMARK    1  A    between atoms: C_1  and  C_2
REMARK    2  A    between atoms: C_1  and  C_4
REMARK    3  A    between atoms: C_7  and  C_22
REMARK    4  A    between atoms: C_8  and  C_10
REMARK    5  A    between atoms: C_12  and  O_13
REMARK    6  A    between atoms: O_13  and  C_14
REMARK    7  A    between atoms: C_15  and  O_20
REMARK    8  A    between atoms: C_16  and  O_18
REMARK    9  A    between atoms: O_18  and  C_19
REMARK   10  A    between atoms: O_20  and  C_21
REMARK   11  A    between atoms: C_24  and  O_27
REMARK   12  A    between atoms: C_25  and  O_26
REMARK   13  A    between atoms: O_27  and  C_28
REMARK                            x       y       z     vdW  Elec       q    Type
REMARK                         _______ _______ _______ _____ _____    ______ ____
ROOT
ATOM      1  C   LIG A   1      -7.996  -2.272 124.908  0.00  0.00    +0.044 A 
ATOM      2  C   LIG A   1      -7.842  -1.886 126.244  0.00  0.00    +0.143 A 
ATOM      3  C   LIG A   1      -8.222  -0.667 126.778  0.00  0.00    +0.028 A 
ATOM      4  C   LIG A   1      -7.810  -0.659 128.147  0.00  0.00    +0.003 A 
ATOM      5  C   LIG A   1      -7.192  -1.881 128.358  0.00  0.00    +0.139 A 
ATOM      6  O   LIG A   1      -7.248  -2.629 127.212  0.00  0.00    -0.454 OA
ATOM      7  C   LIG A   1      -7.956   0.475 129.095  0.00  0.00    +0.048 C 
ATOM      8  C   LIG A   1      -8.844   0.267 125.938  0.00  0.00    +0.061 A 
ATOM      9  C   LIG A   1      -8.954  -0.009 124.571  0.00  0.00    +0.162 A 
ATOM     10  C   LIG A   1      -8.521  -1.259 124.080  0.00  0.00    +0.166 A 
ENDROOT
BRANCH   5  11
ATOM     11  C   LIG A   1      -6.493  -2.533 129.462  0.00  0.00    +0.025 A 
ATOM     12  C   LIG A   1      -5.135  -2.864 129.411  0.00  0.00    +0.061 A 
ATOM     13  C   LIG A   1      -4.480  -3.414 130.529  0.00  0.00    +0.166 A 
ATOM     14  C   LIG A   1      -5.198  -3.638 131.722  0.00  0.00    +0.203 A 
ATOM     15  C   LIG A   1      -6.574  -3.364 131.760  0.00  0.00    +0.166 A 
ATOM     16  C   LIG A   1      -7.201  -2.814 130.640  0.00  0.00    +0.061 A 
BRANCH  13  17
ATOM     17  O   LIG A   1      -3.140  -3.657 130.309  0.00  0.00    -0.491 OA
ATOM     18  C   LIG A   1      -2.702  -3.763 128.958  0.00  0.00    +0.277 C 
ENDBRANCH  13  17
BRANCH  15  19
ATOM     19  O   LIG A   1      -7.239  -3.536 132.944  0.00  0.00    -0.491 OA
ATOM     20  C   LIG A   1      -7.872  -2.379 133.475  0.00  0.00    +0.277 C 
ENDBRANCH  15  19
BRANCH  14  21
ATOM     21  O   LIG A   1      -4.477  -3.997 132.828  0.00  0.00    -0.488 OA
ATOM     22  C   LIG A   1      -3.903  -2.993 133.645  0.00  0.00    +0.277 C 
ENDBRANCH  14  21
ENDBRANCH   5  11
BRANCH  10  23
ATOM     23  O   LIG A   1      -8.524  -1.500 122.727  0.00  0.00    -0.503 OA
ATOM     24  H   LIG A   1      -8.253  -0.662 122.309  0.00  0.00    +0.292 HD
ENDBRANCH  10  23
BRANCH   9  25
ATOM     25  O   LIG A   1      -9.432   0.901 123.656  0.00  0.00    -0.491 OA
ATOM     26  C   LIG A   1      -9.076   2.266 123.902  0.00  0.00    +0.277 C 
ENDBRANCH   9  25
BRANCH   1  27
ATOM     27  C   LIG A   1      -7.566  -3.617 124.387  0.00  0.00    +0.069 C 
BRANCH  27  28
ATOM     28  C   LIG A   1      -6.084  -3.737 124.184  0.00  0.00    -0.030 C 
ATOM     29  C   LIG A   1      -5.340  -2.851 123.475  0.00  0.00    +0.004 C 
ENDBRANCH  27  28
ENDBRANCH   1  27
TORSDOF 8
ENDMDL
MODEL 4
REMARK VINA RESULT:      -6.7      4.743      6.310
REMARK  Name = NuBBE_1837
REMARK  13 active torsions:
REMARK  status: ('A' for Active; 'I' for Inactive)
REMARK    1  A    between atoms: C_1  and  C_2
REMARK    2  A    between atoms: C_1  and  C_4
REMARK    3  A    between atoms: C_7  and  C_22
REMARK    4  A    between atoms: C_8  and  C_10
REMARK    5  A    between atoms: C_12  and  O_13
REMARK    6  A    between atoms: O_13  and  C_14
REMARK    7  A    between atoms: C_15  and  O_20
REMARK    8  A    between atoms: C_16  and  O_18
REMARK    9  A    between atoms: O_18  and  C_19
REMARK   10  A    between atoms: O_20  and  C_21
REMARK   11  A    between atoms: C_24  and  O_27
REMARK   12  A    between atoms: C_25  and  O_26
REMARK   13  A    between atoms: O_27  and  C_28
REMARK                            x       y       z     vdW  Elec       q    Type
REMARK                         _______ _______ _______ _____ _____    ______ ____
ROOT
ATOM      1  C   LIG A   1      -6.355  -1.392 125.836  0.00  0.00    +0.044 A 
ATOM      2  C   LIG A   1      -7.002  -2.030 126.900  0.00  0.00    +0.143 A 
ATOM      3  C   LIG A   1      -8.012  -2.969 126.781  0.00  0.00    +0.028 A 
ATOM      4  C   LIG A   1      -8.441  -3.297 128.105  0.00  0.00    +0.003 A 
ATOM      5  C   LIG A   1      -7.663  -2.523 128.952  0.00  0.00    +0.139 A 
ATOM      6  O   LIG A   1      -6.773  -1.788 128.216  0.00  0.00    -0.454 OA
ATOM      7  C   LIG A   1      -9.550  -4.218 128.459  0.00  0.00    +0.048 C 
ATOM      8  C   LIG A   1      -8.420  -3.354 125.497  0.00  0.00    +0.061 A 
ATOM      9  C   LIG A   1      -7.884  -2.698 124.384  0.00  0.00    +0.162 A 
ATOM     10  C   LIG A   1      -6.877  -1.727 124.570  0.00  0.00    +0.166 A 
ENDROOT
BRANCH   5  11
ATOM     11  C   LIG A   1      -7.585  -2.288 130.391  0.00  0.00    +0.025 A 
ATOM     12  C   LIG A   1      -7.085  -3.237 131.289  0.00  0.00    +0.061 A 
ATOM     13  C   LIG A   1      -6.947  -2.939 132.658  0.00  0.00    +0.166 A 
ATOM     14  C   LIG A   1      -7.317  -1.664 133.138  0.00  0.00    +0.203 A 
ATOM     15  C   LIG A   1      -7.876  -0.730 132.253  0.00  0.00    +0.166 A 
ATOM     16  C   LIG A   1      -7.998  -1.047 130.898  0.00  0.00    +0.061 A 
BRANCH  13  17
ATOM     17  O   LIG A   1      -6.418  -3.979 133.391  0.00  0.00    -0.491 OA
ATOM     18  C   LIG A   1      -5.485  -4.838 132.740  0.00  0.00    +0.277 C 
ENDBRANCH  13  17
BRANCH  15  19
ATOM     19  O   LIG A   1      -8.175   0.519 132.729  0.00  0.00    -0.491 OA
ATOM     20  C   LIG A   1      -9.131   1.257 131.979  0.00  0.00    +0.277 C 
ENDBRANCH  15  19
BRANCH  14  21
ATOM     21  O   LIG A   1      -6.991  -1.366 134.433  0.00  0.00    -0.488 OA
ATOM     22  C   LIG A   1      -5.704  -0.857 134.730  0.00  0.00    +0.277 C 
ENDBRANCH  14  21
ENDBRANCH   5  11
BRANCH  10  23
ATOM     23  O   LIG A   1      -6.422  -1.001 123.496  0.00  0.00    -0.503 OA
ATOM     24  H   LIG A   1      -5.543  -0.669 123.755  0.00  0.00    +0.292 HD
ENDBRANCH  10  23
BRANCH   9  25
ATOM     25  O   LIG A   1      -8.320  -2.921 123.097  0.00  0.00    -0.491 OA
ATOM     26  C   LIG A   1      -9.718  -3.197 122.961  0.00  0.00    +0.277 C 
ENDBRANCH   9  25
BRANCH   1  27
ATOM     27  C   LIG A   1      -5.258  -0.380 126.029  0.00  0.00    +0.069 C 
BRANCH  27  28
ATOM     28  C   LIG A   1      -5.760   0.995 126.360  0.00  0.00    -0.030 C 
ATOM     29  C   LIG A   1      -6.125   1.915 125.431  0.00  0.00    +0.004 C 
ENDBRANCH  27  28
ENDBRANCH   1  27
TORSDOF 8
ENDMDL
MODEL 5
REMARK VINA RESULT:      -6.6      4.197      8.012
REMARK  Name = NuBBE_1837
REMARK  13 active torsions:
REMARK  status: ('A' for Active; 'I' for Inactive)
REMARK    1  A    between atoms: C_1  and  C_2
REMARK    2  A    between atoms: C_1  and  C_4
REMARK    3  A    between atoms: C_7  and  C_22
REMARK    4  A    between atoms: C_8  and  C_10
REMARK    5  A    between atoms: C_12  and  O_13
REMARK    6  A    between atoms: O_13  and  C_14
REMARK    7  A    between atoms: C_15  and  O_20
REMARK    8  A    between atoms: C_16  and  O_18
REMARK    9  A    between atoms: O_18  and  C_19
REMARK   10  A    between atoms: O_20  and  C_21
REMARK   11  A    between atoms: C_24  and  O_27
REMARK   12  A    between atoms: C_25  and  O_26
REMARK   13  A    between atoms: O_27  and  C_28
REMARK                            x       y       z     vdW  Elec       q    Type
REMARK                         _______ _______ _______ _____ _____    ______ ____
ROOT
ATOM      1  C   LIG A   1      -4.746  -1.923 130.223  0.00  0.00    +0.044 A 
ATOM      2  C   LIG A   1      -5.903  -2.107 129.457  0.00  0.00    +0.143 A 
ATOM      3  C   LIG A   1      -6.742  -3.206 129.519  0.00  0.00    +0.028 A 
ATOM      4  C   LIG A   1      -7.747  -3.026 128.517  0.00  0.00    +0.003 A 
ATOM      5  C   LIG A   1      -7.447  -1.822 127.899  0.00  0.00    +0.139 A 
ATOM      6  O   LIG A   1      -6.352  -1.258 128.498  0.00  0.00    -0.454 OA
ATOM      7  C   LIG A   1      -8.825  -3.990 128.181  0.00  0.00    +0.048 C 
ATOM      8  C   LIG A   1      -6.448  -4.221 130.439  0.00  0.00    +0.061 A 
ATOM      9  C   LIG A   1      -5.262  -4.154 131.177  0.00  0.00    +0.162 A 
ATOM     10  C   LIG A   1      -4.431  -3.020 131.050  0.00  0.00    +0.166 A 
ENDROOT
BRANCH   5  11
ATOM     11  C   LIG A   1      -7.981  -1.049 126.782  0.00  0.00    +0.025 A 
ATOM     12  C   LIG A   1      -8.430  -1.638 125.596  0.00  0.00    +0.061 A 
ATOM     13  C   LIG A   1      -9.017  -0.864 124.578  0.00  0.00    +0.166 A 
ATOM     14  C   LIG A   1      -9.157   0.530 124.749  0.00  0.00    +0.203 A 
ATOM     15  C   LIG A   1      -8.653   1.135 125.911  0.00  0.00    +0.166 A 
ATOM     16  C   LIG A   1      -8.079   0.345 126.910  0.00  0.00    +0.061 A 
BRANCH  13  17
ATOM     17  O   LIG A   1      -9.423  -1.611 123.492  0.00  0.00    -0.491 OA
ATOM     18  C   LIG A   1      -9.379  -3.029 123.613  0.00  0.00    +0.277 C 
ENDBRANCH  13  17
BRANCH  15  19
ATOM     19  O   LIG A   1      -8.849   2.479 126.081  0.00  0.00    -0.491 OA
ATOM     20  C   LIG A   1      -7.740   3.211 126.586  0.00  0.00    +0.277 C 
ENDBRANCH  15  19
BRANCH  14  21
ATOM     21  O   LIG A   1      -9.896   1.203 123.816  0.00  0.00    -0.488 OA
ATOM     22  C   LIG A   1      -9.239   1.946 122.806  0.00  0.00    +0.277 C 
ENDBRANCH  14  21
ENDBRANCH   5  11
BRANCH  10  23
ATOM     23  O   LIG A   1      -3.213  -2.991 131.686  0.00  0.00    -0.503 OA
ATOM     24  H   LIG A   1      -3.291  -2.307 132.375  0.00  0.00    +0.292 HD
ENDBRANCH  10  23
BRANCH   9  25
ATOM     25  O   LIG A   1      -4.833  -5.166 132.005  0.00  0.00    -0.491 OA
ATOM     26  C   LIG A   1      -5.466  -5.220 133.288  0.00  0.00    +0.277 C 
ENDBRANCH   9  25
BRANCH   1  27
ATOM     27  C   LIG A   1      -3.874  -0.701 130.114  0.00  0.00    +0.069 C 
BRANCH  27  28
ATOM     28  C   LIG A   1      -4.380   0.471 130.902  0.00  0.00    -0.030 C 
ATOM     29  C   LIG A   1      -4.539   0.468 132.250  0.00  0.00    +0.004 C 
ENDBRANCH  27  28
ENDBRANCH   1  27
TORSDOF 8
ENDMDL
MODEL 6
REMARK VINA RESULT:      -6.6      4.439      6.728
REMARK  Name = NuBBE_1837
REMARK  13 active torsions:
REMARK  status: ('A' for Active; 'I' for Inactive)
REMARK    1  A    between atoms: C_1  and  C_2
REMARK    2  A    between atoms: C_1  and  C_4
REMARK    3  A    between atoms: C_7  and  C_22
REMARK    4  A    between atoms: C_8  and  C_10
REMARK    5  A    between atoms: C_12  and  O_13
REMARK    6  A    between atoms: O_13  and  C_14
REMARK    7  A    between atoms: C_15  and  O_20
REMARK    8  A    between atoms: C_16  and  O_18
REMARK    9  A    between atoms: O_18  and  C_19
REMARK   10  A    between atoms: O_20  and  C_21
REMARK   11  A    between atoms: C_24  and  O_27
REMARK   12  A    between atoms: C_25  and  O_26
REMARK   13  A    between atoms: O_27  and  C_28
REMARK                            x       y       z     vdW  Elec       q    Type
REMARK                         _______ _______ _______ _____ _____    ______ ____
ROOT
ATOM      1  C   LIG A   1      -8.023  -2.298 124.795  0.00  0.00    +0.044 A 
ATOM      2  C   LIG A   1      -7.871  -1.800 126.093  0.00  0.00    +0.143 A 
ATOM      3  C   LIG A   1      -8.285  -0.553 126.529  0.00  0.00    +0.028 A 
ATOM      4  C   LIG A   1      -7.863  -0.420 127.890  0.00  0.00    +0.003 A 
ATOM      5  C   LIG A   1      -7.206  -1.602 128.193  0.00  0.00    +0.139 A 
ATOM      6  O   LIG A   1      -7.247  -2.443 127.113  0.00  0.00    -0.454 OA
ATOM      7  C   LIG A   1      -8.038   0.782 128.743  0.00  0.00    +0.048 C 
ATOM      8  C   LIG A   1      -8.942   0.289 125.622  0.00  0.00    +0.061 A 
ATOM      9  C   LIG A   1      -9.053  -0.101 124.284  0.00  0.00    +0.162 A 
ATOM     10  C   LIG A   1      -8.585  -1.373 123.892  0.00  0.00    +0.166 A 
ENDROOT
BRANCH   5  11
ATOM     11  C   LIG A   1      -6.479  -2.139 129.340  0.00  0.00    +0.025 A 
ATOM     12  C   LIG A   1      -7.103  -2.474 130.546  0.00  0.00    +0.061 A 
ATOM     13  C   LIG A   1      -6.381  -3.069 131.597  0.00  0.00    +0.166 A 
ATOM     14  C   LIG A   1      -5.004  -3.335 131.438  0.00  0.00    +0.203 A 
ATOM     15  C   LIG A   1      -4.360  -2.946 130.254  0.00  0.00    +0.166 A 
ATOM     16  C   LIG A   1      -5.099  -2.362 129.223  0.00  0.00    +0.061 A 
BRANCH  13  17
ATOM     17  O   LIG A   1      -7.158  -3.352 132.700  0.00  0.00    -0.491 OA
ATOM     18  C   LIG A   1      -7.848  -2.268 133.316  0.00  0.00    +0.277 C 
ENDBRANCH  13  17
BRANCH  15  19
ATOM     19  O   LIG A   1      -3.037  -3.265 130.098  0.00  0.00    -0.491 OA
ATOM     20  C   LIG A   1      -2.696  -3.931 128.890  0.00  0.00    +0.277 C 
ENDBRANCH  15  19
BRANCH  14  21
ATOM     21  O   LIG A   1      -4.395  -4.078 132.412  0.00  0.00    -0.488 OA
ATOM     22  C   LIG A   1      -3.759  -3.425 133.495  0.00  0.00    +0.277 C 
ENDBRANCH  14  21
ENDBRANCH   5  11
BRANCH  10  23
ATOM     23  O   LIG A   1      -8.590  -1.724 122.563  0.00  0.00    -0.503 OA
ATOM     24  H   LIG A   1      -8.127  -2.580 122.514  0.00  0.00    +0.292 HD
ENDBRANCH  10  23
BRANCH   9  25
ATOM     25  O   LIG A   1      -9.566   0.717 123.302  0.00  0.00    -0.491 OA
ATOM     26  C   LIG A   1      -8.997   2.028 123.234  0.00  0.00    +0.277 C 
ENDBRANCH   9  25
BRANCH   1  27
ATOM     27  C   LIG A   1      -7.554  -3.668 124.381  0.00  0.00    +0.069 C 
BRANCH  27  28
ATOM     28  C   LIG A   1      -6.069  -3.761 124.186  0.00  0.00    -0.030 C 
ATOM     29  C   LIG A   1      -5.324  -2.814 123.561  0.00  0.00    +0.004 C 
ENDBRANCH  27  28
ENDBRANCH   1  27
TORSDOF 8
ENDMDL
MODEL 7
REMARK VINA RESULT:      -6.6      4.858      6.636
REMARK  Name = NuBBE_1837
REMARK  13 active torsions:
REMARK  status: ('A' for Active; 'I' for Inactive)
REMARK    1  A    between atoms: C_1  and  C_2
REMARK    2  A    between atoms: C_1  and  C_4
REMARK    3  A    between atoms: C_7  and  C_22
REMARK    4  A    between atoms: C_8  and  C_10
REMARK    5  A    between atoms: C_12  and  O_13
REMARK    6  A    between atoms: O_13  and  C_14
REMARK    7  A    between atoms: C_15  and  O_20
REMARK    8  A    between atoms: C_16  and  O_18
REMARK    9  A    between atoms: O_18  and  C_19
REMARK   10  A    between atoms: O_20  and  C_21
REMARK   11  A    between atoms: C_24  and  O_27
REMARK   12  A    between atoms: C_25  and  O_26
REMARK   13  A    between atoms: O_27  and  C_28
REMARK                            x       y       z     vdW  Elec       q    Type
REMARK                         _______ _______ _______ _____ _____    ______ ____
ROOT
ATOM      1  C   LIG A   1      -6.331  -1.230 125.830  0.00  0.00    +0.044 A 
ATOM      2  C   LIG A   1      -6.925  -1.900 126.905  0.00  0.00    +0.143 A 
ATOM      3  C   LIG A   1      -7.942  -2.833 126.808  0.00  0.00    +0.028 A 
ATOM      4  C   LIG A   1      -8.305  -3.202 128.141  0.00  0.00    +0.003 A 
ATOM      5  C   LIG A   1      -7.483  -2.456 128.971  0.00  0.00    +0.139 A 
ATOM      6  O   LIG A   1      -6.629  -1.699 128.215  0.00  0.00    -0.454 OA
ATOM      7  C   LIG A   1      -9.396  -4.133 128.522  0.00  0.00    +0.048 C 
ATOM      8  C   LIG A   1      -8.415  -3.177 125.535  0.00  0.00    +0.061 A 
ATOM      9  C   LIG A   1      -7.935  -2.488 124.417  0.00  0.00    +0.162 A 
ATOM     10  C   LIG A   1      -6.917  -1.525 124.582  0.00  0.00    +0.166 A 
ENDROOT
BRANCH   5  11
ATOM     11  C   LIG A   1      -7.332  -2.266 130.411  0.00  0.00    +0.025 A 
ATOM     12  C   LIG A   1      -7.636  -1.062 131.055  0.00  0.00    +0.061 A 
ATOM     13  C   LIG A   1      -7.557  -0.946 132.455  0.00  0.00    +0.166 A 
ATOM     14  C   LIG A   1      -7.165  -2.060 133.228  0.00  0.00    +0.203 A 
ATOM     15  C   LIG A   1      -6.800  -3.252 132.584  0.00  0.00    +0.166 A 
ATOM     16  C   LIG A   1      -6.892  -3.344 131.194  0.00  0.00    +0.061 A 
BRANCH  13  17
ATOM     17  O   LIG A   1      -7.914   0.301 132.920  0.00  0.00    -0.491 OA
ATOM     18  C   LIG A   1      -6.897   1.296 132.986  0.00  0.00    +0.277 C 
ENDBRANCH  13  17
BRANCH  15  19
ATOM     19  O   LIG A   1      -6.478  -4.336 133.356  0.00  0.00    -0.491 OA
ATOM     20  C   LIG A   1      -5.242  -4.970 133.053  0.00  0.00    +0.277 C 
ENDBRANCH  15  19
BRANCH  14  21
ATOM     21  O   LIG A   1      -7.284  -1.950 134.587  0.00  0.00    -0.488 OA
ATOM     22  C   LIG A   1      -6.158  -1.577 135.359  0.00  0.00    +0.277 C 
ENDBRANCH  14  21
ENDBRANCH   5  11
BRANCH  10  23
ATOM     23  O   LIG A   1      -6.514  -0.765 123.509  0.00  0.00    -0.503 OA
ATOM     24  H   LIG A   1      -5.995  -1.364 122.942  0.00  0.00    +0.292 HD
ENDBRANCH  10  23
BRANCH   9  25
ATOM     25  O   LIG A   1      -8.436  -2.671 123.147  0.00  0.00    -0.491 OA
ATOM     26  C   LIG A   1      -9.733  -3.271 123.079  0.00  0.00    +0.277 C 
ENDBRANCH   9  25
BRANCH   1  27
ATOM     27  C   LIG A   1      -5.223  -0.225 125.998  0.00  0.00    +0.069 C 
BRANCH  27  28
ATOM     28  C   LIG A   1      -5.708   1.152 126.344  0.00  0.00    -0.030 C 
ATOM     29  C   LIG A   1      -5.832   2.162 125.446  0.00  0.00    +0.004 C 
ENDBRANCH  27  28
ENDBRANCH   1  27
TORSDOF 8
ENDMDL
MODEL 8
REMARK VINA RESULT:      -6.4      5.305      9.118
REMARK  Name = NuBBE_1837
REMARK  13 active torsions:
REMARK  status: ('A' for Active; 'I' for Inactive)
REMARK    1  A    between atoms: C_1  and  C_2
REMARK    2  A    between atoms: C_1  and  C_4
REMARK    3  A    between atoms: C_7  and  C_22
REMARK    4  A    between atoms: C_8  and  C_10
REMARK    5  A    between atoms: C_12  and  O_13
REMARK    6  A    between atoms: O_13  and  C_14
REMARK    7  A    between atoms: C_15  and  O_20
REMARK    8  A    between atoms: C_16  and  O_18
REMARK    9  A    between atoms: O_18  and  C_19
REMARK   10  A    between atoms: O_20  and  C_21
REMARK   11  A    between atoms: C_24  and  O_27
REMARK   12  A    between atoms: C_25  and  O_26
REMARK   13  A    between atoms: O_27  and  C_28
REMARK                            x       y       z     vdW  Elec       q    Type
REMARK                         _______ _______ _______ _____ _____    ______ ____
ROOT
ATOM      1  C   LIG A   1      -9.185   4.244 132.671  0.00  0.00    +0.044 A 
ATOM      2  C   LIG A   1      -8.863   3.304 131.686  0.00  0.00    +0.143 A 
ATOM      3  C   LIG A   1      -8.968   3.503 130.320  0.00  0.00    +0.028 A 
ATOM      4  C   LIG A   1      -8.620   2.269 129.686  0.00  0.00    +0.003 A 
ATOM      5  C   LIG A   1      -8.331   1.388 130.717  0.00  0.00    +0.139 A 
ATOM      6  O   LIG A   1      -8.446   2.034 131.920  0.00  0.00    -0.454 OA
ATOM      7  C   LIG A   1      -8.652   1.999 128.227  0.00  0.00    +0.048 C 
ATOM      8  C   LIG A   1      -9.403   4.752 129.857  0.00  0.00    +0.061 A 
ATOM      9  C   LIG A   1      -9.828   5.714 130.780  0.00  0.00    +0.162 A 
ATOM     10  C   LIG A   1      -9.724   5.442 132.160  0.00  0.00    +0.166 A 
ENDROOT
BRANCH   5  11
ATOM     11  C   LIG A   1      -7.972  -0.022 130.829  0.00  0.00    +0.025 A 
ATOM     12  C   LIG A   1      -7.712  -0.831 129.718  0.00  0.00    +0.061 A 
ATOM     13  C   LIG A   1      -7.286  -2.163 129.872  0.00  0.00    +0.166 A 
ATOM     14  C   LIG A   1      -7.117  -2.698 131.167  0.00  0.00    +0.203 A 
ATOM     15  C   LIG A   1      -7.434  -1.912 132.285  0.00  0.00    +0.166 A 
ATOM     16  C   LIG A   1      -7.850  -0.591 132.106  0.00  0.00    +0.061 A 
BRANCH  13  17
ATOM     17  O   LIG A   1      -7.055  -2.803 128.674  0.00  0.00    -0.491 OA
ATOM     18  C   LIG A   1      -6.001  -2.307 127.853  0.00  0.00    +0.277 C 
ENDBRANCH  13  17
BRANCH  15  19
ATOM     19  O   LIG A   1      -7.208  -2.432 133.531  0.00  0.00    -0.491 OA
ATOM     20  C   LIG A   1      -8.314  -3.084 134.142  0.00  0.00    +0.277 C 
ENDBRANCH  15  19
BRANCH  14  21
ATOM     21  O   LIG A   1      -6.527  -3.929 131.262  0.00  0.00    -0.488 OA
ATOM     22  C   LIG A   1      -5.115  -4.030 131.249  0.00  0.00    +0.277 C 
ENDBRANCH  14  21
ENDBRANCH   5  11
BRANCH  10  23
ATOM     23  O   LIG A   1     -10.237   6.333 133.073  0.00  0.00    -0.503 OA
ATOM     24  H   LIG A   1      -9.817   7.189 132.871  0.00  0.00    +0.292 HD
ENDBRANCH  10  23
BRANCH   9  25
ATOM     25  O   LIG A   1     -10.388   6.915 130.410  0.00  0.00    -0.491 OA
ATOM     26  C   LIG A   1     -11.692   6.831 129.825  0.00  0.00    +0.277 C 
ENDBRANCH   9  25
BRANCH   1  27
ATOM     27  C   LIG A   1      -9.045   3.970 134.145  0.00  0.00    +0.069 C 
BRANCH  27  28
ATOM     28  C   LIG A   1      -7.743   4.441 134.723  0.00  0.00    -0.030 C 
ATOM     29  C   LIG A   1      -7.620   5.513 135.545  0.00  0.00    +0.004 C 
ENDBRANCH  27  28
ENDBRANCH   1  27
TORSDOF 8
ENDMDL
MODEL 9
REMARK VINA RESULT:      -6.3      4.476      6.653
REMARK  Name = NuBBE_1837
REMARK  13 active torsions:
REMARK  status: ('A' for Active; 'I' for Inactive)
REMARK    1  A    between atoms: C_1  and  C_2
REMARK    2  A    between atoms: C_1  and  C_4
REMARK    3  A    between atoms: C_7  and  C_22
REMARK    4  A    between atoms: C_8  and  C_10
REMARK    5  A    between atoms: C_12  and  O_13
REMARK    6  A    between atoms: O_13  and  C_14
REMARK    7  A    between atoms: C_15  and  O_20
REMARK    8  A    between atoms: C_16  and  O_18
REMARK    9  A    between atoms: O_18  and  C_19
REMARK   10  A    between atoms: O_20  and  C_21
REMARK   11  A    between atoms: C_24  and  O_27
REMARK   12  A    between atoms: C_25  and  O_26
REMARK   13  A    between atoms: O_27  and  C_28
REMARK                            x       y       z     vdW  Elec       q    Type
REMARK                         _______ _______ _______ _____ _____    ______ ____
ROOT
ATOM      1  C   LIG A   1      -8.057   1.419 126.489  0.00  0.00    +0.044 A 
ATOM      2  C   LIG A   1      -7.948   0.076 126.866  0.00  0.00    +0.143 A 
ATOM      3  C   LIG A   1      -8.563  -0.989 126.231  0.00  0.00    +0.028 A 
ATOM      4  C   LIG A   1      -8.254  -2.165 126.985  0.00  0.00    +0.003 A 
ATOM      5  C   LIG A   1      -7.471  -1.733 128.044  0.00  0.00    +0.139 A 
ATOM      6  O   LIG A   1      -7.262  -0.384 127.943  0.00  0.00    -0.454 OA
ATOM      7  C   LIG A   1      -8.754  -3.534 126.708  0.00  0.00    +0.048 C 
ATOM      8  C   LIG A   1      -9.343  -0.732 125.095  0.00  0.00    +0.061 A 
ATOM      9  C   LIG A   1      -9.573   0.592 124.709  0.00  0.00    +0.162 A 
ATOM     10  C   LIG A   1      -8.941   1.639 125.413  0.00  0.00    +0.166 A 
ENDROOT
BRANCH   5  11
ATOM     11  C   LIG A   1      -6.857  -2.345 129.219  0.00  0.00    +0.025 A 
ATOM     12  C   LIG A   1      -7.538  -2.517 130.429  0.00  0.00    +0.061 A 
ATOM     13  C   LIG A   1      -6.939  -3.189 131.511  0.00  0.00    +0.166 A 
ATOM     14  C   LIG A   1      -5.629  -3.698 131.380  0.00  0.00    +0.203 A 
ATOM     15  C   LIG A   1      -4.919  -3.475 130.190  0.00  0.00    +0.166 A 
ATOM     16  C   LIG A   1      -5.537  -2.811 129.129  0.00  0.00    +0.061 A 
BRANCH  13  17
ATOM     17  O   LIG A   1      -7.761  -3.288 132.613  0.00  0.00    -0.491 OA
ATOM     18  C   LIG A   1      -7.854  -2.153 133.470  0.00  0.00    +0.277 C 
ENDBRANCH  13  17
BRANCH  15  19
ATOM     19  O   LIG A   1      -3.672  -4.027 130.065  0.00  0.00    -0.491 OA
ATOM     20  C   LIG A   1      -2.975  -3.721 128.863  0.00  0.00    +0.277 C 
ENDBRANCH  15  19
BRANCH  14  21
ATOM     21  O   LIG A   1      -5.167  -4.498 132.388  0.00  0.00    -0.488 OA
ATOM     22  C   LIG A   1      -4.444  -3.923 133.461  0.00  0.00    +0.277 C 
ENDBRANCH  14  21
ENDBRANCH   5  11
BRANCH  10  23
ATOM     23  O   LIG A   1      -9.244   2.945 125.112  0.00  0.00    -0.503 OA
ATOM     24  H   LIG A   1      -8.392   3.375 124.913  0.00  0.00    +0.292 HD
ENDBRANCH  10  23
BRANCH   9  25
ATOM     25  O   LIG A   1     -10.427   0.940 123.687  0.00  0.00    -0.491 OA
ATOM     26  C   LIG A   1     -10.152   0.330 122.421  0.00  0.00    +0.277 C 
ENDBRANCH   9  25
BRANCH   1  27
ATOM     27  C   LIG A   1      -7.359   2.536 127.218  0.00  0.00    +0.069 C 
BRANCH  27  28
ATOM     28  C   LIG A   1      -5.908   2.673 126.860  0.00  0.00    -0.030 C 
ATOM     29  C   LIG A   1      -5.456   2.925 125.606  0.00  0.00    +0.004 C 
ENDBRANCH  27  28
ENDBRANCH   1  27
TORSDOF 8
ENDMDL
