MODEL 1
REMARK VINA RESULT:      -5.5      0.000      0.000
REMARK  Name = NuBBE_1806
REMARK  19 active torsions:
REMARK  status: ('A' for Active; 'I' for Inactive)
REMARK    1  A    between atoms: O_1  and  C_2
REMARK    2  A    between atoms: C_2  and  C_3
REMARK    3  A    between atoms: C_3  and  O_4
REMARK    4  A    between atoms: C_3  and  C_5
REMARK    5  A    between atoms: C_5  and  C_6
REMARK    6  A    between atoms: C_6  and  C_7
REMARK    7  A    between atoms: C_6  and  C_20
REMARK    8  A    between atoms: C_7  and  C_8
REMARK    9  A    between atoms: C_8  and  C_9
REMARK   10  A    between atoms: C_8  and  O_19
REMARK   11  A    between atoms: C_9  and  C_10
REMARK   12  A    between atoms: C_10  and  C_11
REMARK   13  A    between atoms: C_11  and  C_12
REMARK   14  A    between atoms: C_12  and  C_13
REMARK   15  A    between atoms: C_13  and  C_14
REMARK   16  A    between atoms: C_14  and  C_15
REMARK   17  A    between atoms: C_15  and  C_16
REMARK   18  A    between atoms: C_16  and  C_17
REMARK   19  A    between atoms: C_20  and  O_21
REMARK                            x       y       z     vdW  Elec       q    Type
REMARK                         _______ _______ _______ _____ _____    ______ ____
ROOT
ATOM      1  C   LIG A   1     -11.767   6.176 130.894  0.00  0.00    +0.115 C 
ENDROOT
BRANCH   1   2
ATOM      2  O   LIG A   1     -11.967   5.969 132.291  0.00  0.00    -0.392 OA
ATOM      3  H   LIG A   1     -11.576   5.111 132.529  0.00  0.00    +0.210 HD
ENDBRANCH   1   2
BRANCH   1   4
ATOM      4  C   LIG A   1     -10.308   5.806 130.555  0.00  0.00    +0.031 C 
BRANCH   4   5
ATOM      5  C   LIG A   1      -9.336   6.393 131.587  0.00  0.00    +0.002 C 
BRANCH   5   6
ATOM      6  C   LIG A   1      -7.996   6.810 130.973  0.00  0.00    +0.000 C 
BRANCH   6   7
ATOM      7  C   LIG A   1      -6.847   6.432 131.912  0.00  0.00    -0.000 C 
BRANCH   7   8
ATOM      8  C   LIG A   1      -6.167   5.126 131.502  0.00  0.00    +0.000 C 
BRANCH   8   9
ATOM      9  C   LIG A   1      -5.806   4.293 132.734  0.00  0.00    +0.000 C 
BRANCH   9  10
ATOM     10  C   LIG A   1      -6.818   3.172 132.972  0.00  0.00    +0.004 C 
BRANCH  10  11
ATOM     11  C   LIG A   1      -7.873   3.587 133.998  0.00  0.00    +0.026 C 
BRANCH  11  12
ATOM     12  C   LIG A   1      -9.257   3.296 133.501  0.00  0.00    -0.035 C 
ATOM     13  C   LIG A   1      -9.519   2.447 132.486  0.00  0.00    +0.004 C 
ENDBRANCH  11  12
ENDBRANCH  10  11
ENDBRANCH   9  10
ENDBRANCH   8   9
ENDBRANCH   7   8
ENDBRANCH   6   7
ENDBRANCH   5   6
ENDBRANCH   4   5
ENDBRANCH   1   4
BRANCH   1  14
ATOM     14  C   LIG A   1     -12.092   7.637 130.545  0.00  0.00    +0.037 C 
BRANCH  14  15
ATOM     15  C   LIG A   1     -13.114   7.846 129.384  0.00  0.00    +0.019 C 
BRANCH  15  16
ATOM     16  C   LIG A   1     -13.129   9.292 128.851  0.00  0.00    +0.159 C 
BRANCH  16  17
ATOM     17  O   LIG A   1     -13.107  10.268 129.887  0.00  0.00    -0.395 OA
ATOM     18  H   LIG A   1     -12.860  11.116 129.476  0.00  0.00    +0.209 HD
ENDBRANCH  16  17
ENDBRANCH  15  16
BRANCH  15  19
ATOM     19  C   LIG A   1     -12.772   6.815 128.269  0.00  0.00    +0.039 C 
BRANCH  19  20
ATOM     20  C   LIG A   1     -12.033   7.366 127.047  0.00  0.00    +0.140 C 
BRANCH  20  21
ATOM     21  O   LIG A   1     -12.374   6.573 125.907  0.00  0.00    -0.390 OA
ATOM     22  H   LIG A   1     -12.103   5.663 126.129  0.00  0.00    +0.210 HD
ENDBRANCH  20  21
BRANCH  20  23
ATOM     23  C   LIG A   1     -10.513   7.367 127.258  0.00  0.00    +0.187 C 
BRANCH  23  24
ATOM     24  O   LIG A   1      -9.900   6.405 126.397  0.00  0.00    -0.393 OA
ATOM     25  H   LIG A   1      -9.062   6.789 126.083  0.00  0.00    +0.209 HD
ENDBRANCH  23  24
ENDBRANCH  20  23
ENDBRANCH  19  20
ENDBRANCH  15  19
ENDBRANCH  14  15
ENDBRANCH   1  14
TORSDOF 19
ENDMDL
MODEL 2
REMARK VINA RESULT:      -5.4      2.065      3.596
REMARK  Name = NuBBE_1806
REMARK  19 active torsions:
REMARK  status: ('A' for Active; 'I' for Inactive)
REMARK    1  A    between atoms: O_1  and  C_2
REMARK    2  A    between atoms: C_2  and  C_3
REMARK    3  A    between atoms: C_3  and  O_4
REMARK    4  A    between atoms: C_3  and  C_5
REMARK    5  A    between atoms: C_5  and  C_6
REMARK    6  A    between atoms: C_6  and  C_7
REMARK    7  A    between atoms: C_6  and  C_20
REMARK    8  A    between atoms: C_7  and  C_8
REMARK    9  A    between atoms: C_8  and  C_9
REMARK   10  A    between atoms: C_8  and  O_19
REMARK   11  A    between atoms: C_9  and  C_10
REMARK   12  A    between atoms: C_10  and  C_11
REMARK   13  A    between atoms: C_11  and  C_12
REMARK   14  A    between atoms: C_12  and  C_13
REMARK   15  A    between atoms: C_13  and  C_14
REMARK   16  A    between atoms: C_14  and  C_15
REMARK   17  A    between atoms: C_15  and  C_16
REMARK   18  A    between atoms: C_16  and  C_17
REMARK   19  A    between atoms: C_20  and  O_21
REMARK                            x       y       z     vdW  Elec       q    Type
REMARK                         _______ _______ _______ _____ _____    ______ ____
ROOT
ATOM      1  C   LIG A   1     -11.732   6.621 130.799  0.00  0.00    +0.115 C 
ENDROOT
BRANCH   1   2
ATOM      2  O   LIG A   1     -12.153   6.121 132.067  0.00  0.00    -0.392 OA
ATOM      3  H   LIG A   1     -13.058   5.776 131.971  0.00  0.00    +0.210 HD
ENDBRANCH   1   2
BRANCH   1   4
ATOM      4  C   LIG A   1     -10.208   6.850 130.852  0.00  0.00    +0.031 C 
BRANCH   4   5
ATOM      5  C   LIG A   1      -9.500   5.691 131.567  0.00  0.00    +0.002 C 
BRANCH   5   6
ATOM      6  C   LIG A   1      -8.252   6.137 132.333  0.00  0.00    +0.000 C 
BRANCH   6   7
ATOM      7  C   LIG A   1      -7.107   6.421 131.356  0.00  0.00    -0.000 C 
BRANCH   7   8
ATOM      8  C   LIG A   1      -5.738   6.365 132.033  0.00  0.00    +0.000 C 
BRANCH   8   9
ATOM      9  C   LIG A   1      -4.617   6.387 130.990  0.00  0.00    +0.000 C 
BRANCH   9  10
ATOM     10  C   LIG A   1      -3.966   7.767 130.895  0.00  0.00    +0.004 C 
BRANCH  10  11
ATOM     11  C   LIG A   1      -3.842   8.222 129.441  0.00  0.00    +0.026 C 
BRANCH  11  12
ATOM     12  C   LIG A   1      -3.501   7.073 128.540  0.00  0.00    -0.035 C 
ATOM     13  C   LIG A   1      -2.244   6.791 128.140  0.00  0.00    +0.004 C 
ENDBRANCH  11  12
ENDBRANCH  10  11
ENDBRANCH   9  10
ENDBRANCH   8   9
ENDBRANCH   7   8
ENDBRANCH   6   7
ENDBRANCH   5   6
ENDBRANCH   4   5
ENDBRANCH   1   4
BRANCH   1  14
ATOM     14  C   LIG A   1     -12.503   7.911 130.479  0.00  0.00    +0.037 C 
BRANCH  14  15
ATOM     15  C   LIG A   1     -13.353   7.888 129.170  0.00  0.00    +0.019 C 
BRANCH  15  16
ATOM     16  C   LIG A   1     -13.452   9.269 128.495  0.00  0.00    +0.159 C 
BRANCH  16  17
ATOM     17  O   LIG A   1     -12.760  10.289 129.207  0.00  0.00    -0.395 OA
ATOM     18  H   LIG A   1     -12.929  11.128 128.742  0.00  0.00    +0.209 HD
ENDBRANCH  16  17
ENDBRANCH  15  16
BRANCH  15  19
ATOM     19  C   LIG A   1     -12.728   6.819 128.227  0.00  0.00    +0.039 C 
BRANCH  19  20
ATOM     20  C   LIG A   1     -11.977   7.355 127.005  0.00  0.00    +0.140 C 
BRANCH  20  21
ATOM     21  O   LIG A   1     -12.346   6.581 125.862  0.00  0.00    -0.390 OA
ATOM     22  H   LIG A   1     -12.588   7.228 125.174  0.00  0.00    +0.210 HD
ENDBRANCH  20  21
BRANCH  20  23
ATOM     23  C   LIG A   1     -10.457   7.309 127.212  0.00  0.00    +0.187 C 
BRANCH  23  24
ATOM     24  O   LIG A   1      -9.860   6.436 126.250  0.00  0.00    -0.393 OA
ATOM     25  H   LIG A   1      -9.987   6.840 125.374  0.00  0.00    +0.209 HD
ENDBRANCH  23  24
ENDBRANCH  20  23
ENDBRANCH  19  20
ENDBRANCH  15  19
ENDBRANCH  14  15
ENDBRANCH   1  14
TORSDOF 19
ENDMDL
MODEL 3
REMARK VINA RESULT:      -5.4      8.555     10.166
REMARK  Name = NuBBE_1806
REMARK  19 active torsions:
REMARK  status: ('A' for Active; 'I' for Inactive)
REMARK    1  A    between atoms: O_1  and  C_2
REMARK    2  A    between atoms: C_2  and  C_3
REMARK    3  A    between atoms: C_3  and  O_4
REMARK    4  A    between atoms: C_3  and  C_5
REMARK    5  A    between atoms: C_5  and  C_6
REMARK    6  A    between atoms: C_6  and  C_7
REMARK    7  A    between atoms: C_6  and  C_20
REMARK    8  A    between atoms: C_7  and  C_8
REMARK    9  A    between atoms: C_8  and  C_9
REMARK   10  A    between atoms: C_8  and  O_19
REMARK   11  A    between atoms: C_9  and  C_10
REMARK   12  A    between atoms: C_10  and  C_11
REMARK   13  A    between atoms: C_11  and  C_12
REMARK   14  A    between atoms: C_12  and  C_13
REMARK   15  A    between atoms: C_13  and  C_14
REMARK   16  A    between atoms: C_14  and  C_15
REMARK   17  A    between atoms: C_15  and  C_16
REMARK   18  A    between atoms: C_16  and  C_17
REMARK   19  A    between atoms: C_20  and  O_21
REMARK                            x       y       z     vdW  Elec       q    Type
REMARK                         _______ _______ _______ _____ _____    ______ ____
ROOT
ATOM      1  C   LIG A   1      -8.676  -1.567 122.755  0.00  0.00    +0.115 C 
ENDROOT
BRANCH   1   2
ATOM      2  O   LIG A   1     -10.061  -1.231 122.811  0.00  0.00    -0.392 OA
ATOM      3  H   LIG A   1     -10.156  -0.297 122.558  0.00  0.00    +0.210 HD
ENDBRANCH   1   2
BRANCH   1   4
ATOM      4  C   LIG A   1      -8.510  -3.019 123.249  0.00  0.00    +0.031 C 
BRANCH   4   5
ATOM      5  C   LIG A   1      -9.448  -3.311 124.428  0.00  0.00    +0.002 C 
BRANCH   5   6
ATOM      6  C   LIG A   1      -8.697  -3.575 125.735  0.00  0.00    +0.000 C 
BRANCH   6   7
ATOM      7  C   LIG A   1      -8.495  -2.264 126.501  0.00  0.00    -0.000 C 
BRANCH   7   8
ATOM      8  C   LIG A   1      -7.232  -2.281 127.361  0.00  0.00    +0.000 C 
BRANCH   8   9
ATOM      9  C   LIG A   1      -6.065  -1.623 126.623  0.00  0.00    +0.000 C 
BRANCH   9  10
ATOM     10  C   LIG A   1      -5.287  -2.637 125.784  0.00  0.00    +0.004 C 
BRANCH  10  11
ATOM     11  C   LIG A   1      -5.128  -2.156 124.341  0.00  0.00    +0.026 C 
BRANCH  11  12
ATOM     12  C   LIG A   1      -4.613  -3.252 123.458  0.00  0.00    -0.035 C 
ATOM     13  C   LIG A   1      -4.608  -4.553 123.814  0.00  0.00    +0.004 C 
ENDBRANCH  11  12
ENDBRANCH  10  11
ENDBRANCH   9  10
ENDBRANCH   8   9
ENDBRANCH   7   8
ENDBRANCH   6   7
ENDBRANCH   5   6
ENDBRANCH   4   5
ENDBRANCH   1   4
BRANCH   1  14
ATOM     14  C   LIG A   1      -7.875  -0.569 123.606  0.00  0.00    +0.037 C 
BRANCH  14  15
ATOM     15  C   LIG A   1      -8.334   0.920 123.518  0.00  0.00    +0.019 C 
BRANCH  15  16
ATOM     16  C   LIG A   1      -9.029   1.411 124.804  0.00  0.00    +0.159 C 
BRANCH  16  17
ATOM     17  O   LIG A   1     -10.167   2.226 124.545  0.00  0.00    -0.395 OA
ATOM     18  H   LIG A   1     -10.937   1.633 124.487  0.00  0.00    +0.209 HD
ENDBRANCH  16  17
ENDBRANCH  15  16
BRANCH  15  19
ATOM     19  C   LIG A   1      -7.082   1.775 123.168  0.00  0.00    +0.039 C 
BRANCH  19  20
ATOM     20  C   LIG A   1      -7.238   3.291 123.317  0.00  0.00    +0.140 C 
BRANCH  20  21
ATOM     21  O   LIG A   1      -8.280   3.734 122.444  0.00  0.00    -0.390 OA
ATOM     22  H   LIG A   1      -9.036   3.945 123.024  0.00  0.00    +0.210 HD
ENDBRANCH  20  21
BRANCH  20  23
ATOM     23  C   LIG A   1      -5.929   4.027 122.999  0.00  0.00    +0.187 C 
BRANCH  23  24
ATOM     24  O   LIG A   1      -5.775   5.147 123.874  0.00  0.00    -0.393 OA
ATOM     25  H   LIG A   1      -5.336   4.826 124.681  0.00  0.00    +0.209 HD
ENDBRANCH  23  24
ENDBRANCH  20  23
ENDBRANCH  19  20
ENDBRANCH  15  19
ENDBRANCH  14  15
ENDBRANCH   1  14
TORSDOF 19
ENDMDL
MODEL 4
REMARK VINA RESULT:      -5.4      8.229      9.893
REMARK  Name = NuBBE_1806
REMARK  19 active torsions:
REMARK  status: ('A' for Active; 'I' for Inactive)
REMARK    1  A    between atoms: O_1  and  C_2
REMARK    2  A    between atoms: C_2  and  C_3
REMARK    3  A    between atoms: C_3  and  O_4
REMARK    4  A    between atoms: C_3  and  C_5
REMARK    5  A    between atoms: C_5  and  C_6
REMARK    6  A    between atoms: C_6  and  C_7
REMARK    7  A    between atoms: C_6  and  C_20
REMARK    8  A    between atoms: C_7  and  C_8
REMARK    9  A    between atoms: C_8  and  C_9
REMARK   10  A    between atoms: C_8  and  O_19
REMARK   11  A    between atoms: C_9  and  C_10
REMARK   12  A    between atoms: C_10  and  C_11
REMARK   13  A    between atoms: C_11  and  C_12
REMARK   14  A    between atoms: C_12  and  C_13
REMARK   15  A    between atoms: C_13  and  C_14
REMARK   16  A    between atoms: C_14  and  C_15
REMARK   17  A    between atoms: C_15  and  C_16
REMARK   18  A    between atoms: C_16  and  C_17
REMARK   19  A    between atoms: C_20  and  O_21
REMARK                            x       y       z     vdW  Elec       q    Type
REMARK                         _______ _______ _______ _____ _____    ______ ____
ROOT
ATOM      1  C   LIG A   1      -6.647   1.513 125.310  0.00  0.00    +0.115 C 
ENDROOT
BRANCH   1   2
ATOM      2  O   LIG A   1      -5.466   2.302 125.441  0.00  0.00    -0.392 OA
ATOM      3  H   LIG A   1      -5.734   3.220 125.618  0.00  0.00    +0.210 HD
ENDBRANCH   1   2
BRANCH   1   4
ATOM      4  C   LIG A   1      -6.426   0.184 126.061  0.00  0.00    +0.031 C 
BRANCH   4   5
ATOM      5  C   LIG A   1      -7.763  -0.471 126.429  0.00  0.00    +0.002 C 
BRANCH   5   6
ATOM      6  C   LIG A   1      -7.593  -1.757 127.243  0.00  0.00    +0.000 C 
BRANCH   6   7
ATOM      7  C   LIG A   1      -8.169  -2.948 126.473  0.00  0.00    -0.000 C 
BRANCH   7   8
ATOM      8  C   LIG A   1      -8.794  -2.533 125.141  0.00  0.00    +0.000 C 
BRANCH   8   9
ATOM      9  C   LIG A   1      -8.128  -3.269 123.977  0.00  0.00    +0.000 C 
BRANCH   9  10
ATOM     10  C   LIG A   1      -7.264  -2.329 123.137  0.00  0.00    +0.004 C 
BRANCH  10  11
ATOM     11  C   LIG A   1      -5.796  -2.402 123.557  0.00  0.00    +0.026 C 
BRANCH  11  12
ATOM     12  C   LIG A   1      -5.427  -3.786 124.001  0.00  0.00    -0.035 C 
ATOM     13  C   LIG A   1      -4.307  -4.421 123.600  0.00  0.00    +0.004 C 
ENDBRANCH  11  12
ENDBRANCH  10  11
ENDBRANCH   9  10
ENDBRANCH   8   9
ENDBRANCH   7   8
ENDBRANCH   6   7
ENDBRANCH   5   6
ENDBRANCH   4   5
ENDBRANCH   1   4
BRANCH   1  14
ATOM     14  C   LIG A   1      -6.950   1.294 123.819  0.00  0.00    +0.037 C 
BRANCH  14  15
ATOM     15  C   LIG A   1      -8.295   1.897 123.304  0.00  0.00    +0.019 C 
BRANCH  15  16
ATOM     16  C   LIG A   1      -9.293   2.196 124.440  0.00  0.00    +0.159 C 
BRANCH  16  17
ATOM     17  O   LIG A   1      -9.185   3.524 124.941  0.00  0.00    -0.395 OA
ATOM     18  H   LIG A   1      -9.717   3.566 125.757  0.00  0.00    +0.209 HD
ENDBRANCH  16  17
ENDBRANCH  15  16
BRANCH  15  19
ATOM     19  C   LIG A   1      -7.949   3.172 122.480  0.00  0.00    +0.039 C 
BRANCH  19  20
ATOM     20  C   LIG A   1      -6.460   3.449 122.260  0.00  0.00    +0.140 C 
BRANCH  20  21
ATOM     21  O   LIG A   1      -6.057   4.512 123.127  0.00  0.00    -0.390 OA
ATOM     22  H   LIG A   1      -6.289   4.218 124.027  0.00  0.00    +0.210 HD
ENDBRANCH  20  21
BRANCH  20  23
ATOM     23  C   LIG A   1      -6.162   3.812 120.799  0.00  0.00    +0.187 C 
BRANCH  23  24
ATOM     24  O   LIG A   1      -7.385   4.037 120.094  0.00  0.00    -0.393 OA
ATOM     25  H   LIG A   1      -8.080   4.190 120.758  0.00  0.00    +0.209 HD
ENDBRANCH  23  24
ENDBRANCH  20  23
ENDBRANCH  19  20
ENDBRANCH  15  19
ENDBRANCH  14  15
ENDBRANCH   1  14
TORSDOF 19
ENDMDL
MODEL 5
REMARK VINA RESULT:      -5.3      7.966      9.698
REMARK  Name = NuBBE_1806
REMARK  19 active torsions:
REMARK  status: ('A' for Active; 'I' for Inactive)
REMARK    1  A    between atoms: O_1  and  C_2
REMARK    2  A    between atoms: C_2  and  C_3
REMARK    3  A    between atoms: C_3  and  O_4
REMARK    4  A    between atoms: C_3  and  C_5
REMARK    5  A    between atoms: C_5  and  C_6
REMARK    6  A    between atoms: C_6  and  C_7
REMARK    7  A    between atoms: C_6  and  C_20
REMARK    8  A    between atoms: C_7  and  C_8
REMARK    9  A    between atoms: C_8  and  C_9
REMARK   10  A    between atoms: C_8  and  O_19
REMARK   11  A    between atoms: C_9  and  C_10
REMARK   12  A    between atoms: C_10  and  C_11
REMARK   13  A    between atoms: C_11  and  C_12
REMARK   14  A    between atoms: C_12  and  C_13
REMARK   15  A    between atoms: C_13  and  C_14
REMARK   16  A    between atoms: C_14  and  C_15
REMARK   17  A    between atoms: C_15  and  C_16
REMARK   18  A    between atoms: C_16  and  C_17
REMARK   19  A    between atoms: C_20  and  O_21
REMARK                            x       y       z     vdW  Elec       q    Type
REMARK                         _______ _______ _______ _____ _____    ______ ____
ROOT
ATOM      1  C   LIG A   1      -9.769   0.729 123.035  0.00  0.00    +0.115 C 
ENDROOT
BRANCH   1   2
ATOM      2  O   LIG A   1     -10.952   1.024 123.776  0.00  0.00    -0.392 OA
ATOM      3  H   LIG A   1     -10.897   0.561 124.630  0.00  0.00    +0.210 HD
ENDBRANCH   1   2
BRANCH   1   4
ATOM      4  C   LIG A   1      -9.931  -0.669 122.404  0.00  0.00    +0.031 C 
BRANCH   4   5
ATOM      5  C   LIG A   1      -8.877  -1.644 122.945  0.00  0.00    +0.002 C 
BRANCH   5   6
ATOM      6  C   LIG A   1      -9.467  -3.000 123.342  0.00  0.00    +0.000 C 
BRANCH   6   7
ATOM      7  C   LIG A   1      -8.764  -3.534 124.594  0.00  0.00    -0.000 C 
BRANCH   7   8
ATOM      8  C   LIG A   1      -9.332  -2.936 125.880  0.00  0.00    +0.000 C 
BRANCH   8   9
ATOM      9  C   LIG A   1      -8.354  -1.926 126.485  0.00  0.00    +0.000 C 
BRANCH   9  10
ATOM     10  C   LIG A   1      -6.931  -2.483 126.538  0.00  0.00    +0.004 C 
BRANCH  10  11
ATOM     11  C   LIG A   1      -5.907  -1.422 126.136  0.00  0.00    +0.026 C 
BRANCH  11  12
ATOM     12  C   LIG A   1      -5.535  -1.546 124.690  0.00  0.00    -0.035 C 
ATOM     13  C   LIG A   1      -5.222  -2.719 124.101  0.00  0.00    +0.004 C 
ENDBRANCH  11  12
ENDBRANCH  10  11
ENDBRANCH   9  10
ENDBRANCH   8   9
ENDBRANCH   7   8
ENDBRANCH   6   7
ENDBRANCH   5   6
ENDBRANCH   4   5
ENDBRANCH   1   4
BRANCH   1  14
ATOM     14  C   LIG A   1      -8.551   0.809 123.968  0.00  0.00    +0.037 C 
BRANCH  14  15
ATOM     15  C   LIG A   1      -8.499   2.051 124.912  0.00  0.00    +0.019 C 
BRANCH  15  16
ATOM     16  C   LIG A   1      -7.557   1.851 126.115  0.00  0.00    +0.159 C 
BRANCH  16  17
ATOM     17  O   LIG A   1      -6.711   2.971 126.353  0.00  0.00    -0.395 OA
ATOM     18  H   LIG A   1      -6.395   2.901 127.272  0.00  0.00    +0.209 HD
ENDBRANCH  16  17
ENDBRANCH  15  16
BRANCH  15  19
ATOM     19  C   LIG A   1      -8.090   3.279 124.047  0.00  0.00    +0.039 C 
BRANCH  19  20
ATOM     20  C   LIG A   1      -6.932   3.059 123.071  0.00  0.00    +0.140 C 
BRANCH  20  21
ATOM     21  O   LIG A   1      -5.794   3.788 123.537  0.00  0.00    -0.390 OA
ATOM     22  H   LIG A   1      -5.458   4.275 122.761  0.00  0.00    +0.210 HD
ENDBRANCH  20  21
BRANCH  20  23
ATOM     23  C   LIG A   1      -7.301   3.501 121.648  0.00  0.00    +0.187 C 
BRANCH  23  24
ATOM     24  O   LIG A   1      -8.692   3.825 121.584  0.00  0.00    -0.393 OA
ATOM     25  H   LIG A   1      -8.850   4.553 122.210  0.00  0.00    +0.209 HD
ENDBRANCH  23  24
ENDBRANCH  20  23
ENDBRANCH  19  20
ENDBRANCH  15  19
ENDBRANCH  14  15
ENDBRANCH   1  14
TORSDOF 19
ENDMDL
MODEL 6
REMARK VINA RESULT:      -5.2      8.101      9.894
REMARK  Name = NuBBE_1806
REMARK  19 active torsions:
REMARK  status: ('A' for Active; 'I' for Inactive)
REMARK    1  A    between atoms: O_1  and  C_2
REMARK    2  A    between atoms: C_2  and  C_3
REMARK    3  A    between atoms: C_3  and  O_4
REMARK    4  A    between atoms: C_3  and  C_5
REMARK    5  A    between atoms: C_5  and  C_6
REMARK    6  A    between atoms: C_6  and  C_7
REMARK    7  A    between atoms: C_6  and  C_20
REMARK    8  A    between atoms: C_7  and  C_8
REMARK    9  A    between atoms: C_8  and  C_9
REMARK   10  A    between atoms: C_8  and  O_19
REMARK   11  A    between atoms: C_9  and  C_10
REMARK   12  A    between atoms: C_10  and  C_11
REMARK   13  A    between atoms: C_11  and  C_12
REMARK   14  A    between atoms: C_12  and  C_13
REMARK   15  A    between atoms: C_13  and  C_14
REMARK   16  A    between atoms: C_14  and  C_15
REMARK   17  A    between atoms: C_15  and  C_16
REMARK   18  A    between atoms: C_16  and  C_17
REMARK   19  A    between atoms: C_20  and  O_21
REMARK                            x       y       z     vdW  Elec       q    Type
REMARK                         _______ _______ _______ _____ _____    ______ ____
ROOT
ATOM      1  C   LIG A   1      -7.199  -0.354 126.966  0.00  0.00    +0.115 C 
ENDROOT
BRANCH   1   2
ATOM      2  O   LIG A   1      -6.925  -0.032 128.328  0.00  0.00    -0.392 OA
ATOM      3  H   LIG A   1      -7.767  -0.038 128.815  0.00  0.00    +0.210 HD
ENDBRANCH   1   2
BRANCH   1   4
ATOM      4  C   LIG A   1      -6.892  -1.850 126.751  0.00  0.00    +0.031 C 
BRANCH   4   5
ATOM      5  C   LIG A   1      -7.923  -2.733 127.465  0.00  0.00    +0.002 C 
BRANCH   5   6
ATOM      6  C   LIG A   1      -9.024  -3.240 126.529  0.00  0.00    +0.000 C 
BRANCH   6   7
ATOM      7  C   LIG A   1      -8.427  -3.619 125.171  0.00  0.00    -0.000 C 
BRANCH   7   8
ATOM      8  C   LIG A   1      -9.386  -3.337 124.015  0.00  0.00    +0.000 C 
BRANCH   8   9
ATOM      9  C   LIG A   1      -8.663  -2.617 122.874  0.00  0.00    +0.000 C 
BRANCH   9  10
ATOM     10  C   LIG A   1      -8.052  -1.296 123.341  0.00  0.00    +0.004 C 
BRANCH  10  11
ATOM     11  C   LIG A   1      -6.603  -1.160 122.872  0.00  0.00    +0.026 C 
BRANCH  11  12
ATOM     12  C   LIG A   1      -5.912  -2.490 122.854  0.00  0.00    -0.035 C 
ATOM     13  C   LIG A   1      -4.985  -2.859 123.763  0.00  0.00    +0.004 C 
ENDBRANCH  11  12
ENDBRANCH  10  11
ENDBRANCH   9  10
ENDBRANCH   8   9
ENDBRANCH   7   8
ENDBRANCH   6   7
ENDBRANCH   5   6
ENDBRANCH   4   5
ENDBRANCH   1   4
BRANCH   1  14
ATOM     14  C   LIG A   1      -6.358   0.550 126.051  0.00  0.00    +0.037 C 
BRANCH  14  15
ATOM     15  C   LIG A   1      -6.901   1.999 125.842  0.00  0.00    +0.019 C 
BRANCH  15  16
ATOM     16  C   LIG A   1      -6.039   3.069 126.542  0.00  0.00    +0.159 C 
BRANCH  16  17
ATOM     17  O   LIG A   1      -5.984   2.903 127.954  0.00  0.00    -0.395 OA
ATOM     18  H   LIG A   1      -6.813   3.263 128.317  0.00  0.00    +0.209 HD
ENDBRANCH  16  17
ENDBRANCH  15  16
BRANCH  15  19
ATOM     19  C   LIG A   1      -7.003   2.242 124.308  0.00  0.00    +0.039 C 
BRANCH  19  20
ATOM     20  C   LIG A   1      -8.119   3.185 123.849  0.00  0.00    +0.140 C 
BRANCH  20  21
ATOM     21  O   LIG A   1      -9.144   3.203 124.845  0.00  0.00    -0.390 OA
ATOM     22  H   LIG A   1      -9.716   3.961 124.619  0.00  0.00    +0.210 HD
ENDBRANCH  20  21
BRANCH  20  23
ATOM     23  C   LIG A   1      -8.700   2.755 122.495  0.00  0.00    +0.187 C 
BRANCH  23  24
ATOM     24  O   LIG A   1      -8.699   3.862 121.591  0.00  0.00    -0.393 OA
ATOM     25  H   LIG A   1      -8.006   4.478 121.887  0.00  0.00    +0.209 HD
ENDBRANCH  23  24
ENDBRANCH  20  23
ENDBRANCH  19  20
ENDBRANCH  15  19
ENDBRANCH  14  15
ENDBRANCH   1  14
TORSDOF 19
ENDMDL
MODEL 7
REMARK VINA RESULT:      -5.2      7.521      9.348
REMARK  Name = NuBBE_1806
REMARK  19 active torsions:
REMARK  status: ('A' for Active; 'I' for Inactive)
REMARK    1  A    between atoms: O_1  and  C_2
REMARK    2  A    between atoms: C_2  and  C_3
REMARK    3  A    between atoms: C_3  and  O_4
REMARK    4  A    between atoms: C_3  and  C_5
REMARK    5  A    between atoms: C_5  and  C_6
REMARK    6  A    between atoms: C_6  and  C_7
REMARK    7  A    between atoms: C_6  and  C_20
REMARK    8  A    between atoms: C_7  and  C_8
REMARK    9  A    between atoms: C_8  and  C_9
REMARK   10  A    between atoms: C_8  and  O_19
REMARK   11  A    between atoms: C_9  and  C_10
REMARK   12  A    between atoms: C_10  and  C_11
REMARK   13  A    between atoms: C_11  and  C_12
REMARK   14  A    between atoms: C_12  and  C_13
REMARK   15  A    between atoms: C_13  and  C_14
REMARK   16  A    between atoms: C_14  and  C_15
REMARK   17  A    between atoms: C_15  and  C_16
REMARK   18  A    between atoms: C_16  and  C_17
REMARK   19  A    between atoms: C_20  and  O_21
REMARK                            x       y       z     vdW  Elec       q    Type
REMARK                         _______ _______ _______ _____ _____    ______ ____
ROOT
ATOM      1  C   LIG A   1      -7.786   0.914 126.442  0.00  0.00    +0.115 C 
ENDROOT
BRANCH   1   2
ATOM      2  O   LIG A   1      -8.923   1.671 126.851  0.00  0.00    -0.392 OA
ATOM      3  H   LIG A   1      -8.940   2.494 126.334  0.00  0.00    +0.210 HD
ENDBRANCH   1   2
BRANCH   1   4
ATOM      4  C   LIG A   1      -7.434  -0.078 127.569  0.00  0.00    +0.031 C 
BRANCH   4   5
ATOM      5  C   LIG A   1      -6.264  -0.984 127.163  0.00  0.00    +0.002 C 
BRANCH   5   6
ATOM      6  C   LIG A   1      -6.544  -2.468 127.415  0.00  0.00    +0.000 C 
BRANCH   6   7
ATOM      7  C   LIG A   1      -8.027  -2.677 127.739  0.00  0.00    -0.000 C 
BRANCH   7   8
ATOM      8  C   LIG A   1      -8.729  -3.557 126.707  0.00  0.00    +0.000 C 
BRANCH   8   9
ATOM      9  C   LIG A   1      -9.409  -2.700 125.636  0.00  0.00    +0.000 C 
BRANCH   9  10
ATOM     10  C   LIG A   1      -9.268  -3.320 124.246  0.00  0.00    +0.004 C 
BRANCH  10  11
ATOM     11  C   LIG A   1      -8.771  -2.293 123.229  0.00  0.00    +0.026 C 
BRANCH  11  12
ATOM     12  C   LIG A   1      -7.406  -1.790 123.589  0.00  0.00    -0.035 C 
ATOM     13  C   LIG A   1      -6.370  -1.767 122.725  0.00  0.00    +0.004 C 
ENDBRANCH  11  12
ENDBRANCH  10  11
ENDBRANCH   9  10
ENDBRANCH   8   9
ENDBRANCH   7   8
ENDBRANCH   6   7
ENDBRANCH   5   6
ENDBRANCH   4   5
ENDBRANCH   1   4
BRANCH   1  14
ATOM     14  C   LIG A   1      -6.625   1.870 126.126  0.00  0.00    +0.037 C 
BRANCH  14  15
ATOM     15  C   LIG A   1      -6.814   2.776 124.868  0.00  0.00    +0.019 C 
BRANCH  15  16
ATOM     16  C   LIG A   1      -5.602   3.688 124.598  0.00  0.00    +0.159 C 
BRANCH  16  17
ATOM     17  O   LIG A   1      -5.946   4.878 123.896  0.00  0.00    -0.395 OA
ATOM     18  H   LIG A   1      -6.646   4.642 123.260  0.00  0.00    +0.209 HD
ENDBRANCH  16  17
ENDBRANCH  15  16
BRANCH  15  19
ATOM     19  C   LIG A   1      -7.123   1.841 123.662  0.00  0.00    +0.039 C 
BRANCH  19  20
ATOM     20  C   LIG A   1      -8.316   2.239 122.790  0.00  0.00    +0.140 C 
BRANCH  20  21
ATOM     21  O   LIG A   1      -8.502   3.654 122.882  0.00  0.00    -0.390 OA
ATOM     22  H   LIG A   1      -8.416   3.990 121.971  0.00  0.00    +0.210 HD
ENDBRANCH  20  21
BRANCH  20  23
ATOM     23  C   LIG A   1      -9.595   1.505 123.215  0.00  0.00    +0.187 C 
BRANCH  23  24
ATOM     24  O   LIG A   1     -10.201   2.180 124.320  0.00  0.00    -0.393 OA
ATOM     25  H   LIG A   1     -10.546   3.028 123.989  0.00  0.00    +0.209 HD
ENDBRANCH  23  24
ENDBRANCH  20  23
ENDBRANCH  19  20
ENDBRANCH  15  19
ENDBRANCH  14  15
ENDBRANCH   1  14
TORSDOF 19
ENDMDL
MODEL 8
REMARK VINA RESULT:      -5.2      7.436      8.932
REMARK  Name = NuBBE_1806
REMARK  19 active torsions:
REMARK  status: ('A' for Active; 'I' for Inactive)
REMARK    1  A    between atoms: O_1  and  C_2
REMARK    2  A    between atoms: C_2  and  C_3
REMARK    3  A    between atoms: C_3  and  O_4
REMARK    4  A    between atoms: C_3  and  C_5
REMARK    5  A    between atoms: C_5  and  C_6
REMARK    6  A    between atoms: C_6  and  C_7
REMARK    7  A    between atoms: C_6  and  C_20
REMARK    8  A    between atoms: C_7  and  C_8
REMARK    9  A    between atoms: C_8  and  C_9
REMARK   10  A    between atoms: C_8  and  O_19
REMARK   11  A    between atoms: C_9  and  C_10
REMARK   12  A    between atoms: C_10  and  C_11
REMARK   13  A    between atoms: C_11  and  C_12
REMARK   14  A    between atoms: C_12  and  C_13
REMARK   15  A    between atoms: C_13  and  C_14
REMARK   16  A    between atoms: C_14  and  C_15
REMARK   17  A    between atoms: C_15  and  C_16
REMARK   18  A    between atoms: C_16  and  C_17
REMARK   19  A    between atoms: C_20  and  O_21
REMARK                            x       y       z     vdW  Elec       q    Type
REMARK                         _______ _______ _______ _____ _____    ______ ____
ROOT
ATOM      1  C   LIG A   1      -8.536   1.947 125.674  0.00  0.00    +0.115 C 
ENDROOT
BRANCH   1   2
ATOM      2  O   LIG A   1      -9.531   2.677 124.959  0.00  0.00    -0.392 OA
ATOM      3  H   LIG A   1      -9.451   3.616 125.202  0.00  0.00    +0.210 HD
ENDBRANCH   1   2
BRANCH   1   4
ATOM      4  C   LIG A   1      -9.217   0.743 126.355  0.00  0.00    +0.031 C 
BRANCH   4   5
ATOM      5  C   LIG A   1      -8.366  -0.526 126.213  0.00  0.00    +0.002 C 
BRANCH   5   6
ATOM      6  C   LIG A   1      -7.325  -0.674 127.326  0.00  0.00    +0.000 C 
BRANCH   6   7
ATOM      7  C   LIG A   1      -5.926  -0.826 126.722  0.00  0.00    -0.000 C 
BRANCH   7   8
ATOM      8  C   LIG A   1      -5.945  -0.785 125.194  0.00  0.00    +0.000 C 
BRANCH   8   9
ATOM      9  C   LIG A   1      -5.370  -2.078 124.611  0.00  0.00    +0.000 C 
BRANCH   9  10
ATOM     10  C   LIG A   1      -6.004  -2.417 123.262  0.00  0.00    +0.004 C 
BRANCH  10  11
ATOM     11  C   LIG A   1      -7.126  -1.438 122.916  0.00  0.00    +0.026 C 
BRANCH  11  12
ATOM     12  C   LIG A   1      -8.420  -2.156 122.679  0.00  0.00    -0.035 C 
ATOM     13  C   LIG A   1      -8.930  -3.069 123.532  0.00  0.00    +0.004 C 
ENDBRANCH  11  12
ENDBRANCH  10  11
ENDBRANCH   9  10
ENDBRANCH   8   9
ENDBRANCH   7   8
ENDBRANCH   6   7
ENDBRANCH   5   6
ENDBRANCH   4   5
ENDBRANCH   1   4
BRANCH   1  14
ATOM     14  C   LIG A   1      -7.852   2.878 126.687  0.00  0.00    +0.037 C 
BRANCH  14  15
ATOM     15  C   LIG A   1      -6.708   3.776 126.121  0.00  0.00    +0.019 C 
BRANCH  15  16
ATOM     16  C   LIG A   1      -5.685   4.194 127.195  0.00  0.00    +0.159 C 
BRANCH  16  17
ATOM     17  O   LIG A   1      -5.003   5.402 126.875  0.00  0.00    -0.395 OA
ATOM     18  H   LIG A   1      -5.544   6.135 127.219  0.00  0.00    +0.209 HD
ENDBRANCH  16  17
ENDBRANCH  15  16
BRANCH  15  19
ATOM     19  C   LIG A   1      -6.040   2.997 124.950  0.00  0.00    +0.039 C 
BRANCH  19  20
ATOM     20  C   LIG A   1      -5.822   3.784 123.655  0.00  0.00    +0.140 C 
BRANCH  20  21
ATOM     21  O   LIG A   1      -6.026   5.174 123.922  0.00  0.00    -0.390 OA
ATOM     22  H   LIG A   1      -5.139   5.579 123.898  0.00  0.00    +0.210 HD
ENDBRANCH  20  21
BRANCH  20  23
ATOM     23  C   LIG A   1      -6.766   3.312 122.541  0.00  0.00    +0.187 C 
BRANCH  23  24
ATOM     24  O   LIG A   1      -8.080   3.827 122.765  0.00  0.00    -0.393 OA
ATOM     25  H   LIG A   1      -8.381   3.489 123.627  0.00  0.00    +0.209 HD
ENDBRANCH  23  24
ENDBRANCH  20  23
ENDBRANCH  19  20
ENDBRANCH  15  19
ENDBRANCH  14  15
ENDBRANCH   1  14
TORSDOF 19
ENDMDL
MODEL 9
REMARK VINA RESULT:      -5.2      8.154      9.794
REMARK  Name = NuBBE_1806
REMARK  19 active torsions:
REMARK  status: ('A' for Active; 'I' for Inactive)
REMARK    1  A    between atoms: O_1  and  C_2
REMARK    2  A    between atoms: C_2  and  C_3
REMARK    3  A    between atoms: C_3  and  O_4
REMARK    4  A    between atoms: C_3  and  C_5
REMARK    5  A    between atoms: C_5  and  C_6
REMARK    6  A    between atoms: C_6  and  C_7
REMARK    7  A    between atoms: C_6  and  C_20
REMARK    8  A    between atoms: C_7  and  C_8
REMARK    9  A    between atoms: C_8  and  C_9
REMARK   10  A    between atoms: C_8  and  O_19
REMARK   11  A    between atoms: C_9  and  C_10
REMARK   12  A    between atoms: C_10  and  C_11
REMARK   13  A    between atoms: C_11  and  C_12
REMARK   14  A    between atoms: C_12  and  C_13
REMARK   15  A    between atoms: C_13  and  C_14
REMARK   16  A    between atoms: C_14  and  C_15
REMARK   17  A    between atoms: C_15  and  C_16
REMARK   18  A    between atoms: C_16  and  C_17
REMARK   19  A    between atoms: C_20  and  O_21
REMARK                            x       y       z     vdW  Elec       q    Type
REMARK                         _______ _______ _______ _____ _____    ______ ____
ROOT
ATOM      1  C   LIG A   1      -7.389  -1.554 123.419  0.00  0.00    +0.115 C 
ENDROOT
BRANCH   1   2
ATOM      2  O   LIG A   1      -6.395  -1.886 122.452  0.00  0.00    -0.392 OA
ATOM      3  H   LIG A   1      -5.722  -2.437 122.886  0.00  0.00    +0.210 HD
ENDBRANCH   1   2
BRANCH   1   4
ATOM      4  C   LIG A   1      -8.727  -2.175 122.968  0.00  0.00    +0.031 C 
BRANCH   4   5
ATOM      5  C   LIG A   1      -9.193  -3.257 123.951  0.00  0.00    +0.002 C 
BRANCH   5   6
ATOM      6  C   LIG A   1      -8.264  -3.404 125.159  0.00  0.00    +0.000 C 
BRANCH   6   7
ATOM      7  C   LIG A   1      -8.963  -2.900 126.425  0.00  0.00    -0.000 C 
BRANCH   7   8
ATOM      8  C   LIG A   1      -8.935  -3.930 127.554  0.00  0.00    +0.000 C 
BRANCH   8   9
ATOM      9  C   LIG A   1      -8.469  -3.288 128.863  0.00  0.00    +0.000 C 
BRANCH   9  10
ATOM     10  C   LIG A   1      -6.994  -2.891 128.801  0.00  0.00    +0.004 C 
BRANCH  10  11
ATOM     11  C   LIG A   1      -6.156  -3.724 129.771  0.00  0.00    +0.026 C 
BRANCH  11  12
ATOM     12  C   LIG A   1      -4.778  -3.155 129.923  0.00  0.00    -0.035 C 
ATOM     13  C   LIG A   1      -3.693  -3.657 129.296  0.00  0.00    +0.004 C 
ENDBRANCH  11  12
ENDBRANCH  10  11
ENDBRANCH   9  10
ENDBRANCH   8   9
ENDBRANCH   7   8
ENDBRANCH   6   7
ENDBRANCH   5   6
ENDBRANCH   4   5
ENDBRANCH   1   4
BRANCH   1  14
ATOM     14  C   LIG A   1      -7.474  -0.026 123.557  0.00  0.00    +0.037 C 
BRANCH  14  15
ATOM     15  C   LIG A   1      -8.900   0.591 123.406  0.00  0.00    +0.019 C 
BRANCH  15  16
ATOM     16  C   LIG A   1      -9.616   0.787 124.757  0.00  0.00    +0.159 C 
BRANCH  16  17
ATOM     17  O   LIG A   1     -10.412   1.965 124.800  0.00  0.00    -0.395 OA
ATOM     18  H   LIG A   1     -11.241   1.768 124.327  0.00  0.00    +0.209 HD
ENDBRANCH  16  17
ENDBRANCH  15  16
BRANCH  15  19
ATOM     19  C   LIG A   1      -8.748   1.930 122.626  0.00  0.00    +0.039 C 
BRANCH  19  20
ATOM     20  C   LIG A   1      -7.636   2.867 123.105  0.00  0.00    +0.140 C 
BRANCH  20  21
ATOM     21  O   LIG A   1      -8.215   3.888 123.921  0.00  0.00    -0.390 OA
ATOM     22  H   LIG A   1      -8.343   4.654 123.331  0.00  0.00    +0.210 HD
ENDBRANCH  20  21
BRANCH  20  23
ATOM     23  C   LIG A   1      -6.879   3.492 121.926  0.00  0.00    +0.187 C 
BRANCH  23  24
ATOM     24  O   LIG A   1      -5.965   4.482 122.404  0.00  0.00    -0.393 OA
ATOM     25  H   LIG A   1      -6.184   4.654 123.337  0.00  0.00    +0.209 HD
ENDBRANCH  23  24
ENDBRANCH  20  23
ENDBRANCH  19  20
ENDBRANCH  15  19
ENDBRANCH  14  15
ENDBRANCH   1  14
TORSDOF 19
ENDMDL
