MODEL 1
REMARK VINA RESULT:      -6.5      0.000      0.000
REMARK  Name = NuBBE_1937
REMARK  6 active torsions:
REMARK  status: ('A' for Active; 'I' for Inactive)
REMARK    1  A    between atoms: C_1  and  C_2
REMARK    2  A    between atoms: C_1  and  C_3
REMARK    3  A    between atoms: C_1  and  C_4
REMARK    4  A    between atoms: C_10  and  C_13
REMARK    5  A    between atoms: C_10  and  O_14
REMARK    6  A    between atoms: C_17  and  C_19
REMARK                            x       y       z     vdW  Elec       q    Type
REMARK                         _______ _______ _______ _____ _____    ______ ____
ROOT
ATOM      1  C   LIG A   1      -7.121  -2.168 126.073  0.00  0.00    -0.001 C 
ATOM      2  C   LIG A   1      -7.156  -3.217 124.904  0.00  0.00    +0.021 C 
ATOM      3  C   LIG A   1      -7.669  -2.620 123.556  0.00  0.00    +0.028 C 
ATOM      4  C   LIG A   1      -9.014  -1.869 123.723  0.00  0.00    +0.067 C 
ATOM      5  C   LIG A   1      -8.963  -0.859 124.873  0.00  0.00    +0.035 C 
ATOM      6  C   LIG A   1      -8.496  -1.481 126.187  0.00  0.00    +0.007 C 
ATOM      7  C   LIG A   1      -9.467  -1.162 122.440  0.00  0.00    +0.041 C 
ATOM      8  C   LIG A   1      -6.552  -1.780 122.907  0.00  0.00    +0.011 C 
ATOM      9  C   LIG A   1      -5.305  -2.622 122.618  0.00  0.00    +0.030 C 
ATOM     10  C   LIG A   1      -4.988  -3.644 123.675  0.00  0.00    -0.076 C 
ATOM     11  C   LIG A   1      -5.824  -3.903 124.695  0.00  0.00    -0.024 C 
ATOM     12  C   LIG A   1      -3.687  -4.374 123.510  0.00  0.00    +0.038 C 
ENDROOT
BRANCH   1  13
ATOM     13  C   LIG A   1      -6.638  -2.795 127.433  0.00  0.00    -0.013 C 
ATOM     14  C   LIG A   1      -7.683  -2.813 128.557  0.00  0.00    +0.007 C 
ATOM     15  C   LIG A   1      -5.402  -2.054 127.975  0.00  0.00    +0.007 C 
ENDBRANCH   1  13
BRANCH   4  16
ATOM     16  O   LIG A   1     -10.049  -2.828 123.993  0.00  0.00    -0.389 OA
ATOM     17  H   LIG A   1     -10.321  -2.758 124.922  0.00  0.00    +0.210 HD
ENDBRANCH   4  16
TORSDOF 2
ENDMDL
MODEL 2
REMARK VINA RESULT:      -6.2      2.257      3.067
REMARK  Name = NuBBE_1937
REMARK  6 active torsions:
REMARK  status: ('A' for Active; 'I' for Inactive)
REMARK    1  A    between atoms: C_1  and  C_2
REMARK    2  A    between atoms: C_1  and  C_3
REMARK    3  A    between atoms: C_1  and  C_4
REMARK    4  A    between atoms: C_10  and  C_13
REMARK    5  A    between atoms: C_10  and  O_14
REMARK    6  A    between atoms: C_17  and  C_19
REMARK                            x       y       z     vdW  Elec       q    Type
REMARK                         _______ _______ _______ _____ _____    ______ ____
ROOT
ATOM      1  C   LIG A   1      -7.826  -2.124 127.545  0.00  0.00    -0.001 C 
ATOM      2  C   LIG A   1      -6.765  -1.993 126.393  0.00  0.00    +0.021 C 
ATOM      3  C   LIG A   1      -7.407  -1.880 124.975  0.00  0.00    +0.028 C 
ATOM      4  C   LIG A   1      -8.440  -3.005 124.709  0.00  0.00    +0.067 C 
ATOM      5  C   LIG A   1      -9.458  -3.124 125.847  0.00  0.00    +0.035 C 
ATOM      6  C   LIG A   1      -8.800  -3.272 127.217  0.00  0.00    +0.007 C 
ATOM      7  C   LIG A   1      -9.178  -2.835 123.375  0.00  0.00    +0.041 C 
ATOM      8  C   LIG A   1      -7.958  -0.455 124.770  0.00  0.00    +0.011 C 
ATOM      9  C   LIG A   1      -6.854   0.601 124.885  0.00  0.00    +0.030 C 
ATOM     10  C   LIG A   1      -5.828   0.313 125.948  0.00  0.00    -0.076 C 
ATOM     11  C   LIG A   1      -5.798  -0.852 126.618  0.00  0.00    -0.024 C 
ATOM     12  C   LIG A   1      -4.826   1.401 126.202  0.00  0.00    +0.038 C 
ENDROOT
BRANCH   1  13
ATOM     13  C   LIG A   1      -7.161  -2.275 128.963  0.00  0.00    -0.013 C 
ATOM     14  C   LIG A   1      -7.273  -3.668 129.597  0.00  0.00    +0.007 C 
ATOM     15  C   LIG A   1      -7.763  -1.272 129.965  0.00  0.00    +0.007 C 
ENDBRANCH   1  13
BRANCH   4  16
ATOM     16  O   LIG A   1      -7.741  -4.253 124.579  0.00  0.00    -0.389 OA
ATOM     17  H   LIG A   1      -6.841  -4.089 124.255  0.00  0.00    +0.210 HD
ENDBRANCH   4  16
TORSDOF 2
ENDMDL
MODEL 3
REMARK VINA RESULT:      -6.0      1.970      2.219
REMARK  Name = NuBBE_1937
REMARK  6 active torsions:
REMARK  status: ('A' for Active; 'I' for Inactive)
REMARK    1  A    between atoms: C_1  and  C_2
REMARK    2  A    between atoms: C_1  and  C_3
REMARK    3  A    between atoms: C_1  and  C_4
REMARK    4  A    between atoms: C_10  and  C_13
REMARK    5  A    between atoms: C_10  and  O_14
REMARK    6  A    between atoms: C_17  and  C_19
REMARK                            x       y       z     vdW  Elec       q    Type
REMARK                         _______ _______ _______ _____ _____    ______ ____
ROOT
ATOM      1  C   LIG A   1      -6.223   0.158 125.229  0.00  0.00    -0.001 C 
ATOM      2  C   LIG A   1      -6.764  -1.298 124.998  0.00  0.00    +0.021 C 
ATOM      3  C   LIG A   1      -7.754  -1.403 123.796  0.00  0.00    +0.028 C 
ATOM      4  C   LIG A   1      -8.890  -0.352 123.880  0.00  0.00    +0.067 C 
ATOM      5  C   LIG A   1      -8.343   1.059 124.117  0.00  0.00    +0.035 C 
ATOM      6  C   LIG A   1      -7.409   1.138 125.322  0.00  0.00    +0.007 C 
ATOM      7  C   LIG A   1      -9.796  -0.349 122.643  0.00  0.00    +0.041 C 
ATOM      8  C   LIG A   1      -6.964  -1.375 122.473  0.00  0.00    +0.011 C 
ATOM      9  C   LIG A   1      -5.971  -2.538 122.381  0.00  0.00    +0.030 C 
ATOM     10  C   LIG A   1      -5.292  -2.877 123.681  0.00  0.00    -0.076 C 
ATOM     11  C   LIG A   1      -5.655  -2.316 124.847  0.00  0.00    -0.024 C 
ATOM     12  C   LIG A   1      -4.195  -3.899 123.598  0.00  0.00    +0.038 C 
ENDROOT
BRANCH   1  13
ATOM     13  C   LIG A   1      -5.255   0.253 126.467  0.00  0.00    -0.013 C 
ATOM     14  C   LIG A   1      -5.884  -0.106 127.821  0.00  0.00    +0.007 C 
ATOM     15  C   LIG A   1      -4.667   1.669 126.602  0.00  0.00    +0.007 C 
ENDBRANCH   1  13
BRANCH   4  16
ATOM     16  O   LIG A   1      -9.762  -0.700 124.967  0.00  0.00    -0.389 OA
ATOM     17  H   LIG A   1      -9.694  -0.029 125.665  0.00  0.00    +0.210 HD
ENDBRANCH   4  16
TORSDOF 2
ENDMDL
MODEL 4
REMARK VINA RESULT:      -5.9      2.209      4.284
REMARK  Name = NuBBE_1937
REMARK  6 active torsions:
REMARK  status: ('A' for Active; 'I' for Inactive)
REMARK    1  A    between atoms: C_1  and  C_2
REMARK    2  A    between atoms: C_1  and  C_3
REMARK    3  A    between atoms: C_1  and  C_4
REMARK    4  A    between atoms: C_10  and  C_13
REMARK    5  A    between atoms: C_10  and  O_14
REMARK    6  A    between atoms: C_17  and  C_19
REMARK                            x       y       z     vdW  Elec       q    Type
REMARK                         _______ _______ _______ _____ _____    ______ ____
ROOT
ATOM      1  C   LIG A   1      -6.782   0.111 125.208  0.00  0.00    -0.001 C 
ATOM      2  C   LIG A   1      -8.101  -0.325 125.941  0.00  0.00    +0.021 C 
ATOM      3  C   LIG A   1      -8.670  -1.684 125.425  0.00  0.00    +0.028 C 
ATOM      4  C   LIG A   1      -8.807  -1.714 123.882  0.00  0.00    +0.067 C 
ATOM      5  C   LIG A   1      -7.515  -1.275 123.187  0.00  0.00    +0.035 C 
ATOM      6  C   LIG A   1      -7.005   0.076 123.683  0.00  0.00    +0.007 C 
ATOM      7  C   LIG A   1      -9.237  -3.085 123.346  0.00  0.00    +0.041 C 
ATOM      8  C   LIG A   1      -7.839  -2.845 126.008  0.00  0.00    +0.011 C 
ATOM      9  C   LIG A   1      -7.878  -2.856 127.539  0.00  0.00    +0.030 C 
ATOM     10  C   LIG A   1      -7.848  -1.490 128.170  0.00  0.00    -0.076 C 
ATOM     11  C   LIG A   1      -7.948  -0.363 127.445  0.00  0.00    -0.024 C 
ATOM     12  C   LIG A   1      -7.719  -1.463 129.666  0.00  0.00    +0.038 C 
ENDROOT
BRANCH   1  13
ATOM     13  C   LIG A   1      -6.243   1.501 125.713  0.00  0.00    -0.013 C 
ATOM     14  C   LIG A   1      -6.216   2.618 124.660  0.00  0.00    +0.007 C 
ATOM     15  C   LIG A   1      -4.815   1.371 126.271  0.00  0.00    +0.007 C 
ENDBRANCH   1  13
BRANCH   4  16
ATOM     16  O   LIG A   1      -9.867  -0.825 123.495  0.00  0.00    -0.389 OA
ATOM     17  H   LIG A   1     -10.344  -0.527 124.285  0.00  0.00    +0.210 HD
ENDBRANCH   4  16
TORSDOF 2
ENDMDL
MODEL 5
REMARK VINA RESULT:      -5.9      2.212      4.093
REMARK  Name = NuBBE_1937
REMARK  6 active torsions:
REMARK  status: ('A' for Active; 'I' for Inactive)
REMARK    1  A    between atoms: C_1  and  C_2
REMARK    2  A    between atoms: C_1  and  C_3
REMARK    3  A    between atoms: C_1  and  C_4
REMARK    4  A    between atoms: C_10  and  C_13
REMARK    5  A    between atoms: C_10  and  O_14
REMARK    6  A    between atoms: C_17  and  C_19
REMARK                            x       y       z     vdW  Elec       q    Type
REMARK                         _______ _______ _______ _____ _____    ______ ____
ROOT
ATOM      1  C   LIG A   1      -8.088  -1.264 124.281  0.00  0.00    -0.001 C 
ATOM      2  C   LIG A   1      -6.537  -1.140 124.065  0.00  0.00    +0.021 C 
ATOM      3  C   LIG A   1      -5.773  -0.679 125.345  0.00  0.00    +0.028 C 
ATOM      4  C   LIG A   1      -6.392   0.597 125.970  0.00  0.00    +0.067 C 
ATOM      5  C   LIG A   1      -7.905   0.461 126.162  0.00  0.00    +0.035 C 
ATOM      6  C   LIG A   1      -8.630   0.047 124.883  0.00  0.00    +0.007 C 
ATOM      7  C   LIG A   1      -5.739   0.990 127.301  0.00  0.00    +0.041 C 
ATOM      8  C   LIG A   1      -5.645  -1.863 126.324  0.00  0.00    +0.011 C 
ATOM      9  C   LIG A   1      -4.879  -3.033 125.700  0.00  0.00    +0.030 C 
ATOM     10  C   LIG A   1      -5.176  -3.262 124.243  0.00  0.00    -0.076 C 
ATOM     11  C   LIG A   1      -5.920  -2.408 123.520  0.00  0.00    -0.024 C 
ATOM     12  C   LIG A   1      -4.572  -4.497 123.638  0.00  0.00    +0.038 C 
ENDROOT
BRANCH   1  13
ATOM     13  C   LIG A   1      -8.847  -1.693 122.971  0.00  0.00    -0.013 C 
ATOM     14  C   LIG A   1      -9.900  -0.696 122.465  0.00  0.00    +0.007 C 
ATOM     15  C   LIG A   1      -9.559  -3.044 123.162  0.00  0.00    +0.007 C 
ENDBRANCH   1  13
BRANCH   4  16
ATOM     16  O   LIG A   1      -6.134   1.710 125.099  0.00  0.00    -0.389 OA
ATOM     17  H   LIG A   1      -6.778   1.710 124.373  0.00  0.00    +0.210 HD
ENDBRANCH   4  16
TORSDOF 2
ENDMDL
MODEL 6
REMARK VINA RESULT:      -5.7      1.858      4.769
REMARK  Name = NuBBE_1937
REMARK  6 active torsions:
REMARK  status: ('A' for Active; 'I' for Inactive)
REMARK    1  A    between atoms: C_1  and  C_2
REMARK    2  A    between atoms: C_1  and  C_3
REMARK    3  A    between atoms: C_1  and  C_4
REMARK    4  A    between atoms: C_10  and  C_13
REMARK    5  A    between atoms: C_10  and  O_14
REMARK    6  A    between atoms: C_17  and  C_19
REMARK                            x       y       z     vdW  Elec       q    Type
REMARK                         _______ _______ _______ _____ _____    ______ ____
ROOT
ATOM      1  C   LIG A   1      -6.453  -1.836 124.873  0.00  0.00    -0.001 C 
ATOM      2  C   LIG A   1      -7.988  -1.702 125.176  0.00  0.00    +0.021 C 
ATOM      3  C   LIG A   1      -8.296  -0.766 126.387  0.00  0.00    +0.028 C 
ATOM      4  C   LIG A   1      -7.471  -1.144 127.643  0.00  0.00    +0.067 C 
ATOM      5  C   LIG A   1      -5.979  -1.281 127.325  0.00  0.00    +0.035 C 
ATOM      6  C   LIG A   1      -5.707  -2.233 126.162  0.00  0.00    +0.007 C 
ATOM      7  C   LIG A   1      -7.659  -0.156 128.802  0.00  0.00    +0.041 C 
ATOM      8  C   LIG A   1      -8.148   0.705 125.953  0.00  0.00    +0.011 C 
ATOM      9  C   LIG A   1      -9.109   1.059 124.814  0.00  0.00    +0.030 C 
ATOM     10  C   LIG A   1      -9.293  -0.033 123.796  0.00  0.00    -0.076 C 
ATOM     11  C   LIG A   1      -8.786  -1.266 123.967  0.00  0.00    -0.024 C 
ATOM     12  C   LIG A   1     -10.096   0.333 122.581  0.00  0.00    +0.038 C 
ENDROOT
BRANCH   1  13
ATOM     13  C   LIG A   1      -6.159  -2.812 123.674  0.00  0.00    -0.013 C 
ATOM     14  C   LIG A   1      -4.992  -3.786 123.890  0.00  0.00    +0.007 C 
ATOM     15  C   LIG A   1      -5.860  -2.028 122.383  0.00  0.00    +0.007 C 
ENDBRANCH   1  13
BRANCH   4  16
ATOM     16  O   LIG A   1      -7.954  -2.397 128.154  0.00  0.00    -0.389 OA
ATOM     17  H   LIG A   1      -7.242  -2.845 128.638  0.00  0.00    +0.210 HD
ENDBRANCH   4  16
TORSDOF 2
ENDMDL
MODEL 7
REMARK VINA RESULT:      -5.6      2.962      4.092
REMARK  Name = NuBBE_1937
REMARK  6 active torsions:
REMARK  status: ('A' for Active; 'I' for Inactive)
REMARK    1  A    between atoms: C_1  and  C_2
REMARK    2  A    between atoms: C_1  and  C_3
REMARK    3  A    between atoms: C_1  and  C_4
REMARK    4  A    between atoms: C_10  and  C_13
REMARK    5  A    between atoms: C_10  and  O_14
REMARK    6  A    between atoms: C_17  and  C_19
REMARK                            x       y       z     vdW  Elec       q    Type
REMARK                         _______ _______ _______ _____ _____    ______ ____
ROOT
ATOM      1  C   LIG A   1      -6.881   0.786 125.585  0.00  0.00    -0.001 C 
ATOM      2  C   LIG A   1      -8.285   0.253 126.046  0.00  0.00    +0.021 C 
ATOM      3  C   LIG A   1      -9.229  -0.104 124.856  0.00  0.00    +0.028 C 
ATOM      4  C   LIG A   1      -9.338   1.051 123.828  0.00  0.00    +0.067 C 
ATOM      5  C   LIG A   1      -7.961   1.563 123.399  0.00  0.00    +0.035 C 
ATOM      6  C   LIG A   1      -7.075   1.942 124.583  0.00  0.00    +0.007 C 
ATOM      7  C   LIG A   1     -10.154   0.671 122.586  0.00  0.00    +0.041 C 
ATOM      8  C   LIG A   1      -8.802  -1.454 124.247  0.00  0.00    +0.011 C 
ATOM      9  C   LIG A   1      -8.873  -2.587 125.275  0.00  0.00    +0.030 C 
ATOM     10  C   LIG A   1      -8.442  -2.194 126.662  0.00  0.00    -0.076 C 
ATOM     11  C   LIG A   1      -8.181  -0.919 126.997  0.00  0.00    -0.024 C 
ATOM     12  C   LIG A   1      -8.341  -3.313 127.658  0.00  0.00    +0.038 C 
ENDROOT
BRANCH   1  13
ATOM     13  C   LIG A   1      -5.957   1.177 126.797  0.00  0.00    -0.013 C 
ATOM     14  C   LIG A   1      -6.523   2.252 127.735  0.00  0.00    +0.007 C 
ATOM     15  C   LIG A   1      -4.587   1.681 126.306  0.00  0.00    +0.007 C 
ENDBRANCH   1  13
BRANCH   4  16
ATOM     16  O   LIG A   1     -10.071   2.133 124.425  0.00  0.00    -0.389 OA
ATOM     17  H   LIG A   1     -11.019   1.925 124.419  0.00  0.00    +0.210 HD
ENDBRANCH   4  16
TORSDOF 2
ENDMDL
MODEL 8
REMARK VINA RESULT:      -5.5      3.770      5.502
REMARK  Name = NuBBE_1937
REMARK  6 active torsions:
REMARK  status: ('A' for Active; 'I' for Inactive)
REMARK    1  A    between atoms: C_1  and  C_2
REMARK    2  A    between atoms: C_1  and  C_3
REMARK    3  A    between atoms: C_1  and  C_4
REMARK    4  A    between atoms: C_10  and  C_13
REMARK    5  A    between atoms: C_10  and  O_14
REMARK    6  A    between atoms: C_17  and  C_19
REMARK                            x       y       z     vdW  Elec       q    Type
REMARK                         _______ _______ _______ _____ _____    ______ ____
ROOT
ATOM      1  C   LIG A   1      -6.752   0.058 124.337  0.00  0.00    -0.001 C 
ATOM      2  C   LIG A   1      -7.514   1.407 124.078  0.00  0.00    +0.021 C 
ATOM      3  C   LIG A   1      -7.418   2.407 125.273  0.00  0.00    +0.028 C 
ATOM      4  C   LIG A   1      -7.812   1.748 126.620  0.00  0.00    +0.067 C 
ATOM      5  C   LIG A   1      -7.069   0.429 126.849  0.00  0.00    +0.035 C 
ATOM      6  C   LIG A   1      -7.213  -0.543 125.680  0.00  0.00    +0.007 C 
ATOM      7  C   LIG A   1      -7.597   2.674 127.824  0.00  0.00    +0.041 C 
ATOM      8  C   LIG A   1      -6.027   3.072 125.279  0.00  0.00    +0.011 C 
ATOM      9  C   LIG A   1      -5.764   3.844 123.982  0.00  0.00    +0.030 C 
ATOM     10  C   LIG A   1      -6.298   3.177 122.744  0.00  0.00    -0.076 C 
ATOM     11  C   LIG A   1      -7.080   2.086 122.798  0.00  0.00    -0.024 C 
ATOM     12  C   LIG A   1      -5.918   3.818 121.440  0.00  0.00    +0.038 C 
ENDROOT
BRANCH   1  13
ATOM     13  C   LIG A   1      -6.891  -0.952 123.138  0.00  0.00    -0.013 C 
ATOM     14  C   LIG A   1      -8.293  -1.546 122.938  0.00  0.00    +0.007 C 
ATOM     15  C   LIG A   1      -5.918  -2.134 123.296  0.00  0.00    +0.007 C 
ENDBRANCH   1  13
BRANCH   4  16
ATOM     16  O   LIG A   1      -9.225   1.489 126.611  0.00  0.00    -0.389 OA
ATOM     17  H   LIG A   1      -9.653   2.045 125.942  0.00  0.00    +0.210 HD
ENDBRANCH   4  16
TORSDOF 2
ENDMDL
MODEL 9
REMARK VINA RESULT:      -5.5      3.720      5.935
REMARK  Name = NuBBE_1937
REMARK  6 active torsions:
REMARK  status: ('A' for Active; 'I' for Inactive)
REMARK    1  A    between atoms: C_1  and  C_2
REMARK    2  A    between atoms: C_1  and  C_3
REMARK    3  A    between atoms: C_1  and  C_4
REMARK    4  A    between atoms: C_10  and  C_13
REMARK    5  A    between atoms: C_10  and  O_14
REMARK    6  A    between atoms: C_17  and  C_19
REMARK                            x       y       z     vdW  Elec       q    Type
REMARK                         _______ _______ _______ _____ _____    ______ ____
ROOT
ATOM      1  C   LIG A   1      -7.744  -0.407 129.142  0.00  0.00    -0.001 C 
ATOM      2  C   LIG A   1      -7.117  -1.520 128.228  0.00  0.00    +0.021 C 
ATOM      3  C   LIG A   1      -6.905  -2.877 128.968  0.00  0.00    +0.028 C 
ATOM      4  C   LIG A   1      -6.139  -2.702 130.304  0.00  0.00    +0.067 C 
ATOM      5  C   LIG A   1      -6.758  -1.606 131.176  0.00  0.00    +0.035 C 
ATOM      6  C   LIG A   1      -6.917  -0.279 130.437  0.00  0.00    +0.007 C 
ATOM      7  C   LIG A   1      -6.038  -4.003 131.111  0.00  0.00    +0.041 C 
ATOM      8  C   LIG A   1      -8.257  -3.606 129.106  0.00  0.00    +0.011 C 
ATOM      9  C   LIG A   1      -8.886  -3.895 127.740  0.00  0.00    +0.030 C 
ATOM     10  C   LIG A   1      -8.697  -2.800 126.726  0.00  0.00    -0.076 C 
ATOM     11  C   LIG A   1      -7.904  -1.740 126.955  0.00  0.00    -0.024 C 
ATOM     12  C   LIG A   1      -9.437  -2.973 125.430  0.00  0.00    +0.038 C 
ENDROOT
BRANCH   1  13
ATOM     13  C   LIG A   1      -7.916   0.965 128.391  0.00  0.00    -0.013 C 
ATOM     14  C   LIG A   1      -6.617   1.597 127.871  0.00  0.00    +0.007 C 
ATOM     15  C   LIG A   1      -8.596   2.009 129.295  0.00  0.00    +0.007 C 
ENDBRANCH   1  13
BRANCH   4  16
ATOM     16  O   LIG A   1      -4.777  -2.349 130.013  0.00  0.00    -0.389 OA
ATOM     17  H   LIG A   1      -4.556  -2.629 129.111  0.00  0.00    +0.210 HD
ENDBRANCH   4  16
TORSDOF 2
ENDMDL
