MODEL 1
REMARK VINA RESULT:      -7.8      0.000      0.000
REMARK  Name = NuBBE_1718
REMARK  12 active torsions:
REMARK  status: ('A' for Active; 'I' for Inactive)
REMARK    1  A    between atoms: O_1  and  C_2
REMARK    2  A    between atoms: O_1  and  C_5
REMARK    3  A    between atoms: C_2  and  C_4
REMARK    4  A    between atoms: C_11  and  C_26
REMARK    5  A    between atoms: C_14  and  O_16
REMARK    6  A    between atoms: O_16  and  C_17
REMARK    7  A    between atoms: C_17  and  C_19
REMARK    8  A    between atoms: C_20  and  C_21
REMARK    9  A    between atoms: C_20  and  C_22
REMARK   10  A    between atoms: C_30  and  C_32
REMARK   11  A    between atoms: C_32  and  O_34
REMARK   12  A    between atoms: O_34  and  C_35
REMARK                            x       y       z     vdW  Elec       q    Type
REMARK                         _______ _______ _______ _____ _____    ______ ____
ROOT
ATOM      1  C   LIG A   1      -7.116   1.502 125.510  0.00  0.00    +0.222 C 
ATOM      2  C   LIG A   1      -6.888   1.149 127.010  0.00  0.00    +0.056 C 
ATOM      3  C   LIG A   1      -7.792  -0.084 127.407  0.00  0.00    +0.010 C 
ATOM      4  C   LIG A   1      -7.413  -1.344 126.525  0.00  0.00    -0.022 C 
ATOM      5  C   LIG A   1      -7.791  -1.028 125.034  0.00  0.00    +0.045 C 
ATOM      6  C   LIG A   1      -7.244   0.320 124.486  0.00  0.00    +0.221 C 
ATOM      7  C   LIG A   1      -7.708  -2.320 124.108  0.00  0.00    -0.028 C 
ATOM      8  C   LIG A   1      -7.839  -2.035 122.598  0.00  0.00    +0.011 C 
ATOM      9  C   LIG A   1      -6.401  -3.141 124.230  0.00  0.00    +0.011 C 
ATOM     10  C   LIG A   1      -8.891  -3.239 124.540  0.00  0.00    +0.007 C 
ATOM     11  C   LIG A   1      -9.332  -3.055 126.000  0.00  0.00    +0.001 C 
ATOM     12  C   LIG A   1      -8.206  -2.637 126.952  0.00  0.00    +0.007 C 
ATOM     13  C   LIG A   1      -5.885  -1.599 126.714  0.00  0.00    +0.012 C 
ATOM     14  C   LIG A   1      -7.759  -0.421 128.929  0.00  0.00    +0.079 C 
ATOM     15  C   LIG A   1      -7.637   0.794 129.742  0.00  0.00    +0.109 A 
ATOM     16  C   LIG A   1      -7.340   2.071 129.347  0.00  0.00    +0.008 A 
ATOM     17  C   LIG A   1      -7.089   2.429 127.921  0.00  0.00    +0.138 C 
ATOM     18  C   LIG A   1      -7.385   2.848 130.534  0.00  0.00    +0.045 A 
ATOM     19  C   LIG A   1      -7.657   1.969 131.561  0.00  0.00    +0.195 A 
ATOM     20  O   LIG A   1      -7.818   0.708 131.080  0.00  0.00    -0.468 OA
ENDROOT
BRANCH  17  21
ATOM     21  C   LIG A   1      -5.888   3.373 127.826  0.00  0.00    +0.315 C 
ATOM     22  O   LIG A   1      -5.938   4.595 127.699  0.00  0.00    -0.250 OA
BRANCH  21  23
ATOM     23  O   LIG A   1      -4.747   2.658 128.023  0.00  0.00    -0.468 OA
ATOM     24  C   LIG A   1      -3.581   3.131 127.351  0.00  0.00    +0.280 C 
ENDBRANCH  21  23
ENDBRANCH  17  21
BRANCH   1  25
ATOM     25  O   LIG A   1      -6.172   2.510 125.028  0.00  0.00    -0.458 OA
BRANCH  25  26
ATOM     26  C   LIG A   1      -6.651   3.620 124.398  0.00  0.00    +0.304 C 
ATOM     27  O   LIG A   1      -7.595   4.293 124.777  0.00  0.00    -0.251 OA
ATOM     28  C   LIG A   1      -5.869   3.904 123.153  0.00  0.00    +0.136 C 
ENDBRANCH  25  26
ENDBRANCH   1  25
BRANCH   6  29
ATOM     29  O   LIG A   1      -8.062   0.786 123.339  0.00  0.00    -0.458 OA
BRANCH  29  30
ATOM     30  C   LIG A   1      -9.376   1.120 123.522  0.00  0.00    +0.304 C 
ATOM     31  O   LIG A   1      -9.816   1.812 124.432  0.00  0.00    -0.251 OA
ATOM     32  C   LIG A   1     -10.259   0.494 122.485  0.00  0.00    +0.136 C 
ENDBRANCH  29  30
ENDBRANCH   6  29
TORSDOF 6
ENDMDL
MODEL 2
REMARK VINA RESULT:      -7.1      1.795      2.691
REMARK  Name = NuBBE_1718
REMARK  12 active torsions:
REMARK  status: ('A' for Active; 'I' for Inactive)
REMARK    1  A    between atoms: O_1  and  C_2
REMARK    2  A    between atoms: O_1  and  C_5
REMARK    3  A    between atoms: C_2  and  C_4
REMARK    4  A    between atoms: C_11  and  C_26
REMARK    5  A    between atoms: C_14  and  O_16
REMARK    6  A    between atoms: O_16  and  C_17
REMARK    7  A    between atoms: C_17  and  C_19
REMARK    8  A    between atoms: C_20  and  C_21
REMARK    9  A    between atoms: C_20  and  C_22
REMARK   10  A    between atoms: C_30  and  C_32
REMARK   11  A    between atoms: C_32  and  O_34
REMARK   12  A    between atoms: O_34  and  C_35
REMARK                            x       y       z     vdW  Elec       q    Type
REMARK                         _______ _______ _______ _____ _____    ______ ____
ROOT
ATOM      1  C   LIG A   1      -8.833   1.468 127.387  0.00  0.00    +0.222 C 
ATOM      2  C   LIG A   1      -8.164   1.530 128.792  0.00  0.00    +0.056 C 
ATOM      3  C   LIG A   1      -8.259   0.113 129.486  0.00  0.00    +0.010 C 
ATOM      4  C   LIG A   1      -7.506  -0.973 128.612  0.00  0.00    -0.022 C 
ATOM      5  C   LIG A   1      -8.282  -1.132 127.256  0.00  0.00    +0.045 C 
ATOM      6  C   LIG A   1      -8.578   0.195 126.505  0.00  0.00    +0.221 C 
ATOM      7  C   LIG A   1      -7.775  -2.388 126.420  0.00  0.00    -0.028 C 
ATOM      8  C   LIG A   1      -8.330  -2.467 124.983  0.00  0.00    +0.011 C 
ATOM      9  C   LIG A   1      -6.241  -2.491 126.242  0.00  0.00    +0.011 C 
ATOM     10  C   LIG A   1      -8.251  -3.650 127.201  0.00  0.00    +0.007 C 
ATOM     11  C   LIG A   1      -8.420  -3.430 128.712  0.00  0.00    +0.001 C 
ATOM     12  C   LIG A   1      -7.470  -2.385 129.308  0.00  0.00    +0.007 C 
ATOM     13  C   LIG A   1      -6.043  -0.469 128.407  0.00  0.00    +0.012 C 
ATOM     14  C   LIG A   1      -7.759   0.104 130.963  0.00  0.00    +0.079 C 
ATOM     15  C   LIG A   1      -8.078   1.365 131.641  0.00  0.00    +0.109 A 
ATOM     16  C   LIG A   1      -8.521   2.545 131.107  0.00  0.00    +0.008 A 
ATOM     17  C   LIG A   1      -8.769   2.718 129.646  0.00  0.00    +0.138 C 
ATOM     18  C   LIG A   1      -8.694   3.414 132.216  0.00  0.00    +0.045 A 
ATOM     19  C   LIG A   1      -8.294   2.706 133.328  0.00  0.00    +0.195 A 
ATOM     20  O   LIG A   1      -7.920   1.446 132.982  0.00  0.00    -0.468 OA
ENDROOT
BRANCH  17  21
ATOM     21  C   LIG A   1      -8.222   4.070 129.182  0.00  0.00    +0.315 C 
ATOM     22  O   LIG A   1      -7.035   4.368 129.062  0.00  0.00    -0.250 OA
BRANCH  21  23
ATOM     23  O   LIG A   1      -9.264   4.862 128.806  0.00  0.00    -0.468 OA
ATOM     24  C   LIG A   1      -9.515   6.005 129.622  0.00  0.00    +0.280 C 
ENDBRANCH  21  23
ENDBRANCH  17  21
BRANCH   1  25
ATOM     25  O   LIG A   1      -8.613   2.691 126.614  0.00  0.00    -0.458 OA
BRANCH  25  26
ATOM     26  C   LIG A   1      -7.406   2.886 126.011  0.00  0.00    +0.304 C 
ATOM     27  O   LIG A   1      -6.347   2.409 126.383  0.00  0.00    -0.251 OA
ATOM     28  C   LIG A   1      -7.545   3.786 124.823  0.00  0.00    +0.136 C 
ENDBRANCH  25  26
ENDBRANCH   1  25
BRANCH   6  29
ATOM     29  O   LIG A   1      -9.732   0.028 125.587  0.00  0.00    -0.458 OA
BRANCH  29  30
ATOM     30  C   LIG A   1      -9.795   0.742 124.422  0.00  0.00    +0.304 C 
ATOM     31  O   LIG A   1     -10.740   1.432 124.059  0.00  0.00    -0.251 OA
ATOM     32  C   LIG A   1      -8.567   0.550 123.584  0.00  0.00    +0.136 C 
ENDBRANCH  29  30
ENDBRANCH   6  29
TORSDOF 6
ENDMDL
MODEL 3
REMARK VINA RESULT:      -7.1      3.001      8.024
REMARK  Name = NuBBE_1718
REMARK  12 active torsions:
REMARK  status: ('A' for Active; 'I' for Inactive)
REMARK    1  A    between atoms: O_1  and  C_2
REMARK    2  A    between atoms: O_1  and  C_5
REMARK    3  A    between atoms: C_2  and  C_4
REMARK    4  A    between atoms: C_11  and  C_26
REMARK    5  A    between atoms: C_14  and  O_16
REMARK    6  A    between atoms: O_16  and  C_17
REMARK    7  A    between atoms: C_17  and  C_19
REMARK    8  A    between atoms: C_20  and  C_21
REMARK    9  A    between atoms: C_20  and  C_22
REMARK   10  A    between atoms: C_30  and  C_32
REMARK   11  A    between atoms: C_32  and  O_34
REMARK   12  A    between atoms: O_34  and  C_35
REMARK                            x       y       z     vdW  Elec       q    Type
REMARK                         _______ _______ _______ _____ _____    ______ ____
ROOT
ATOM      1  C   LIG A   1      -7.078   3.969 129.549  0.00  0.00    +0.222 C 
ATOM      2  C   LIG A   1      -6.355   3.620 128.215  0.00  0.00    +0.056 C 
ATOM      3  C   LIG A   1      -5.352   4.781 127.837  0.00  0.00    +0.010 C 
ATOM      4  C   LIG A   1      -4.262   4.951 128.974  0.00  0.00    -0.022 C 
ATOM      5  C   LIG A   1      -4.989   5.450 130.274  0.00  0.00    +0.045 C 
ATOM      6  C   LIG A   1      -6.228   4.615 130.700  0.00  0.00    +0.221 C 
ATOM      7  C   LIG A   1      -3.959   5.916 131.395  0.00  0.00    -0.028 C 
ATOM      8  C   LIG A   1      -4.593   6.196 132.772  0.00  0.00    +0.011 C 
ATOM      9  C   LIG A   1      -2.813   4.920 131.698  0.00  0.00    +0.011 C 
ATOM     10  C   LIG A   1      -3.316   7.236 130.871  0.00  0.00    +0.007 C 
ATOM     11  C   LIG A   1      -3.284   7.358 129.340  0.00  0.00    +0.001 C 
ATOM     12  C   LIG A   1      -3.167   6.020 128.601  0.00  0.00    +0.007 C 
ATOM     13  C   LIG A   1      -3.575   3.564 129.168  0.00  0.00    +0.012 C 
ATOM     14  C   LIG A   1      -4.691   4.607 126.435  0.00  0.00    +0.079 C 
ATOM     15  C   LIG A   1      -5.620   3.991 125.480  0.00  0.00    +0.109 A 
ATOM     16  C   LIG A   1      -6.825   3.386 125.717  0.00  0.00    +0.008 A 
ATOM     17  C   LIG A   1      -7.408   3.272 127.085  0.00  0.00    +0.138 C 
ATOM     18  C   LIG A   1      -7.305   3.000 124.437  0.00  0.00    +0.045 A 
ATOM     19  C   LIG A   1      -6.327   3.357 123.534  0.00  0.00    +0.195 A 
ATOM     20  O   LIG A   1      -5.293   3.970 124.168  0.00  0.00    -0.468 OA
ENDROOT
BRANCH  17  21
ATOM     21  C   LIG A   1      -7.996   1.872 127.284  0.00  0.00    +0.315 C 
ATOM     22  O   LIG A   1      -9.181   1.563 127.176  0.00  0.00    -0.250 OA
BRANCH  21  23
ATOM     23  O   LIG A   1      -6.977   0.991 127.486  0.00  0.00    -0.468 OA
ATOM     24  C   LIG A   1      -7.285  -0.160 128.271  0.00  0.00    +0.280 C 
ENDBRANCH  21  23
ENDBRANCH  17  21
BRANCH   1  25
ATOM     25  O   LIG A   1      -7.878   2.854 130.055  0.00  0.00    -0.458 OA
BRANCH  25  26
ATOM     26  C   LIG A   1      -9.185   3.068 130.378  0.00  0.00    +0.304 C 
ATOM     27  O   LIG A   1     -10.004   3.627 129.668  0.00  0.00    -0.251 OA
ATOM     28  C   LIG A   1      -9.489   2.535 131.744  0.00  0.00    +0.136 C 
ENDBRANCH  25  26
ENDBRANCH   1  25
BRANCH   6  29
ATOM     29  O   LIG A   1      -7.136   5.426 131.548  0.00  0.00    -0.458 OA
BRANCH  29  30
ATOM     30  C   LIG A   1      -7.719   6.557 131.047  0.00  0.00    +0.304 C 
ATOM     31  O   LIG A   1      -7.131   7.474 130.487  0.00  0.00    -0.251 OA
ATOM     32  C   LIG A   1      -9.196   6.583 131.303  0.00  0.00    +0.136 C 
ENDBRANCH  29  30
ENDBRANCH   6  29
TORSDOF 6
ENDMDL
MODEL 4
REMARK VINA RESULT:      -6.9      2.675      5.508
REMARK  Name = NuBBE_1718
REMARK  12 active torsions:
REMARK  status: ('A' for Active; 'I' for Inactive)
REMARK    1  A    between atoms: O_1  and  C_2
REMARK    2  A    between atoms: O_1  and  C_5
REMARK    3  A    between atoms: C_2  and  C_4
REMARK    4  A    between atoms: C_11  and  C_26
REMARK    5  A    between atoms: C_14  and  O_16
REMARK    6  A    between atoms: O_16  and  C_17
REMARK    7  A    between atoms: C_17  and  C_19
REMARK    8  A    between atoms: C_20  and  C_21
REMARK    9  A    between atoms: C_20  and  C_22
REMARK   10  A    between atoms: C_30  and  C_32
REMARK   11  A    between atoms: C_32  and  O_34
REMARK   12  A    between atoms: O_34  and  C_35
REMARK                            x       y       z     vdW  Elec       q    Type
REMARK                         _______ _______ _______ _____ _____    ______ ____
ROOT
ATOM      1  C   LIG A   1      -6.387  -0.271 129.305  0.00  0.00    +0.222 C 
ATOM      2  C   LIG A   1      -5.909   0.936 128.445  0.00  0.00    +0.056 C 
ATOM      3  C   LIG A   1      -5.461   0.425 127.018  0.00  0.00    +0.010 C 
ATOM      4  C   LIG A   1      -6.677  -0.272 126.282  0.00  0.00    -0.022 C 
ATOM      5  C   LIG A   1      -7.050  -1.572 127.080  0.00  0.00    +0.045 C 
ATOM      6  C   LIG A   1      -7.261  -1.372 128.606  0.00  0.00    +0.221 C 
ATOM      7  C   LIG A   1      -8.074  -2.492 126.281  0.00  0.00    -0.028 C 
ATOM      8  C   LIG A   1      -8.659  -3.661 127.099  0.00  0.00    +0.011 C 
ATOM      9  C   LIG A   1      -9.318  -1.764 125.714  0.00  0.00    +0.011 C 
ATOM     10  C   LIG A   1      -7.279  -3.083 125.077  0.00  0.00    +0.007 C 
ATOM     11  C   LIG A   1      -6.108  -2.207 124.604  0.00  0.00    +0.001 C 
ATOM     12  C   LIG A   1      -6.321  -0.703 124.809  0.00  0.00    +0.007 C 
ATOM     13  C   LIG A   1      -7.847   0.761 126.241  0.00  0.00    +0.012 C 
ATOM     14  C   LIG A   1      -4.814   1.533 126.130  0.00  0.00    +0.079 C 
ATOM     15  C   LIG A   1      -4.035   2.477 126.939  0.00  0.00    +0.109 A 
ATOM     16  C   LIG A   1      -4.000   2.625 128.300  0.00  0.00    +0.008 A 
ATOM     17  C   LIG A   1      -4.806   1.770 129.218  0.00  0.00    +0.138 C 
ATOM     18  C   LIG A   1      -3.058   3.660 128.538  0.00  0.00    +0.045 A 
ATOM     19  C   LIG A   1      -2.635   4.090 127.298  0.00  0.00    +0.195 A 
ATOM     20  O   LIG A   1      -3.228   3.364 126.314  0.00  0.00    -0.468 OA
ENDROOT
BRANCH  17  21
ATOM     21  C   LIG A   1      -5.431   2.633 130.317  0.00  0.00    +0.315 C 
ATOM     22  O   LIG A   1      -5.016   2.749 131.468  0.00  0.00    -0.250 OA
BRANCH  21  23
ATOM     23  O   LIG A   1      -6.458   3.351 129.784  0.00  0.00    -0.468 OA
ATOM     24  C   LIG A   1      -7.504   3.717 130.682  0.00  0.00    +0.280 C 
ENDBRANCH  21  23
ENDBRANCH  17  21
BRANCH   1  25
ATOM     25  O   LIG A   1      -6.994   0.153 130.566  0.00  0.00    -0.458 OA
BRANCH  25  26
ATOM     26  C   LIG A   1      -6.606  -0.452 131.725  0.00  0.00    +0.304 C 
ATOM     27  O   LIG A   1      -5.455  -0.560 132.113  0.00  0.00    -0.251 OA
ATOM     28  C   LIG A   1      -7.791  -0.990 132.466  0.00  0.00    +0.136 C 
ENDBRANCH  25  26
ENDBRANCH   1  25
BRANCH   6  29
ATOM     29  O   LIG A   1      -7.060  -2.652 129.331  0.00  0.00    -0.458 OA
BRANCH  29  30
ATOM     30  C   LIG A   1      -5.802  -3.167 129.483  0.00  0.00    +0.304 C 
ATOM     31  O   LIG A   1      -4.873  -3.024 128.697  0.00  0.00    -0.251 OA
ATOM     32  C   LIG A   1      -5.685  -3.992 130.729  0.00  0.00    +0.136 C 
ENDBRANCH  29  30
ENDBRANCH   6  29
TORSDOF 6
ENDMDL
MODEL 5
REMARK VINA RESULT:      -6.9      4.799      8.557
REMARK  Name = NuBBE_1718
REMARK  12 active torsions:
REMARK  status: ('A' for Active; 'I' for Inactive)
REMARK    1  A    between atoms: O_1  and  C_2
REMARK    2  A    between atoms: O_1  and  C_5
REMARK    3  A    between atoms: C_2  and  C_4
REMARK    4  A    between atoms: C_11  and  C_26
REMARK    5  A    between atoms: C_14  and  O_16
REMARK    6  A    between atoms: O_16  and  C_17
REMARK    7  A    between atoms: C_17  and  C_19
REMARK    8  A    between atoms: C_20  and  C_21
REMARK    9  A    between atoms: C_20  and  C_22
REMARK   10  A    between atoms: C_30  and  C_32
REMARK   11  A    between atoms: C_32  and  O_34
REMARK   12  A    between atoms: O_34  and  C_35
REMARK                            x       y       z     vdW  Elec       q    Type
REMARK                         _______ _______ _______ _____ _____    ______ ____
ROOT
ATOM      1  C   LIG A   1      -5.681   5.050 130.211  0.00  0.00    +0.222 C 
ATOM      2  C   LIG A   1      -5.644   3.676 130.943  0.00  0.00    +0.056 C 
ATOM      3  C   LIG A   1      -4.163   3.353 131.390  0.00  0.00    +0.010 C 
ATOM      4  C   LIG A   1      -3.637   4.471 132.381  0.00  0.00    -0.022 C 
ATOM      5  C   LIG A   1      -3.536   5.821 131.585  0.00  0.00    +0.045 C 
ATOM      6  C   LIG A   1      -4.815   6.220 130.798  0.00  0.00    +0.221 C 
ATOM      7  C   LIG A   1      -2.762   6.944 132.406  0.00  0.00    -0.028 C 
ATOM      8  C   LIG A   1      -2.830   8.353 131.785  0.00  0.00    +0.011 C 
ATOM      9  C   LIG A   1      -3.240   7.147 133.865  0.00  0.00    +0.011 C 
ATOM     10  C   LIG A   1      -1.270   6.497 132.451  0.00  0.00    +0.007 C 
ATOM     11  C   LIG A   1      -1.063   4.978 132.353  0.00  0.00    +0.001 C 
ATOM     12  C   LIG A   1      -2.204   4.145 132.948  0.00  0.00    +0.007 C 
ATOM     13  C   LIG A   1      -4.648   4.550 133.568  0.00  0.00    +0.012 C 
ATOM     14  C   LIG A   1      -3.987   1.926 131.992  0.00  0.00    +0.079 C 
ATOM     15  C   LIG A   1      -4.867   0.956 131.332  0.00  0.00    +0.109 A 
ATOM     16  C   LIG A   1      -5.911   1.181 130.475  0.00  0.00    +0.008 A 
ATOM     17  C   LIG A   1      -6.319   2.552 130.055  0.00  0.00    +0.138 C 
ATOM     18  C   LIG A   1      -6.386  -0.109 130.120  0.00  0.00    +0.045 A 
ATOM     19  C   LIG A   1      -5.623  -1.011 130.831  0.00  0.00    +0.195 A 
ATOM     20  O   LIG A   1      -4.687  -0.363 131.573  0.00  0.00    -0.468 OA
ENDROOT
BRANCH  17  21
ATOM     21  C   LIG A   1      -7.845   2.669 130.075  0.00  0.00    +0.315 C 
ATOM     22  O   LIG A   1      -8.581   2.696 129.091  0.00  0.00    -0.250 OA
BRANCH  21  23
ATOM     23  O   LIG A   1      -8.275   2.619 131.366  0.00  0.00    -0.468 OA
ATOM     24  C   LIG A   1      -9.657   2.325 131.561  0.00  0.00    +0.280 C 
ENDBRANCH  21  23
ENDBRANCH  17  21
BRANCH   1  25
ATOM     25  O   LIG A   1      -7.047   5.498 129.941  0.00  0.00    -0.458 OA
BRANCH  25  26
ATOM     26  C   LIG A   1      -7.590   6.477 130.718  0.00  0.00    +0.304 C 
ATOM     27  O   LIG A   1      -7.763   7.634 130.376  0.00  0.00    -0.251 OA
ATOM     28  C   LIG A   1      -7.941   5.945 132.074  0.00  0.00    +0.136 C 
ENDBRANCH  25  26
ENDBRANCH   1  25
BRANCH   6  29
ATOM     29  O   LIG A   1      -4.475   7.146 129.689  0.00  0.00    -0.458 OA
BRANCH  29  30
ATOM     30  C   LIG A   1      -3.886   6.670 128.550  0.00  0.00    +0.304 C 
ATOM     31  O   LIG A   1      -4.478   6.295 127.545  0.00  0.00    -0.251 OA
ATOM     32  C   LIG A   1      -2.395   6.605 128.679  0.00  0.00    +0.136 C 
ENDBRANCH  29  30
ENDBRANCH   6  29
TORSDOF 6
ENDMDL
MODEL 6
REMARK VINA RESULT:      -6.9      3.719      6.840
REMARK  Name = NuBBE_1718
REMARK  12 active torsions:
REMARK  status: ('A' for Active; 'I' for Inactive)
REMARK    1  A    between atoms: O_1  and  C_2
REMARK    2  A    between atoms: O_1  and  C_5
REMARK    3  A    between atoms: C_2  and  C_4
REMARK    4  A    between atoms: C_11  and  C_26
REMARK    5  A    between atoms: C_14  and  O_16
REMARK    6  A    between atoms: O_16  and  C_17
REMARK    7  A    between atoms: C_17  and  C_19
REMARK    8  A    between atoms: C_20  and  C_21
REMARK    9  A    between atoms: C_20  and  C_22
REMARK   10  A    between atoms: C_30  and  C_32
REMARK   11  A    between atoms: C_32  and  O_34
REMARK   12  A    between atoms: O_34  and  C_35
REMARK                            x       y       z     vdW  Elec       q    Type
REMARK                         _______ _______ _______ _____ _____    ______ ____
ROOT
ATOM      1  C   LIG A   1      -6.767   4.288 129.230  0.00  0.00    +0.222 C 
ATOM      2  C   LIG A   1      -5.398   4.295 129.973  0.00  0.00    +0.056 C 
ATOM      3  C   LIG A   1      -5.637   4.520 131.519  0.00  0.00    +0.010 C 
ATOM      4  C   LIG A   1      -6.529   3.352 132.109  0.00  0.00    -0.022 C 
ATOM      5  C   LIG A   1      -7.956   3.453 131.459  0.00  0.00    +0.045 C 
ATOM      6  C   LIG A   1      -7.970   3.543 129.908  0.00  0.00    +0.221 C 
ATOM      7  C   LIG A   1      -9.010   2.503 132.180  0.00  0.00    -0.028 C 
ATOM      8  C   LIG A   1     -10.363   2.378 131.451  0.00  0.00    +0.011 C 
ATOM      9  C   LIG A   1      -8.552   1.039 132.386  0.00  0.00    +0.011 C 
ATOM     10  C   LIG A   1      -9.264   3.125 133.587  0.00  0.00    +0.007 C 
ATOM     11  C   LIG A   1      -8.087   3.947 134.135  0.00  0.00    +0.001 C 
ATOM     12  C   LIG A   1      -6.709   3.463 133.670  0.00  0.00    +0.007 C 
ATOM     13  C   LIG A   1      -5.813   2.007 131.773  0.00  0.00    +0.012 C 
ATOM     14  C   LIG A   1      -4.321   4.702 132.336  0.00  0.00    +0.079 C 
ATOM     15  C   LIG A   1      -3.303   5.416 131.557  0.00  0.00    +0.109 A 
ATOM     16  C   LIG A   1      -3.292   5.714 130.220  0.00  0.00    +0.008 A 
ATOM     17  C   LIG A   1      -4.406   5.332 129.306  0.00  0.00    +0.138 C 
ATOM     18  C   LIG A   1      -2.089   6.439 130.011  0.00  0.00    +0.045 A 
ATOM     19  C   LIG A   1      -1.444   6.477 131.230  0.00  0.00    +0.195 A 
ATOM     20  O   LIG A   1      -2.188   5.855 132.182  0.00  0.00    -0.468 OA
ENDROOT
BRANCH  17  21
ATOM     21  C   LIG A   1      -3.837   4.791 127.991  0.00  0.00    +0.315 C 
ATOM     22  O   LIG A   1      -3.908   5.339 126.893  0.00  0.00    -0.250 OA
BRANCH  21  23
ATOM     23  O   LIG A   1      -3.131   3.656 128.250  0.00  0.00    -0.468 OA
ATOM     24  C   LIG A   1      -2.238   3.222 127.226  0.00  0.00    +0.280 C 
ENDBRANCH  21  23
ENDBRANCH  17  21
BRANCH   1  25
ATOM     25  O   LIG A   1      -6.634   3.894 127.827  0.00  0.00    -0.458 OA
BRANCH  25  26
ATOM     26  C   LIG A   1      -6.690   2.572 127.501  0.00  0.00    +0.304 C 
ATOM     27  O   LIG A   1      -5.888   1.724 127.856  0.00  0.00    -0.251 OA
ATOM     28  C   LIG A   1      -7.873   2.290 126.627  0.00  0.00    +0.136 C 
ENDBRANCH  25  26
ENDBRANCH   1  25
BRANCH   6  29
ATOM     29  O   LIG A   1      -9.230   4.169 129.435  0.00  0.00    -0.458 OA
BRANCH  29  30
ATOM     30  C   LIG A   1      -9.301   5.523 129.257  0.00  0.00    +0.304 C 
ATOM     31  O   LIG A   1      -9.346   6.099 128.177  0.00  0.00    -0.251 OA
ATOM     32  C   LIG A   1      -9.268   6.258 130.563  0.00  0.00    +0.136 C 
ENDBRANCH  29  30
ENDBRANCH   6  29
TORSDOF 6
ENDMDL
MODEL 7
REMARK VINA RESULT:      -6.8      2.290      7.297
REMARK  Name = NuBBE_1718
REMARK  12 active torsions:
REMARK  status: ('A' for Active; 'I' for Inactive)
REMARK    1  A    between atoms: O_1  and  C_2
REMARK    2  A    between atoms: O_1  and  C_5
REMARK    3  A    between atoms: C_2  and  C_4
REMARK    4  A    between atoms: C_11  and  C_26
REMARK    5  A    between atoms: C_14  and  O_16
REMARK    6  A    between atoms: O_16  and  C_17
REMARK    7  A    between atoms: C_17  and  C_19
REMARK    8  A    between atoms: C_20  and  C_21
REMARK    9  A    between atoms: C_20  and  C_22
REMARK   10  A    between atoms: C_30  and  C_32
REMARK   11  A    between atoms: C_32  and  O_34
REMARK   12  A    between atoms: O_34  and  C_35
REMARK                            x       y       z     vdW  Elec       q    Type
REMARK                         _______ _______ _______ _____ _____    ______ ____
ROOT
ATOM      1  C   LIG A   1      -7.790   3.373 127.827  0.00  0.00    +0.222 C 
ATOM      2  C   LIG A   1      -7.024   3.137 126.492  0.00  0.00    +0.056 C 
ATOM      3  C   LIG A   1      -5.933   4.265 126.301  0.00  0.00    +0.010 C 
ATOM      4  C   LIG A   1      -4.895   4.227 127.496  0.00  0.00    -0.022 C 
ATOM      5  C   LIG A   1      -5.654   4.616 128.815  0.00  0.00    +0.045 C 
ATOM      6  C   LIG A   1      -6.961   3.820 129.083  0.00  0.00    +0.221 C 
ATOM      7  C   LIG A   1      -4.655   4.876 130.026  0.00  0.00    -0.028 C 
ATOM      8  C   LIG A   1      -5.339   5.033 131.399  0.00  0.00    +0.011 C 
ATOM      9  C   LIG A   1      -3.589   3.777 130.255  0.00  0.00    +0.011 C 
ATOM     10  C   LIG A   1      -3.908   6.203 129.695  0.00  0.00    +0.007 C 
ATOM     11  C   LIG A   1      -3.792   6.504 128.192  0.00  0.00    +0.001 C 
ATOM     12  C   LIG A   1      -3.719   5.258 127.303  0.00  0.00    +0.007 C 
ATOM     13  C   LIG A   1      -4.303   2.784 127.550  0.00  0.00    +0.012 C 
ATOM     14  C   LIG A   1      -5.215   4.214 124.917  0.00  0.00    +0.079 C 
ATOM     15  C   LIG A   1      -6.130   3.779 123.857  0.00  0.00    +0.109 A 
ATOM     16  C   LIG A   1      -7.381   3.232 123.966  0.00  0.00    +0.008 A 
ATOM     17  C   LIG A   1      -8.038   2.996 125.284  0.00  0.00    +0.138 C 
ATOM     18  C   LIG A   1      -7.818   3.032 122.630  0.00  0.00    +0.045 A 
ATOM     19  C   LIG A   1      -6.776   3.428 121.820  0.00  0.00    +0.195 A 
ATOM     20  O   LIG A   1      -5.740   3.892 122.567  0.00  0.00    -0.468 OA
ENDROOT
BRANCH  17  21
ATOM     21  C   LIG A   1      -8.719   1.625 125.288  0.00  0.00    +0.315 C 
ATOM     22  O   LIG A   1      -9.929   1.418 125.229  0.00  0.00    -0.250 OA
BRANCH  21  23
ATOM     23  O   LIG A   1      -7.762   0.657 125.246  0.00  0.00    -0.468 OA
ATOM     24  C   LIG A   1      -8.228  -0.687 125.130  0.00  0.00    +0.280 C 
ENDBRANCH  21  23
ENDBRANCH  17  21
BRANCH   1  25
ATOM     25  O   LIG A   1      -8.681   2.261 128.159  0.00  0.00    -0.458 OA
BRANCH  25  26
ATOM     26  C   LIG A   1      -8.193   1.214 128.883  0.00  0.00    +0.304 C 
ATOM     27  O   LIG A   1      -7.444   0.351 128.457  0.00  0.00    -0.251 OA
ATOM     28  C   LIG A   1      -8.712   1.251 130.287  0.00  0.00    +0.136 C 
ENDBRANCH  25  26
ENDBRANCH   1  25
BRANCH   6  29
ATOM     29  O   LIG A   1      -7.860   4.584 129.984  0.00  0.00    -0.458 OA
BRANCH  29  30
ATOM     30  C   LIG A   1      -9.037   5.095 129.510  0.00  0.00    +0.304 C 
ATOM     31  O   LIG A   1      -9.152   5.852 128.554  0.00  0.00    -0.251 OA
ATOM     32  C   LIG A   1     -10.207   4.657 130.338  0.00  0.00    +0.136 C 
ENDBRANCH  29  30
ENDBRANCH   6  29
TORSDOF 6
ENDMDL
MODEL 8
REMARK VINA RESULT:      -6.8      5.667      8.287
REMARK  Name = NuBBE_1718
REMARK  12 active torsions:
REMARK  status: ('A' for Active; 'I' for Inactive)
REMARK    1  A    between atoms: O_1  and  C_2
REMARK    2  A    between atoms: O_1  and  C_5
REMARK    3  A    between atoms: C_2  and  C_4
REMARK    4  A    between atoms: C_11  and  C_26
REMARK    5  A    between atoms: C_14  and  O_16
REMARK    6  A    between atoms: O_16  and  C_17
REMARK    7  A    between atoms: C_17  and  C_19
REMARK    8  A    between atoms: C_20  and  C_21
REMARK    9  A    between atoms: C_20  and  C_22
REMARK   10  A    between atoms: C_30  and  C_32
REMARK   11  A    between atoms: C_32  and  O_34
REMARK   12  A    between atoms: O_34  and  C_35
REMARK                            x       y       z     vdW  Elec       q    Type
REMARK                         _______ _______ _______ _____ _____    ______ ____
ROOT
ATOM      1  C   LIG A   1      -5.920   5.796 130.609  0.00  0.00    +0.222 C 
ATOM      2  C   LIG A   1      -4.813   5.908 131.698  0.00  0.00    +0.056 C 
ATOM      3  C   LIG A   1      -5.479   5.914 133.131  0.00  0.00    +0.010 C 
ATOM      4  C   LIG A   1      -6.286   4.572 133.364  0.00  0.00    -0.022 C 
ATOM      5  C   LIG A   1      -7.491   4.546 132.356  0.00  0.00    +0.045 C 
ATOM      6  C   LIG A   1      -7.116   4.815 130.872  0.00  0.00    +0.221 C 
ATOM      7  C   LIG A   1      -8.522   3.379 132.685  0.00  0.00    -0.028 C 
ATOM      8  C   LIG A   1      -9.599   3.152 131.605  0.00  0.00    +0.011 C 
ATOM      9  C   LIG A   1      -7.895   1.980 132.899  0.00  0.00    +0.011 C 
ATOM     10  C   LIG A   1      -9.233   3.790 134.010  0.00  0.00    +0.007 C 
ATOM     11  C   LIG A   1      -8.394   4.699 134.921  0.00  0.00    +0.001 C 
ATOM     12  C   LIG A   1      -6.881   4.472 134.819  0.00  0.00    +0.007 C 
ATOM     13  C   LIG A   1      -5.293   3.389 133.138  0.00  0.00    +0.012 C 
ATOM     14  C   LIG A   1      -4.470   6.182 134.290  0.00  0.00    +0.079 C 
ATOM     15  C   LIG A   1      -3.419   7.119 133.876  0.00  0.00    +0.109 A 
ATOM     16  C   LIG A   1      -3.111   7.571 132.621  0.00  0.00    +0.008 A 
ATOM     17  C   LIG A   1      -3.869   7.146 131.409  0.00  0.00    +0.138 C 
ATOM     18  C   LIG A   1      -2.033   8.477 132.806  0.00  0.00    +0.045 A 
ATOM     19  C   LIG A   1      -1.743   8.462 134.154  0.00  0.00    +0.195 A 
ATOM     20  O   LIG A   1      -2.594   7.634 134.816  0.00  0.00    -0.468 OA
ENDROOT
BRANCH  17  21
ATOM     21  C   LIG A   1      -2.896   6.848 130.265  0.00  0.00    +0.315 C 
ATOM     22  O   LIG A   1      -2.044   5.962 130.253  0.00  0.00    -0.250 OA
BRANCH  21  23
ATOM     23  O   LIG A   1      -3.203   7.647 129.206  0.00  0.00    -0.468 OA
ATOM     24  C   LIG A   1      -2.623   7.286 127.954  0.00  0.00    +0.280 C 
ENDBRANCH  21  23
ENDBRANCH  17  21
BRANCH   1  25
ATOM     25  O   LIG A   1      -5.363   5.592 129.271  0.00  0.00    -0.458 OA
BRANCH  25  26
ATOM     26  C   LIG A   1      -5.385   4.342 128.728  0.00  0.00    +0.304 C 
ATOM     27  O   LIG A   1      -6.192   3.945 127.905  0.00  0.00    -0.251 OA
ATOM     28  C   LIG A   1      -4.281   3.500 129.289  0.00  0.00    +0.136 C 
ENDBRANCH  25  26
ENDBRANCH   1  25
BRANCH   6  29
ATOM     29  O   LIG A   1      -8.296   5.308 130.119  0.00  0.00    -0.458 OA
BRANCH  29  30
ATOM     30  C   LIG A   1      -8.782   6.566 130.348  0.00  0.00    +0.304 C 
ATOM     31  O   LIG A   1      -8.140   7.606 130.261  0.00  0.00    -0.251 OA
ATOM     32  C   LIG A   1     -10.217   6.538 130.780  0.00  0.00    +0.136 C 
ENDBRANCH  29  30
ENDBRANCH   6  29
TORSDOF 6
ENDMDL
MODEL 9
REMARK VINA RESULT:      -6.8      1.839      5.184
REMARK  Name = NuBBE_1718
REMARK  12 active torsions:
REMARK  status: ('A' for Active; 'I' for Inactive)
REMARK    1  A    between atoms: O_1  and  C_2
REMARK    2  A    between atoms: O_1  and  C_5
REMARK    3  A    between atoms: C_2  and  C_4
REMARK    4  A    between atoms: C_11  and  C_26
REMARK    5  A    between atoms: C_14  and  O_16
REMARK    6  A    between atoms: O_16  and  C_17
REMARK    7  A    between atoms: C_17  and  C_19
REMARK    8  A    between atoms: C_20  and  C_21
REMARK    9  A    between atoms: C_20  and  C_22
REMARK   10  A    between atoms: C_30  and  C_32
REMARK   11  A    between atoms: C_32  and  O_34
REMARK   12  A    between atoms: O_34  and  C_35
REMARK                            x       y       z     vdW  Elec       q    Type
REMARK                         _______ _______ _______ _____ _____    ______ ____
ROOT
ATOM      1  C   LIG A   1      -6.585   0.092 127.698  0.00  0.00    +0.222 C 
ATOM      2  C   LIG A   1      -6.893   1.068 126.524  0.00  0.00    +0.056 C 
ATOM      3  C   LIG A   1      -6.917   0.267 125.162  0.00  0.00    +0.010 C 
ATOM      4  C   LIG A   1      -8.043  -0.847 125.205  0.00  0.00    -0.022 C 
ATOM      5  C   LIG A   1      -7.640  -1.906 126.292  0.00  0.00    +0.045 C 
ATOM      6  C   LIG A   1      -7.274  -1.319 127.683  0.00  0.00    +0.221 C 
ATOM      7  C   LIG A   1      -8.555  -3.207 126.228  0.00  0.00    -0.028 C 
ATOM      8  C   LIG A   1      -8.368  -4.181 127.409  0.00  0.00    +0.011 C 
ATOM      9  C   LIG A   1     -10.081  -2.944 126.189  0.00  0.00    +0.011 C 
ATOM     10  C   LIG A   1      -8.166  -3.947 124.913  0.00  0.00    +0.007 C 
ATOM     11  C   LIG A   1      -7.619  -3.028 123.810  0.00  0.00    +0.001 C 
ATOM     12  C   LIG A   1      -8.189  -1.606 123.832  0.00  0.00    +0.007 C 
ATOM     13  C   LIG A   1      -9.389  -0.131 125.537  0.00  0.00    +0.012 C 
ATOM     14  C   LIG A   1      -7.059   1.176 123.903  0.00  0.00    +0.079 C 
ATOM     15  C   LIG A   1      -6.359   2.452 124.084  0.00  0.00    +0.109 A 
ATOM     16  C   LIG A   1      -5.831   2.992 125.226  0.00  0.00    +0.008 A 
ATOM     17  C   LIG A   1      -5.893   2.296 126.543  0.00  0.00    +0.138 C 
ATOM     18  C   LIG A   1      -5.247   4.221 124.820  0.00  0.00    +0.045 A 
ATOM     19  C   LIG A   1      -5.512   4.349 123.473  0.00  0.00    +0.195 A 
ATOM     20  O   LIG A   1      -6.190   3.264 123.016  0.00  0.00    -0.468 OA
ENDROOT
BRANCH  17  21
ATOM     21  C   LIG A   1      -6.261   3.295 127.643  0.00  0.00    +0.315 C 
ATOM     22  O   LIG A   1      -5.474   3.859 128.400  0.00  0.00    -0.250 OA
BRANCH  21  23
ATOM     23  O   LIG A   1      -7.596   3.555 127.574  0.00  0.00    -0.468 OA
ATOM     24  C   LIG A   1      -8.187   4.134 128.736  0.00  0.00    +0.280 C 
ENDBRANCH  21  23
ENDBRANCH  17  21
BRANCH   1  25
ATOM     25  O   LIG A   1      -6.736   0.731 129.005  0.00  0.00    -0.458 OA
BRANCH  25  26
ATOM     26  C   LIG A   1      -5.689   0.713 129.877  0.00  0.00    +0.304 C 
ATOM     27  O   LIG A   1      -4.520   0.545 129.572  0.00  0.00    -0.251 OA
ATOM     28  C   LIG A   1      -6.164   0.913 131.283  0.00  0.00    +0.136 C 
ENDBRANCH  25  26
ENDBRANCH   1  25
BRANCH   6  29
ATOM     29  O   LIG A   1      -6.412  -2.263 128.436  0.00  0.00    -0.458 OA
BRANCH  29  30
ATOM     30  C   LIG A   1      -6.771  -2.670 129.692  0.00  0.00    +0.304 C 
ATOM     31  O   LIG A   1      -7.689  -2.205 130.357  0.00  0.00    -0.251 OA
ATOM     32  C   LIG A   1      -5.864  -3.745 130.210  0.00  0.00    +0.136 C 
ENDBRANCH  29  30
ENDBRANCH   6  29
TORSDOF 6
ENDMDL
