MODEL 1
REMARK VINA RESULT:      -6.9      0.000      0.000
REMARK  Name = NuBBE_2477
REMARK  15 active torsions:
REMARK  status: ('A' for Active; 'I' for Inactive)
REMARK    1  A    between atoms: C_1  and  O_2
REMARK    2  A    between atoms: O_2  and  C_3
REMARK    3  A    between atoms: C_5  and  C_6
REMARK    4  A    between atoms: C_6  and  C_7
REMARK    5  A    between atoms: C_9  and  C_11
REMARK    6  A    between atoms: C_11  and  O_12
REMARK    7  A    between atoms: O_12  and  C_13
REMARK    8  A    between atoms: C_13  and  C_14
REMARK    9  A    between atoms: C_16  and  C_18
REMARK   10  A    between atoms: C_21  and  O_22
REMARK   11  A    between atoms: O_22  and  C_23
REMARK   12  A    between atoms: C_24  and  O_25
REMARK   13  A    between atoms: O_25  and  C_26
REMARK   14  A    between atoms: C_32  and  O_33
REMARK   15  A    between atoms: O_33  and  C_34
REMARK                            x       y       z     vdW  Elec       q    Type
REMARK                         _______ _______ _______ _____ _____    ______ ____
ROOT
ATOM      1  C   LIG A   1      -8.862   3.930 130.865  0.00  0.00    +0.028 C 
ATOM      2  C   LIG A   1      -9.118   5.436 130.877  0.00  0.00    +0.066 C 
ATOM      3  C   LIG A   1     -10.590   5.512 131.272  0.00  0.00    +0.155 C 
ATOM      4  O   LIG A   1     -11.170   4.271 130.774  0.00  0.00    -0.371 OA
ATOM      5  C   LIG A   1     -10.128   3.499 130.143  0.00  0.00    +0.165 C 
ENDROOT
BRANCH   3   6
ATOM      6  C   LIG A   1     -11.336   6.673 130.664  0.00  0.00    -0.015 A 
ATOM      7  C   LIG A   1     -12.416   7.278 131.289  0.00  0.00    +0.010 A 
ATOM      8  C   LIG A   1     -13.052   8.365 130.687  0.00  0.00    +0.050 A 
ATOM      9  C   LIG A   1     -12.617   8.888 129.454  0.00  0.00    +0.162 A 
ATOM     10  C   LIG A   1     -11.542   8.263 128.795  0.00  0.00    +0.162 A 
ATOM     11  C   LIG A   1     -10.929   7.175 129.425  0.00  0.00    +0.055 A 
BRANCH   9  12
ATOM     12  O   LIG A   1     -13.237   9.975 128.877  0.00  0.00    -0.491 OA
ATOM     13  C   LIG A   1     -13.583  11.023 129.790  0.00  0.00    +0.277 C 
ENDBRANCH   9  12
BRANCH  10  14
ATOM     14  O   LIG A   1     -11.085   8.725 127.577  0.00  0.00    -0.491 OA
ATOM     15  C   LIG A   1     -10.961   7.719 126.556  0.00  0.00    +0.277 C 
ENDBRANCH  10  14
ENDBRANCH   3   6
BRANCH   1  16
ATOM     16  C   LIG A   1      -8.840   3.227 132.245  0.00  0.00    +0.041 C 
BRANCH  16  19
ATOM     17  C   LIG A   1      -5.857   3.395 134.658  0.00  0.00    +0.162 A 
ATOM     18  C   LIG A   1      -7.175   3.410 134.158  0.00  0.00    +0.053 A 
ATOM     19  C   LIG A   1      -7.454   3.022 132.831  0.00  0.00    -0.043 A 
ATOM     20  C   LIG A   1      -6.398   2.567 132.036  0.00  0.00    +0.007 A 
ATOM     21  C   LIG A   1      -5.101   2.522 132.527  0.00  0.00    +0.050 A 
ATOM     22  C   LIG A   1      -4.819   2.949 133.820  0.00  0.00    +0.162 A 
BRANCH  17  24
ATOM     23  C   LIG A   1      -5.766   5.278 136.108  0.00  0.00    +0.277 C 
ATOM     24  O   LIG A   1      -5.711   3.860 135.948  0.00  0.00    -0.491 OA
ENDBRANCH  17  24
BRANCH  22  25
ATOM     25  O   LIG A   1      -3.516   3.088 134.211  0.00  0.00    -0.491 OA
ATOM     26  C   LIG A   1      -2.547   3.135 133.178  0.00  0.00    +0.277 C 
ENDBRANCH  22  25
ENDBRANCH  16  19
ENDBRANCH   1  16
BRANCH   2  27
ATOM     27  C   LIG A   1      -8.156   6.324 131.661  0.00  0.00    +0.238 C 
BRANCH  27  28
ATOM     28  O   LIG A   1      -7.344   7.186 130.834  0.00  0.00    -0.464 OA
BRANCH  28  29
ATOM     29  C   LIG A   1      -5.999   7.077 130.922  0.00  0.00    +0.304 C 
ATOM     30  C   LIG A   1      -5.537   6.285 132.084  0.00  0.00    +0.136 C 
ATOM     31  O   LIG A   1      -5.181   7.619 130.148  0.00  0.00    -0.251 OA
ENDBRANCH  28  29
ENDBRANCH  27  28
ENDBRANCH   2  27
TORSDOF 10
ENDMDL
MODEL 2
REMARK VINA RESULT:      -6.8      2.150      2.806
REMARK  Name = NuBBE_2477
REMARK  15 active torsions:
REMARK  status: ('A' for Active; 'I' for Inactive)
REMARK    1  A    between atoms: C_1  and  O_2
REMARK    2  A    between atoms: O_2  and  C_3
REMARK    3  A    between atoms: C_5  and  C_6
REMARK    4  A    between atoms: C_6  and  C_7
REMARK    5  A    between atoms: C_9  and  C_11
REMARK    6  A    between atoms: C_11  and  O_12
REMARK    7  A    between atoms: O_12  and  C_13
REMARK    8  A    between atoms: C_13  and  C_14
REMARK    9  A    between atoms: C_16  and  C_18
REMARK   10  A    between atoms: C_21  and  O_22
REMARK   11  A    between atoms: O_22  and  C_23
REMARK   12  A    between atoms: C_24  and  O_25
REMARK   13  A    between atoms: O_25  and  C_26
REMARK   14  A    between atoms: C_32  and  O_33
REMARK   15  A    between atoms: O_33  and  C_34
REMARK                            x       y       z     vdW  Elec       q    Type
REMARK                         _______ _______ _______ _____ _____    ______ ____
ROOT
ATOM      1  C   LIG A   1      -8.914   3.928 131.154  0.00  0.00    +0.028 C 
ATOM      2  C   LIG A   1      -9.138   5.436 131.059  0.00  0.00    +0.066 C 
ATOM      3  C   LIG A   1     -10.616   5.568 131.414  0.00  0.00    +0.155 C 
ATOM      4  O   LIG A   1     -11.211   4.307 130.988  0.00  0.00    -0.371 OA
ATOM      5  C   LIG A   1     -10.173   3.474 130.435  0.00  0.00    +0.165 C 
ENDROOT
BRANCH   3   6
ATOM      6  C   LIG A   1     -11.324   6.699 130.712  0.00  0.00    -0.015 A 
ATOM      7  C   LIG A   1     -12.451   7.315 131.235  0.00  0.00    +0.010 A 
ATOM      8  C   LIG A   1     -13.050   8.373 130.549  0.00  0.00    +0.050 A 
ATOM      9  C   LIG A   1     -12.530   8.856 129.333  0.00  0.00    +0.162 A 
ATOM     10  C   LIG A   1     -11.406   8.219 128.778  0.00  0.00    +0.162 A 
ATOM     11  C   LIG A   1     -10.832   7.161 129.489  0.00  0.00    +0.055 A 
BRANCH   9  12
ATOM     12  O   LIG A   1     -13.115   9.915 128.674  0.00  0.00    -0.491 OA
ATOM     13  C   LIG A   1     -13.620  10.949 129.528  0.00  0.00    +0.277 C 
ENDBRANCH   9  12
BRANCH  10  14
ATOM     14  O   LIG A   1     -10.865   8.642 127.580  0.00  0.00    -0.491 OA
ATOM     15  C   LIG A   1     -10.963   7.693 126.502  0.00  0.00    +0.277 C 
ENDBRANCH  10  14
ENDBRANCH   3   6
BRANCH   1  16
ATOM     16  C   LIG A   1      -8.935   3.320 132.579  0.00  0.00    +0.041 C 
BRANCH  16  19
ATOM     17  C   LIG A   1      -7.448  -0.220 132.515  0.00  0.00    +0.162 A 
ATOM     18  C   LIG A   1      -8.223   0.911 132.187  0.00  0.00    +0.053 A 
ATOM     19  C   LIG A   1      -7.977   2.162 132.790  0.00  0.00    -0.043 A 
ATOM     20  C   LIG A   1      -6.906   2.269 133.683  0.00  0.00    +0.007 A 
ATOM     21  C   LIG A   1      -6.119   1.169 133.992  0.00  0.00    +0.050 A 
ATOM     22  C   LIG A   1      -6.392  -0.076 133.433  0.00  0.00    +0.162 A 
BRANCH  17  24
ATOM     23  C   LIG A   1      -7.782  -1.402 130.478  0.00  0.00    +0.277 C 
ATOM     24  O   LIG A   1      -7.834  -1.395 131.905  0.00  0.00    -0.491 OA
ENDBRANCH  17  24
BRANCH  22  25
ATOM     25  O   LIG A   1      -5.738  -1.180 133.904  0.00  0.00    -0.491 OA
ATOM     26  C   LIG A   1      -6.065  -1.597 135.218  0.00  0.00    +0.277 C 
ENDBRANCH  22  25
ENDBRANCH  16  19
ENDBRANCH   1  16
BRANCH   2  27
ATOM     27  C   LIG A   1      -8.174   6.357 131.802  0.00  0.00    +0.238 C 
BRANCH  27  28
ATOM     28  O   LIG A   1      -7.366   7.184 130.937  0.00  0.00    -0.464 OA
BRANCH  28  29
ATOM     29  C   LIG A   1      -6.023   7.022 130.967  0.00  0.00    +0.304 C 
ATOM     30  C   LIG A   1      -5.548   6.171 132.082  0.00  0.00    +0.136 C 
ATOM     31  O   LIG A   1      -5.215   7.561 130.182  0.00  0.00    -0.251 OA
ENDBRANCH  28  29
ENDBRANCH  27  28
ENDBRANCH   2  27
TORSDOF 10
ENDMDL
MODEL 3
REMARK VINA RESULT:      -6.7      2.249      3.088
REMARK  Name = NuBBE_2477
REMARK  15 active torsions:
REMARK  status: ('A' for Active; 'I' for Inactive)
REMARK    1  A    between atoms: C_1  and  O_2
REMARK    2  A    between atoms: O_2  and  C_3
REMARK    3  A    between atoms: C_5  and  C_6
REMARK    4  A    between atoms: C_6  and  C_7
REMARK    5  A    between atoms: C_9  and  C_11
REMARK    6  A    between atoms: C_11  and  O_12
REMARK    7  A    between atoms: O_12  and  C_13
REMARK    8  A    between atoms: C_13  and  C_14
REMARK    9  A    between atoms: C_16  and  C_18
REMARK   10  A    between atoms: C_21  and  O_22
REMARK   11  A    between atoms: O_22  and  C_23
REMARK   12  A    between atoms: C_24  and  O_25
REMARK   13  A    between atoms: O_25  and  C_26
REMARK   14  A    between atoms: C_32  and  O_33
REMARK   15  A    between atoms: O_33  and  C_34
REMARK                            x       y       z     vdW  Elec       q    Type
REMARK                         _______ _______ _______ _____ _____    ______ ____
ROOT
ATOM      1  C   LIG A   1      -8.639   3.829 131.049  0.00  0.00    +0.028 C 
ATOM      2  C   LIG A   1      -9.026   5.294 131.242  0.00  0.00    +0.066 C 
ATOM      3  C   LIG A   1     -10.547   5.218 131.347  0.00  0.00    +0.155 C 
ATOM      4  O   LIG A   1     -10.911   4.046 130.560  0.00  0.00    -0.371 OA
ATOM      5  C   LIG A   1      -9.706   3.453 130.036  0.00  0.00    +0.165 C 
ENDROOT
BRANCH   3   6
ATOM      6  C   LIG A   1     -11.268   6.418 130.789  0.00  0.00    -0.015 A 
ATOM      7  C   LIG A   1     -12.352   7.002 131.426  0.00  0.00    +0.010 A 
ATOM      8  C   LIG A   1     -12.965   8.128 130.872  0.00  0.00    +0.050 A 
ATOM      9  C   LIG A   1     -12.501   8.711 129.678  0.00  0.00    +0.162 A 
ATOM     10  C   LIG A   1     -11.421   8.109 129.006  0.00  0.00    +0.162 A 
ATOM     11  C   LIG A   1     -10.832   6.982 129.587  0.00  0.00    +0.055 A 
BRANCH   9  12
ATOM     12  O   LIG A   1     -13.098   9.834 129.150  0.00  0.00    -0.491 OA
ATOM     13  C   LIG A   1     -13.435  10.843 130.110  0.00  0.00    +0.277 C 
ENDBRANCH   9  12
BRANCH  10  14
ATOM     14  O   LIG A   1     -10.937   8.630 127.823  0.00  0.00    -0.491 OA
ATOM     15  C   LIG A   1     -10.859   7.692 126.734  0.00  0.00    +0.277 C 
ENDBRANCH  10  14
ENDBRANCH   3   6
BRANCH   1  16
ATOM     16  C   LIG A   1      -8.809   2.907 132.283  0.00  0.00    +0.041 C 
BRANCH  16  19
ATOM     17  C   LIG A   1      -6.159   0.175 131.768  0.00  0.00    +0.162 A 
ATOM     18  C   LIG A   1      -6.763   1.412 132.075  0.00  0.00    +0.053 A 
ATOM     19  C   LIG A   1      -8.166   1.538 132.146  0.00  0.00    -0.043 A 
ATOM     20  C   LIG A   1      -8.946   0.394 131.959  0.00  0.00    +0.007 A 
ATOM     21  C   LIG A   1      -8.361  -0.834 131.684  0.00  0.00    +0.050 A 
ATOM     22  C   LIG A   1      -6.979  -0.949 131.567  0.00  0.00    +0.162 A 
BRANCH  17  24
ATOM     23  C   LIG A   1      -4.263   0.561 130.384  0.00  0.00    +0.277 C 
ATOM     24  O   LIG A   1      -4.784   0.202 131.664  0.00  0.00    -0.491 OA
ENDBRANCH  17  24
BRANCH  22  25
ATOM     25  O   LIG A   1      -6.441  -2.115 131.097  0.00  0.00    -0.491 OA
ATOM     26  C   LIG A   1      -6.783  -2.481 129.772  0.00  0.00    +0.277 C 
ENDBRANCH  22  25
ENDBRANCH  16  19
ENDBRANCH   1  16
BRANCH   2  27
ATOM     27  C   LIG A   1      -8.309   6.094 132.326  0.00  0.00    +0.238 C 
BRANCH  27  28
ATOM     28  O   LIG A   1      -6.870   5.974 132.291  0.00  0.00    -0.464 OA
BRANCH  28  29
ATOM     29  C   LIG A   1      -6.183   6.754 131.424  0.00  0.00    +0.304 C 
ATOM     30  C   LIG A   1      -4.714   6.696 131.601  0.00  0.00    +0.136 C 
ATOM     31  O   LIG A   1      -6.699   7.507 130.571  0.00  0.00    -0.251 OA
ENDBRANCH  28  29
ENDBRANCH  27  28
ENDBRANCH   2  27
TORSDOF 10
ENDMDL
MODEL 4
REMARK VINA RESULT:      -6.6      2.589      3.512
REMARK  Name = NuBBE_2477
REMARK  15 active torsions:
REMARK  status: ('A' for Active; 'I' for Inactive)
REMARK    1  A    between atoms: C_1  and  O_2
REMARK    2  A    between atoms: O_2  and  C_3
REMARK    3  A    between atoms: C_5  and  C_6
REMARK    4  A    between atoms: C_6  and  C_7
REMARK    5  A    between atoms: C_9  and  C_11
REMARK    6  A    between atoms: C_11  and  O_12
REMARK    7  A    between atoms: O_12  and  C_13
REMARK    8  A    between atoms: C_13  and  C_14
REMARK    9  A    between atoms: C_16  and  C_18
REMARK   10  A    between atoms: C_21  and  O_22
REMARK   11  A    between atoms: O_22  and  C_23
REMARK   12  A    between atoms: C_24  and  O_25
REMARK   13  A    between atoms: O_25  and  C_26
REMARK   14  A    between atoms: C_32  and  O_33
REMARK   15  A    between atoms: O_33  and  C_34
REMARK                            x       y       z     vdW  Elec       q    Type
REMARK                         _______ _______ _______ _____ _____    ______ ____
ROOT
ATOM      1  C   LIG A   1      -8.791   3.770 131.161  0.00  0.00    +0.028 C 
ATOM      2  C   LIG A   1      -9.345   5.150 131.511  0.00  0.00    +0.066 C 
ATOM      3  C   LIG A   1     -10.811   5.024 131.104  0.00  0.00    +0.155 C 
ATOM      4  O   LIG A   1     -10.809   4.047 130.022  0.00  0.00    -0.371 OA
ATOM      5  C   LIG A   1      -9.454   3.606 129.804  0.00  0.00    +0.165 C 
ENDROOT
BRANCH   3   6
ATOM      6  C   LIG A   1     -11.427   6.304 130.599  0.00  0.00    -0.015 A 
ATOM      7  C   LIG A   1     -12.424   6.977 131.288  0.00  0.00    +0.010 A 
ATOM      8  C   LIG A   1     -12.939   8.171 130.781  0.00  0.00    +0.050 A 
ATOM      9  C   LIG A   1     -12.461   8.735 129.583  0.00  0.00    +0.162 A 
ATOM     10  C   LIG A   1     -11.471   8.045 128.859  0.00  0.00    +0.162 A 
ATOM     11  C   LIG A   1     -10.978   6.851 129.394  0.00  0.00    +0.055 A 
BRANCH   9  12
ATOM     12  O   LIG A   1     -12.960   9.925 129.101  0.00  0.00    -0.491 OA
ATOM     13  C   LIG A   1     -13.408  10.840 130.109  0.00  0.00    +0.277 C 
ENDBRANCH   9  12
BRANCH  10  14
ATOM     14  O   LIG A   1     -10.978   8.546 127.671  0.00  0.00    -0.491 OA
ATOM     15  C   LIG A   1     -11.034   7.632 126.559  0.00  0.00    +0.277 C 
ENDBRANCH  10  14
ENDBRANCH   3   6
BRANCH   1  16
ATOM     16  C   LIG A   1      -9.252   2.597 132.061  0.00  0.00    +0.041 C 
BRANCH  16  19
ATOM     17  C   LIG A   1      -7.659  -0.837 131.409  0.00  0.00    +0.162 A 
ATOM     18  C   LIG A   1      -8.430   0.333 131.246  0.00  0.00    +0.053 A 
ATOM     19  C   LIG A   1      -8.287   1.427 132.125  0.00  0.00    -0.043 A 
ATOM     20  C   LIG A   1      -7.320   1.348 133.131  0.00  0.00    +0.007 A 
ATOM     21  C   LIG A   1      -6.537   0.213 133.284  0.00  0.00    +0.050 A 
ATOM     22  C   LIG A   1      -6.711  -0.885 132.447  0.00  0.00    +0.162 A 
BRANCH  17  24
ATOM     23  C   LIG A   1      -7.013  -2.029 129.455  0.00  0.00    +0.277 C 
ATOM     24  O   LIG A   1      -7.943  -1.857 130.525  0.00  0.00    -0.491 OA
ENDBRANCH  17  24
BRANCH  22  25
ATOM     25  O   LIG A   1      -6.077  -2.060 132.741  0.00  0.00    -0.491 OA
ATOM     26  C   LIG A   1      -4.660  -2.032 132.742  0.00  0.00    +0.277 C 
ENDBRANCH  22  25
ENDBRANCH  16  19
ENDBRANCH   1  16
BRANCH   2  27
ATOM     27  C   LIG A   1      -9.072   5.705 132.906  0.00  0.00    +0.238 C 
BRANCH  27  28
ATOM     28  O   LIG A   1      -7.685   6.024 133.151  0.00  0.00    -0.464 OA
BRANCH  28  29
ATOM     29  C   LIG A   1      -6.943   5.147 133.864  0.00  0.00    +0.304 C 
ATOM     30  C   LIG A   1      -7.480   4.866 135.215  0.00  0.00    +0.136 C 
ATOM     31  O   LIG A   1      -5.869   4.635 133.481  0.00  0.00    -0.251 OA
ENDBRANCH  28  29
ENDBRANCH  27  28
ENDBRANCH   2  27
TORSDOF 10
ENDMDL
MODEL 5
REMARK VINA RESULT:      -6.6      1.891      2.267
REMARK  Name = NuBBE_2477
REMARK  15 active torsions:
REMARK  status: ('A' for Active; 'I' for Inactive)
REMARK    1  A    between atoms: C_1  and  O_2
REMARK    2  A    between atoms: O_2  and  C_3
REMARK    3  A    between atoms: C_5  and  C_6
REMARK    4  A    between atoms: C_6  and  C_7
REMARK    5  A    between atoms: C_9  and  C_11
REMARK    6  A    between atoms: C_11  and  O_12
REMARK    7  A    between atoms: O_12  and  C_13
REMARK    8  A    between atoms: C_13  and  C_14
REMARK    9  A    between atoms: C_16  and  C_18
REMARK   10  A    between atoms: C_21  and  O_22
REMARK   11  A    between atoms: O_22  and  C_23
REMARK   12  A    between atoms: C_24  and  O_25
REMARK   13  A    between atoms: O_25  and  C_26
REMARK   14  A    between atoms: C_32  and  O_33
REMARK   15  A    between atoms: O_33  and  C_34
REMARK                            x       y       z     vdW  Elec       q    Type
REMARK                         _______ _______ _______ _____ _____    ______ ____
ROOT
ATOM      1  C   LIG A   1      -7.076   4.395 131.318  0.00  0.00    +0.028 C 
ATOM      2  C   LIG A   1      -7.676   5.772 131.036  0.00  0.00    +0.066 C 
ATOM      3  C   LIG A   1      -9.021   5.693 131.753  0.00  0.00    +0.155 C 
ATOM      4  O   LIG A   1      -9.373   4.279 131.722  0.00  0.00    -0.371 OA
ATOM      5  C   LIG A   1      -8.317   3.559 131.055  0.00  0.00    +0.165 C 
ENDROOT
BRANCH   3   6
ATOM      6  C   LIG A   1     -10.123   6.481 131.091  0.00  0.00    -0.015 A 
ATOM      7  C   LIG A   1     -11.393   6.592 131.636  0.00  0.00    +0.010 A 
ATOM      8  C   LIG A   1     -12.366   7.355 130.988  0.00  0.00    +0.050 A 
ATOM      9  C   LIG A   1     -12.093   8.041 129.789  0.00  0.00    +0.162 A 
ATOM     10  C   LIG A   1     -10.817   7.910 129.210  0.00  0.00    +0.162 A 
ATOM     11  C   LIG A   1      -9.867   7.136 129.884  0.00  0.00    +0.055 A 
BRANCH   9  12
ATOM     12  O   LIG A   1     -13.053   8.809 129.167  0.00  0.00    -0.491 OA
ATOM     13  C   LIG A   1     -13.179  10.142 129.678  0.00  0.00    +0.277 C 
ENDBRANCH   9  12
BRANCH  10  14
ATOM     14  O   LIG A   1     -10.501   8.547 128.028  0.00  0.00    -0.491 OA
ATOM     15  C   LIG A   1     -10.803   7.798 126.836  0.00  0.00    +0.277 C 
ENDBRANCH  10  14
ENDBRANCH   3   6
BRANCH   1  16
ATOM     16  C   LIG A   1      -6.625   4.129 132.776  0.00  0.00    +0.041 C 
BRANCH  16  19
ATOM     17  C   LIG A   1      -3.538   5.914 134.202  0.00  0.00    +0.162 A 
ATOM     18  C   LIG A   1      -4.858   5.445 134.046  0.00  0.00    +0.053 A 
ATOM     19  C   LIG A   1      -5.177   4.481 133.066  0.00  0.00    -0.043 A 
ATOM     20  C   LIG A   1      -4.140   3.958 132.287  0.00  0.00    +0.007 A 
ATOM     21  C   LIG A   1      -2.833   4.393 132.452  0.00  0.00    +0.050 A 
ATOM     22  C   LIG A   1      -2.526   5.377 133.386  0.00  0.00    +0.162 A 
BRANCH  17  24
ATOM     23  C   LIG A   1      -3.482   6.484 136.511  0.00  0.00    +0.277 C 
ATOM     24  O   LIG A   1      -3.373   6.902 135.150  0.00  0.00    -0.491 OA
ENDBRANCH  17  24
BRANCH  22  25
ATOM     25  O   LIG A   1      -1.277   5.932 133.389  0.00  0.00    -0.491 OA
ATOM     26  C   LIG A   1      -0.746   6.304 132.129  0.00  0.00    +0.277 C 
ENDBRANCH  22  25
ENDBRANCH  16  19
ENDBRANCH   1  16
BRANCH   2  27
ATOM     27  C   LIG A   1      -6.822   7.003 131.324  0.00  0.00    +0.238 C 
BRANCH  27  28
ATOM     28  O   LIG A   1      -5.970   7.399 130.227  0.00  0.00    -0.464 OA
BRANCH  28  29
ATOM     29  C   LIG A   1      -4.636   7.210 130.351  0.00  0.00    +0.304 C 
ATOM     30  C   LIG A   1      -4.077   6.230 129.393  0.00  0.00    +0.136 C 
ATOM     31  O   LIG A   1      -3.910   7.752 131.213  0.00  0.00    -0.251 OA
ENDBRANCH  28  29
ENDBRANCH  27  28
ENDBRANCH   2  27
TORSDOF 10
ENDMDL
MODEL 6
REMARK VINA RESULT:      -6.6      6.962     11.725
REMARK  Name = NuBBE_2477
REMARK  15 active torsions:
REMARK  status: ('A' for Active; 'I' for Inactive)
REMARK    1  A    between atoms: C_1  and  O_2
REMARK    2  A    between atoms: O_2  and  C_3
REMARK    3  A    between atoms: C_5  and  C_6
REMARK    4  A    between atoms: C_6  and  C_7
REMARK    5  A    between atoms: C_9  and  C_11
REMARK    6  A    between atoms: C_11  and  O_12
REMARK    7  A    between atoms: O_12  and  C_13
REMARK    8  A    between atoms: C_13  and  C_14
REMARK    9  A    between atoms: C_16  and  C_18
REMARK   10  A    between atoms: C_21  and  O_22
REMARK   11  A    between atoms: O_22  and  C_23
REMARK   12  A    between atoms: C_24  and  O_25
REMARK   13  A    between atoms: O_25  and  C_26
REMARK   14  A    between atoms: C_32  and  O_33
REMARK   15  A    between atoms: O_33  and  C_34
REMARK                            x       y       z     vdW  Elec       q    Type
REMARK                         _______ _______ _______ _____ _____    ______ ____
ROOT
ATOM      1  C   LIG A   1      -6.838  -1.465 127.356  0.00  0.00    +0.028 C 
ATOM      2  C   LIG A   1      -7.221  -2.643 128.250  0.00  0.00    +0.066 C 
ATOM      3  C   LIG A   1      -7.074  -2.051 129.649  0.00  0.00    +0.155 C 
ATOM      4  O   LIG A   1      -6.047  -1.025 129.508  0.00  0.00    -0.371 OA
ATOM      5  C   LIG A   1      -5.621  -0.990 128.131  0.00  0.00    +0.165 C 
ENDROOT
BRANCH   3   6
ATOM      6  C   LIG A   1      -6.629  -3.039 130.697  0.00  0.00    -0.015 A 
ATOM      7  C   LIG A   1      -5.816  -4.124 130.405  0.00  0.00    +0.010 A 
ATOM      8  C   LIG A   1      -5.418  -4.992 131.423  0.00  0.00    +0.050 A 
ATOM      9  C   LIG A   1      -5.806  -4.791 132.762  0.00  0.00    +0.162 A 
ATOM     10  C   LIG A   1      -6.657  -3.712 133.065  0.00  0.00    +0.162 A 
ATOM     11  C   LIG A   1      -7.038  -2.863 132.022  0.00  0.00    +0.055 A 
BRANCH   9  12
ATOM     12  O   LIG A   1      -5.391  -5.641 133.764  0.00  0.00    -0.491 OA
ATOM     13  C   LIG A   1      -4.019  -5.491 134.148  0.00  0.00    +0.277 C 
ENDBRANCH   9  12
BRANCH  10  14
ATOM     14  O   LIG A   1      -7.080  -3.479 134.358  0.00  0.00    -0.491 OA
ATOM     15  C   LIG A   1      -6.373  -2.432 135.048  0.00  0.00    +0.277 C 
ENDBRANCH  10  14
ENDBRANCH   3   6
BRANCH   1  16
ATOM     16  C   LIG A   1      -7.849  -0.294 127.294  0.00  0.00    +0.041 C 
BRANCH  16  19
ATOM     17  C   LIG A   1      -8.268   2.679 124.899  0.00  0.00    +0.162 A 
ATOM     18  C   LIG A   1      -8.206   1.912 126.080  0.00  0.00    +0.053 A 
ATOM     19  C   LIG A   1      -7.730   0.584 126.061  0.00  0.00    -0.043 A 
ATOM     20  C   LIG A   1      -7.266   0.063 124.850  0.00  0.00    +0.007 A 
ATOM     21  C   LIG A   1      -7.297   0.819 123.687  0.00  0.00    +0.050 A 
ATOM     22  C   LIG A   1      -7.811   2.111 123.696  0.00  0.00    +0.162 A 
BRANCH  17  24
ATOM     23  C   LIG A   1      -8.011   4.889 125.740  0.00  0.00    +0.277 C 
ATOM     24  O   LIG A   1      -8.815   3.937 125.042  0.00  0.00    -0.491 OA
ENDBRANCH  17  24
BRANCH  22  25
ATOM     25  O   LIG A   1      -8.020   2.758 122.510  0.00  0.00    -0.491 OA
ATOM     26  C   LIG A   1      -6.885   3.353 121.905  0.00  0.00    +0.277 C 
ENDBRANCH  22  25
ENDBRANCH  16  19
ENDBRANCH   1  16
BRANCH   2  27
ATOM     27  C   LIG A   1      -8.526  -3.378 127.956  0.00  0.00    +0.238 C 
BRANCH  27  28
ATOM     28  O   LIG A   1      -8.565  -4.013 126.660  0.00  0.00    -0.464 OA
BRANCH  28  29
ATOM     29  C   LIG A   1      -9.051  -3.305 125.614  0.00  0.00    +0.304 C 
ATOM     30  C   LIG A   1      -8.309  -3.517 124.350  0.00  0.00    +0.136 C 
ATOM     31  O   LIG A   1     -10.002  -2.496 125.673  0.00  0.00    -0.251 OA
ENDBRANCH  28  29
ENDBRANCH  27  28
ENDBRANCH   2  27
TORSDOF 10
ENDMDL
MODEL 7
REMARK VINA RESULT:      -6.6      6.435      8.761
REMARK  Name = NuBBE_2477
REMARK  15 active torsions:
REMARK  status: ('A' for Active; 'I' for Inactive)
REMARK    1  A    between atoms: C_1  and  O_2
REMARK    2  A    between atoms: O_2  and  C_3
REMARK    3  A    between atoms: C_5  and  C_6
REMARK    4  A    between atoms: C_6  and  C_7
REMARK    5  A    between atoms: C_9  and  C_11
REMARK    6  A    between atoms: C_11  and  O_12
REMARK    7  A    between atoms: O_12  and  C_13
REMARK    8  A    between atoms: C_13  and  C_14
REMARK    9  A    between atoms: C_16  and  C_18
REMARK   10  A    between atoms: C_21  and  O_22
REMARK   11  A    between atoms: O_22  and  C_23
REMARK   12  A    between atoms: C_24  and  O_25
REMARK   13  A    between atoms: O_25  and  C_26
REMARK   14  A    between atoms: C_32  and  O_33
REMARK   15  A    between atoms: O_33  and  C_34
REMARK                            x       y       z     vdW  Elec       q    Type
REMARK                         _______ _______ _______ _____ _____    ______ ____
ROOT
ATOM      1  C   LIG A   1      -4.297   3.967 126.013  0.00  0.00    +0.028 C 
ATOM      2  C   LIG A   1      -5.265   3.271 125.057  0.00  0.00    +0.066 C 
ATOM      3  C   LIG A   1      -6.104   2.421 126.007  0.00  0.00    +0.155 C 
ATOM      4  O   LIG A   1      -5.215   2.132 127.126  0.00  0.00    -0.371 OA
ATOM      5  C   LIG A   1      -3.946   2.769 126.879  0.00  0.00    +0.165 C 
ENDROOT
BRANCH   3   6
ATOM      6  C   LIG A   1      -6.580   1.117 125.418  0.00  0.00    -0.015 A 
ATOM      7  C   LIG A   1      -5.787  -0.020 125.383  0.00  0.00    +0.010 A 
ATOM      8  C   LIG A   1      -6.292  -1.206 124.845  0.00  0.00    +0.050 A 
ATOM      9  C   LIG A   1      -7.604  -1.292 124.344  0.00  0.00    +0.162 A 
ATOM     10  C   LIG A   1      -8.407  -0.136 124.345  0.00  0.00    +0.162 A 
ATOM     11  C   LIG A   1      -7.870   1.035 124.890  0.00  0.00    +0.055 A 
BRANCH   9  12
ATOM     12  O   LIG A   1      -8.101  -2.472 123.834  0.00  0.00    -0.491 OA
ATOM     13  C   LIG A   1      -7.704  -3.649 124.548  0.00  0.00    +0.277 C 
ENDBRANCH   9  12
BRANCH  10  14
ATOM     14  O   LIG A   1      -9.696  -0.162 123.851  0.00  0.00    -0.491 OA
ATOM     15  C   LIG A   1      -9.963   0.793 122.807  0.00  0.00    +0.277 C 
ENDBRANCH  10  14
ENDBRANCH   3   6
BRANCH   1  16
ATOM     16  C   LIG A   1      -4.905   5.056 126.931  0.00  0.00    +0.041 C 
BRANCH  16  19
ATOM     17  C   LIG A   1      -3.897   5.688 130.583  0.00  0.00    +0.162 A 
ATOM     18  C   LIG A   1      -4.585   5.210 129.449  0.00  0.00    +0.053 A 
ATOM     19  C   LIG A   1      -4.067   5.398 128.150  0.00  0.00    -0.043 A 
ATOM     20  C   LIG A   1      -2.824   6.023 128.016  0.00  0.00    +0.007 A 
ATOM     21  C   LIG A   1      -2.125   6.473 129.127  0.00  0.00    +0.050 A 
ATOM     22  C   LIG A   1      -2.658   6.329 130.404  0.00  0.00    +0.162 A 
BRANCH  17  24
ATOM     23  C   LIG A   1      -5.630   6.384 132.057  0.00  0.00    +0.277 C 
ATOM     24  O   LIG A   1      -4.542   5.498 131.787  0.00  0.00    -0.491 OA
ENDBRANCH  17  24
BRANCH  22  25
ATOM     25  O   LIG A   1      -2.053   6.957 131.457  0.00  0.00    -0.491 OA
ATOM     26  C   LIG A   1      -0.788   6.456 131.852  0.00  0.00    +0.277 C 
ENDBRANCH  22  25
ENDBRANCH  16  19
ENDBRANCH   1  16
BRANCH   2  27
ATOM     27  C   LIG A   1      -6.031   4.128 124.054  0.00  0.00    +0.238 C 
BRANCH  27  28
ATOM     28  O   LIG A   1      -5.195   4.762 123.062  0.00  0.00    -0.464 OA
BRANCH  28  29
ATOM     29  C   LIG A   1      -5.399   4.452 121.761  0.00  0.00    +0.304 C 
ATOM     30  C   LIG A   1      -6.003   3.117 121.549  0.00  0.00    +0.136 C 
ATOM     31  O   LIG A   1      -5.077   5.172 120.791  0.00  0.00    -0.251 OA
ENDBRANCH  28  29
ENDBRANCH  27  28
ENDBRANCH   2  27
TORSDOF 10
ENDMDL
MODEL 8
REMARK VINA RESULT:      -6.6      6.428      8.247
REMARK  Name = NuBBE_2477
REMARK  15 active torsions:
REMARK  status: ('A' for Active; 'I' for Inactive)
REMARK    1  A    between atoms: C_1  and  O_2
REMARK    2  A    between atoms: O_2  and  C_3
REMARK    3  A    between atoms: C_5  and  C_6
REMARK    4  A    between atoms: C_6  and  C_7
REMARK    5  A    between atoms: C_9  and  C_11
REMARK    6  A    between atoms: C_11  and  O_12
REMARK    7  A    between atoms: O_12  and  C_13
REMARK    8  A    between atoms: C_13  and  C_14
REMARK    9  A    between atoms: C_16  and  C_18
REMARK   10  A    between atoms: C_21  and  O_22
REMARK   11  A    between atoms: O_22  and  C_23
REMARK   12  A    between atoms: C_24  and  O_25
REMARK   13  A    between atoms: O_25  and  C_26
REMARK   14  A    between atoms: C_32  and  O_33
REMARK   15  A    between atoms: O_33  and  C_34
REMARK                            x       y       z     vdW  Elec       q    Type
REMARK                         _______ _______ _______ _____ _____    ______ ____
ROOT
ATOM      1  C   LIG A   1      -7.258  -2.680 127.689  0.00  0.00    +0.028 C 
ATOM      2  C   LIG A   1      -6.762  -1.304 127.245  0.00  0.00    +0.066 C 
ATOM      3  C   LIG A   1      -8.053  -0.622 126.799  0.00  0.00    +0.155 C 
ATOM      4  O   LIG A   1      -8.910  -1.713 126.353  0.00  0.00    -0.371 OA
ATOM      5  C   LIG A   1      -8.202  -2.956 126.531  0.00  0.00    +0.165 C 
ENDROOT
BRANCH   3   6
ATOM      6  C   LIG A   1      -7.878   0.352 125.661  0.00  0.00    -0.015 A 
ATOM      7  C   LIG A   1      -7.251   0.009 124.473  0.00  0.00    +0.010 A 
ATOM      8  C   LIG A   1      -7.140   0.948 123.446  0.00  0.00    +0.050 A 
ATOM      9  C   LIG A   1      -7.667   2.247 123.570  0.00  0.00    +0.162 A 
ATOM     10  C   LIG A   1      -8.278   2.616 124.783  0.00  0.00    +0.162 A 
ATOM     11  C   LIG A   1      -8.371   1.653 125.792  0.00  0.00    +0.055 A 
BRANCH   9  12
ATOM     12  O   LIG A   1      -7.572   3.161 122.543  0.00  0.00    -0.491 OA
ATOM     13  C   LIG A   1      -6.255   3.680 122.321  0.00  0.00    +0.277 C 
ENDBRANCH   9  12
BRANCH  10  14
ATOM     14  O   LIG A   1      -8.798   3.882 124.963  0.00  0.00    -0.491 OA
ATOM     15  C   LIG A   1      -8.052   4.720 125.866  0.00  0.00    +0.277 C 
ENDBRANCH  10  14
ENDBRANCH   3   6
BRANCH   1  16
ATOM     16  C   LIG A   1      -8.086  -2.720 128.997  0.00  0.00    +0.041 C 
BRANCH  16  19
ATOM     17  C   LIG A   1      -6.709  -3.022 132.570  0.00  0.00    +0.162 A 
ATOM     18  C   LIG A   1      -7.525  -2.665 131.477  0.00  0.00    +0.053 A 
ATOM     19  C   LIG A   1      -7.337  -3.250 130.207  0.00  0.00    -0.043 A 
ATOM     20  C   LIG A   1      -6.357  -4.237 130.069  0.00  0.00    +0.007 A 
ATOM     21  C   LIG A   1      -5.567  -4.616 131.145  0.00  0.00    +0.050 A 
ATOM     22  C   LIG A   1      -5.721  -4.005 132.386  0.00  0.00    +0.162 A 
BRANCH  17  24
ATOM     23  C   LIG A   1      -6.284  -1.074 133.867  0.00  0.00    +0.277 C 
ATOM     24  O   LIG A   1      -6.953  -2.329 133.737  0.00  0.00    -0.491 OA
ENDBRANCH  17  24
BRANCH  22  25
ATOM     25  O   LIG A   1      -4.803  -4.246 133.370  0.00  0.00    -0.491 OA
ATOM     26  C   LIG A   1      -4.322  -5.575 133.476  0.00  0.00    +0.277 C 
ENDBRANCH  22  25
ENDBRANCH  16  19
ENDBRANCH   1  16
BRANCH   2  27
ATOM     27  C   LIG A   1      -5.870  -0.516 128.199  0.00  0.00    +0.238 C 
BRANCH  27  28
ATOM     28  O   LIG A   1      -4.805  -1.293 128.788  0.00  0.00    -0.464 OA
BRANCH  28  29
ATOM     29  C   LIG A   1      -4.415  -0.994 130.048  0.00  0.00    +0.304 C 
ATOM     30  C   LIG A   1      -3.284  -1.816 130.536  0.00  0.00    +0.136 C 
ATOM     31  O   LIG A   1      -4.959  -0.147 130.788  0.00  0.00    -0.251 OA
ENDBRANCH  28  29
ENDBRANCH  27  28
ENDBRANCH   2  27
TORSDOF 10
ENDMDL
MODEL 9
REMARK VINA RESULT:      -6.6      7.108      9.145
REMARK  Name = NuBBE_2477
REMARK  15 active torsions:
REMARK  status: ('A' for Active; 'I' for Inactive)
REMARK    1  A    between atoms: C_1  and  O_2
REMARK    2  A    between atoms: O_2  and  C_3
REMARK    3  A    between atoms: C_5  and  C_6
REMARK    4  A    between atoms: C_6  and  C_7
REMARK    5  A    between atoms: C_9  and  C_11
REMARK    6  A    between atoms: C_11  and  O_12
REMARK    7  A    between atoms: O_12  and  C_13
REMARK    8  A    between atoms: C_13  and  C_14
REMARK    9  A    between atoms: C_16  and  C_18
REMARK   10  A    between atoms: C_21  and  O_22
REMARK   11  A    between atoms: O_22  and  C_23
REMARK   12  A    between atoms: C_24  and  O_25
REMARK   13  A    between atoms: O_25  and  C_26
REMARK   14  A    between atoms: C_32  and  O_33
REMARK   15  A    between atoms: O_33  and  C_34
REMARK                            x       y       z     vdW  Elec       q    Type
REMARK                         _______ _______ _______ _____ _____    ______ ____
ROOT
ATOM      1  C   LIG A   1      -7.431  -1.895 128.803  0.00  0.00    +0.028 C 
ATOM      2  C   LIG A   1      -7.990  -1.710 127.393  0.00  0.00    +0.066 C 
ATOM      3  C   LIG A   1      -6.778  -1.184 126.629  0.00  0.00    +0.155 C 
ATOM      4  O   LIG A   1      -5.985  -0.484 127.632  0.00  0.00    -0.371 OA
ATOM      5  C   LIG A   1      -6.656  -0.592 128.904  0.00  0.00    +0.165 C 
ENDROOT
BRANCH   3   6
ATOM      6  C   LIG A   1      -7.115  -0.221 125.520  0.00  0.00    -0.015 A 
ATOM      7  C   LIG A   1      -6.767  -0.452 124.197  0.00  0.00    +0.010 A 
ATOM      8  C   LIG A   1      -7.127   0.467 123.210  0.00  0.00    +0.050 A 
ATOM      9  C   LIG A   1      -7.858   1.632 123.513  0.00  0.00    +0.162 A 
ATOM     10  C   LIG A   1      -8.189   1.893 124.855  0.00  0.00    +0.162 A 
ATOM     11  C   LIG A   1      -7.811   0.953 125.819  0.00  0.00    +0.055 A 
BRANCH   9  12
ATOM     12  O   LIG A   1      -8.228   2.522 122.529  0.00  0.00    -0.491 OA
ATOM     13  C   LIG A   1      -7.159   3.325 122.013  0.00  0.00    +0.277 C 
ENDBRANCH   9  12
BRANCH  10  14
ATOM     14  O   LIG A   1      -8.890   3.027 125.209  0.00  0.00    -0.491 OA
ATOM     15  C   LIG A   1      -8.076   4.134 125.637  0.00  0.00    +0.277 C 
ENDBRANCH  10  14
ENDBRANCH   3   6
BRANCH   1  16
ATOM     16  C   LIG A   1      -6.427  -3.060 128.994  0.00  0.00    +0.041 C 
BRANCH  16  19
ATOM     17  C   LIG A   1      -6.419  -3.107 132.834  0.00  0.00    +0.162 A 
ATOM     18  C   LIG A   1      -6.700  -2.742 131.502  0.00  0.00    +0.053 A 
ATOM     19  C   LIG A   1      -6.293  -3.555 130.423  0.00  0.00    -0.043 A 
ATOM     20  C   LIG A   1      -5.649  -4.762 130.708  0.00  0.00    +0.007 A 
ATOM     21  C   LIG A   1      -5.391  -5.144 132.017  0.00  0.00    +0.050 A 
ATOM     22  C   LIG A   1      -5.751  -4.320 133.079  0.00  0.00    +0.162 A 
BRANCH  17  24
ATOM     23  C   LIG A   1      -6.808  -0.825 133.383  0.00  0.00    +0.277 C 
ATOM     24  O   LIG A   1      -6.813  -2.194 133.790  0.00  0.00    -0.491 OA
ENDBRANCH  17  24
BRANCH  22  25
ATOM     25  O   LIG A   1      -5.308  -4.617 134.337  0.00  0.00    -0.491 OA
ATOM     26  C   LIG A   1      -5.700  -5.871 134.867  0.00  0.00    +0.277 C 
ENDBRANCH  22  25
ENDBRANCH  16  19
ENDBRANCH   1  16
BRANCH   2  27
ATOM     27  C   LIG A   1      -8.744  -2.874 126.757  0.00  0.00    +0.238 C 
BRANCH  27  28
ATOM     28  O   LIG A   1      -9.595  -2.492 125.654  0.00  0.00    -0.464 OA
BRANCH  28  29
ATOM     29  C   LIG A   1      -9.307  -2.977 124.425  0.00  0.00    +0.304 C 
ATOM     30  C   LIG A   1      -8.168  -3.924 124.406  0.00  0.00    +0.136 C 
ATOM     31  O   LIG A   1      -9.886  -2.648 123.367  0.00  0.00    -0.251 OA
ENDBRANCH  28  29
ENDBRANCH  27  28
ENDBRANCH   2  27
TORSDOF 10
ENDMDL
