MODEL 1
REMARK VINA RESULT:      -7.1      0.000      0.000
REMARK  Name = NuBBE_1282
REMARK  8 active torsions:
REMARK  status: ('A' for Active; 'I' for Inactive)
REMARK    1  A    between atoms: C_8  and  O_9
REMARK    2  A    between atoms: O_9  and  C_10
REMARK    3  A    between atoms: C_10  and  C_11
REMARK    4  A    between atoms: C_11  and  C_13
REMARK    5  A    between atoms: C_11  and  O_17
REMARK    6  A    between atoms: C_13  and  O_14
REMARK    7  A    between atoms: C_13  and  C_15
REMARK    8  A    between atoms: C_13  and  C_16
REMARK                            x       y       z     vdW  Elec       q    Type
REMARK                         _______ _______ _______ _____ _____    ______ ____
ROOT
ATOM      1  O   LIG A   1      -6.258   5.133 118.795  0.00  0.00    -0.245 OA
ATOM      2  C   LIG A   1      -6.365   4.614 119.888  0.00  0.00    +0.337 A 
ATOM      3  O   LIG A   1      -7.531   3.993 120.318  0.00  0.00    -0.422 OA
ATOM      4  C   LIG A   1      -7.641   3.407 121.598  0.00  0.00    +0.146 A 
ATOM      5  C   LIG A   1      -8.878   2.837 121.885  0.00  0.00    +0.094 A 
ATOM      6  C   LIG A   1      -9.003   2.277 123.148  0.00  0.00    +0.142 A 
ATOM      7  C   LIG A   1      -7.991   2.231 124.107  0.00  0.00    +0.062 A 
ATOM      8  C   LIG A   1      -6.721   2.785 123.772  0.00  0.00    +0.142 A 
ATOM      9  C   LIG A   1      -6.573   3.411 122.502  0.00  0.00    +0.060 A 
ATOM     10  C   LIG A   1      -5.340   4.070 122.060  0.00  0.00    +0.022 A 
ATOM     11  C   LIG A   1      -5.247   4.616 120.846  0.00  0.00    +0.093 A 
ATOM     12  C   LIG A   1      -8.601   1.592 125.231  0.00  0.00    +0.053 A 
ATOM     13  C   LIG A   1      -9.894   1.288 124.875  0.00  0.00    +0.196 A 
ATOM     14  O   LIG A   1     -10.142   1.699 123.611  0.00  0.00    -0.463 OA
ENDROOT
BRANCH   8  15
ATOM     15  O   LIG A   1      -5.605   2.806 124.610  0.00  0.00    -0.488 OA
BRANCH  15  16
ATOM     16  C   LIG A   1      -5.711   3.658 125.753  0.00  0.00    +0.263 C 
BRANCH  16  17
ATOM     17  C   LIG A   1      -4.359   4.219 126.227  0.00  0.00    +0.183 C 
BRANCH  17  18
ATOM     18  C   LIG A   1      -3.443   3.222 126.992  0.00  0.00    +0.089 C 
ATOM     19  C   LIG A   1      -1.982   3.298 126.538  0.00  0.00    +0.044 C 
ATOM     20  C   LIG A   1      -3.533   3.379 128.505  0.00  0.00    +0.044 C 
BRANCH  18  21
ATOM     21  O   LIG A   1      -3.909   1.898 126.662  0.00  0.00    -0.387 OA
ATOM     22  H   LIG A   1      -4.705   1.725 127.198  0.00  0.00    +0.210 HD
ENDBRANCH  18  21
ENDBRANCH  17  18
BRANCH  17  23
ATOM     23  O   LIG A   1      -4.644   5.335 127.097  0.00  0.00    -0.386 OA
ATOM     24  H   LIG A   1      -3.774   5.621 127.441  0.00  0.00    +0.210 HD
ENDBRANCH  17  23
ENDBRANCH  16  17
ENDBRANCH  15  16
ENDBRANCH   8  15
TORSDOF 6
ENDMDL
MODEL 2
REMARK VINA RESULT:      -6.9      2.660      5.110
REMARK  Name = NuBBE_1282
REMARK  8 active torsions:
REMARK  status: ('A' for Active; 'I' for Inactive)
REMARK    1  A    between atoms: C_8  and  O_9
REMARK    2  A    between atoms: O_9  and  C_10
REMARK    3  A    between atoms: C_10  and  C_11
REMARK    4  A    between atoms: C_11  and  C_13
REMARK    5  A    between atoms: C_11  and  O_17
REMARK    6  A    between atoms: C_13  and  O_14
REMARK    7  A    between atoms: C_13  and  C_15
REMARK    8  A    between atoms: C_13  and  C_16
REMARK                            x       y       z     vdW  Elec       q    Type
REMARK                         _______ _______ _______ _____ _____    ______ ____
ROOT
ATOM      1  O   LIG A   1      -4.393   5.844 120.629  0.00  0.00    -0.245 OA
ATOM      2  C   LIG A   1      -4.955   5.023 121.325  0.00  0.00    +0.337 A 
ATOM      3  O   LIG A   1      -5.146   5.195 122.690  0.00  0.00    -0.422 OA
ATOM      4  C   LIG A   1      -5.790   4.222 123.486  0.00  0.00    +0.146 A 
ATOM      5  C   LIG A   1      -5.891   4.535 124.839  0.00  0.00    +0.094 A 
ATOM      6  C   LIG A   1      -6.504   3.576 125.632  0.00  0.00    +0.142 A 
ATOM      7  C   LIG A   1      -7.030   2.369 125.169  0.00  0.00    +0.062 A 
ATOM      8  C   LIG A   1      -6.950   2.093 123.774  0.00  0.00    +0.142 A 
ATOM      9  C   LIG A   1      -6.284   3.033 122.937  0.00  0.00    +0.060 A 
ATOM     10  C   LIG A   1      -6.081   2.840 121.498  0.00  0.00    +0.022 A 
ATOM     11  C   LIG A   1      -5.475   3.769 120.756  0.00  0.00    +0.093 A 
ATOM     12  C   LIG A   1      -7.521   1.725 126.347  0.00  0.00    +0.053 A 
ATOM     13  C   LIG A   1      -7.283   2.572 127.404  0.00  0.00    +0.196 A 
ATOM     14  O   LIG A   1      -6.669   3.698 126.976  0.00  0.00    -0.463 OA
ENDROOT
BRANCH   8  15
ATOM     15  O   LIG A   1      -7.438   0.943 123.151  0.00  0.00    -0.488 OA
BRANCH  15  16
ATOM     16  C   LIG A   1      -6.745  -0.268 123.467  0.00  0.00    +0.263 C 
BRANCH  16  17
ATOM     17  C   LIG A   1      -7.495  -1.536 123.026  0.00  0.00    +0.183 C 
BRANCH  17  18
ATOM     18  C   LIG A   1      -8.887  -1.763 123.680  0.00  0.00    +0.089 C 
ATOM     19  C   LIG A   1      -9.463  -3.149 123.375  0.00  0.00    +0.044 C 
ATOM     20  C   LIG A   1      -8.881  -1.515 125.183  0.00  0.00    +0.044 C 
BRANCH  18  21
ATOM     21  O   LIG A   1      -9.783  -0.803 123.084  0.00  0.00    -0.387 OA
ATOM     22  H   LIG A   1     -10.665  -0.941 123.477  0.00  0.00    +0.210 HD
ENDBRANCH  18  21
ENDBRANCH  17  18
BRANCH  17  23
ATOM     23  O   LIG A   1      -6.651  -2.662 123.349  0.00  0.00    -0.386 OA
ATOM     24  H   LIG A   1      -7.266  -3.375 123.613  0.00  0.00    +0.210 HD
ENDBRANCH  17  23
ENDBRANCH  16  17
ENDBRANCH  15  16
ENDBRANCH   8  15
TORSDOF 6
ENDMDL
MODEL 3
REMARK VINA RESULT:      -6.6      1.152      4.037
REMARK  Name = NuBBE_1282
REMARK  8 active torsions:
REMARK  status: ('A' for Active; 'I' for Inactive)
REMARK    1  A    between atoms: C_8  and  O_9
REMARK    2  A    between atoms: O_9  and  C_10
REMARK    3  A    between atoms: C_10  and  C_11
REMARK    4  A    between atoms: C_11  and  C_13
REMARK    5  A    between atoms: C_11  and  O_17
REMARK    6  A    between atoms: C_13  and  O_14
REMARK    7  A    between atoms: C_13  and  C_15
REMARK    8  A    between atoms: C_13  and  C_16
REMARK                            x       y       z     vdW  Elec       q    Type
REMARK                         _______ _______ _______ _____ _____    ______ ____
ROOT
ATOM      1  O   LIG A   1     -11.079   1.003 124.321  0.00  0.00    -0.245 OA
ATOM      2  C   LIG A   1     -10.009   1.555 124.156  0.00  0.00    +0.337 A 
ATOM      3  O   LIG A   1      -9.622   2.100 122.939  0.00  0.00    -0.422 OA
ATOM      4  C   LIG A   1      -8.368   2.726 122.762  0.00  0.00    +0.146 A 
ATOM      5  C   LIG A   1      -8.122   3.210 121.480  0.00  0.00    +0.094 A 
ATOM      6  C   LIG A   1      -6.885   3.808 121.291  0.00  0.00    +0.142 A 
ATOM      7  C   LIG A   1      -5.914   3.970 122.280  0.00  0.00    +0.062 A 
ATOM      8  C   LIG A   1      -6.208   3.503 123.594  0.00  0.00    +0.142 A 
ATOM      9  C   LIG A   1      -7.449   2.841 123.812  0.00  0.00    +0.060 A 
ATOM     10  C   LIG A   1      -7.847   2.262 125.099  0.00  0.00    +0.022 A 
ATOM     11  C   LIG A   1      -9.037   1.678 125.254  0.00  0.00    +0.093 A 
ATOM     12  C   LIG A   1      -4.826   4.604 121.603  0.00  0.00    +0.053 A 
ATOM     13  C   LIG A   1      -5.213   4.793 120.297  0.00  0.00    +0.196 A 
ATOM     14  O   LIG A   1      -6.462   4.314 120.103  0.00  0.00    -0.463 OA
ENDROOT
BRANCH   8  15
ATOM     15  O   LIG A   1      -5.354   3.601 124.694  0.00  0.00    -0.488 OA
BRANCH  15  16
ATOM     16  C   LIG A   1      -5.245   4.904 125.273  0.00  0.00    +0.263 C 
BRANCH  16  17
ATOM     17  C   LIG A   1      -4.924   4.882 126.777  0.00  0.00    +0.183 C 
BRANCH  17  18
ATOM     18  C   LIG A   1      -3.760   3.945 127.207  0.00  0.00    +0.089 C 
ATOM     19  C   LIG A   1      -2.803   4.613 128.200  0.00  0.00    +0.044 C 
ATOM     20  C   LIG A   1      -4.247   2.613 127.763  0.00  0.00    +0.044 C 
BRANCH  18  21
ATOM     21  O   LIG A   1      -2.993   3.667 126.018  0.00  0.00    -0.387 OA
ATOM     22  H   LIG A   1      -2.932   4.496 125.508  0.00  0.00    +0.210 HD
ENDBRANCH  18  21
ENDBRANCH  17  18
BRANCH  17  23
ATOM     23  O   LIG A   1      -6.124   4.462 127.461  0.00  0.00    -0.386 OA
ATOM     24  H   LIG A   1      -6.009   4.760 128.386  0.00  0.00    +0.210 HD
ENDBRANCH  17  23
ENDBRANCH  16  17
ENDBRANCH  15  16
ENDBRANCH   8  15
TORSDOF 6
ENDMDL
MODEL 4
REMARK VINA RESULT:      -6.6      1.674      5.015
REMARK  Name = NuBBE_1282
REMARK  8 active torsions:
REMARK  status: ('A' for Active; 'I' for Inactive)
REMARK    1  A    between atoms: C_8  and  O_9
REMARK    2  A    between atoms: O_9  and  C_10
REMARK    3  A    between atoms: C_10  and  C_11
REMARK    4  A    between atoms: C_11  and  C_13
REMARK    5  A    between atoms: C_11  and  O_17
REMARK    6  A    between atoms: C_13  and  O_14
REMARK    7  A    between atoms: C_13  and  C_15
REMARK    8  A    between atoms: C_13  and  C_16
REMARK                            x       y       z     vdW  Elec       q    Type
REMARK                         _______ _______ _______ _____ _____    ______ ____
ROOT
ATOM      1  O   LIG A   1      -7.132   4.095 119.358  0.00  0.00    -0.245 OA
ATOM      2  C   LIG A   1      -7.228   3.893 120.551  0.00  0.00    +0.337 A 
ATOM      3  O   LIG A   1      -6.194   4.144 121.444  0.00  0.00    -0.422 OA
ATOM      4  C   LIG A   1      -6.319   3.889 122.828  0.00  0.00    +0.146 A 
ATOM      5  C   LIG A   1      -5.190   4.180 123.589  0.00  0.00    +0.094 A 
ATOM      6  C   LIG A   1      -5.296   3.914 124.946  0.00  0.00    +0.142 A 
ATOM      7  C   LIG A   1      -6.435   3.412 125.578  0.00  0.00    +0.062 A 
ATOM      8  C   LIG A   1      -7.590   3.162 124.782  0.00  0.00    +0.142 A 
ATOM      9  C   LIG A   1      -7.501   3.378 123.377  0.00  0.00    +0.060 A 
ATOM     10  C   LIG A   1      -8.595   3.104 122.441  0.00  0.00    +0.022 A 
ATOM     11  C   LIG A   1      -8.466   3.353 121.137  0.00  0.00    +0.093 A 
ATOM     12  C   LIG A   1      -6.049   3.285 126.949  0.00  0.00    +0.053 A 
ATOM     13  C   LIG A   1      -4.750   3.726 127.049  0.00  0.00    +0.196 A 
ATOM     14  O   LIG A   1      -4.290   4.111 125.837  0.00  0.00    -0.463 OA
ENDROOT
BRANCH   8  15
ATOM     15  O   LIG A   1      -8.808   2.675 125.260  0.00  0.00    -0.488 OA
BRANCH  15  16
ATOM     16  C   LIG A   1      -8.779   1.338 125.765  0.00  0.00    +0.263 C 
BRANCH  16  17
ATOM     17  C   LIG A   1      -9.737   0.384 125.031  0.00  0.00    +0.183 C 
BRANCH  17  18
ATOM     18  C   LIG A   1      -9.084  -0.551 123.974  0.00  0.00    +0.089 C 
ATOM     19  C   LIG A   1      -9.720  -0.408 122.587  0.00  0.00    +0.044 C 
ATOM     20  C   LIG A   1      -7.574  -0.374 123.880  0.00  0.00    +0.044 C 
BRANCH  18  21
ATOM     21  O   LIG A   1      -9.339  -1.903 124.407  0.00  0.00    -0.387 OA
ATOM     22  H   LIG A   1     -10.245  -2.134 124.130  0.00  0.00    +0.210 HD
ENDBRANCH  18  21
ENDBRANCH  17  18
BRANCH  17  23
ATOM     23  O   LIG A   1     -10.725   1.202 124.368  0.00  0.00    -0.386 OA
ATOM     24  H   LIG A   1     -11.285   0.573 123.870  0.00  0.00    +0.210 HD
ENDBRANCH  17  23
ENDBRANCH  16  17
ENDBRANCH  15  16
ENDBRANCH   8  15
TORSDOF 6
ENDMDL
MODEL 5
REMARK VINA RESULT:      -6.5      2.625      5.567
REMARK  Name = NuBBE_1282
REMARK  8 active torsions:
REMARK  status: ('A' for Active; 'I' for Inactive)
REMARK    1  A    between atoms: C_8  and  O_9
REMARK    2  A    between atoms: O_9  and  C_10
REMARK    3  A    between atoms: C_10  and  C_11
REMARK    4  A    between atoms: C_11  and  C_13
REMARK    5  A    between atoms: C_11  and  O_17
REMARK    6  A    between atoms: C_13  and  O_14
REMARK    7  A    between atoms: C_13  and  C_15
REMARK    8  A    between atoms: C_13  and  C_16
REMARK                            x       y       z     vdW  Elec       q    Type
REMARK                         _______ _______ _______ _____ _____    ______ ____
ROOT
ATOM      1  O   LIG A   1      -8.907   3.842 120.576  0.00  0.00    -0.245 OA
ATOM      2  C   LIG A   1      -8.520   3.362 121.623  0.00  0.00    +0.337 A 
ATOM      3  O   LIG A   1      -7.364   3.788 122.266  0.00  0.00    -0.422 OA
ATOM      4  C   LIG A   1      -6.922   3.208 123.476  0.00  0.00    +0.146 A 
ATOM      5  C   LIG A   1      -5.739   3.735 123.988  0.00  0.00    +0.094 A 
ATOM      6  C   LIG A   1      -5.286   3.158 125.165  0.00  0.00    +0.142 A 
ATOM      7  C   LIG A   1      -5.933   2.133 125.857  0.00  0.00    +0.062 A 
ATOM      8  C   LIG A   1      -7.164   1.642 125.333  0.00  0.00    +0.142 A 
ATOM      9  C   LIG A   1      -7.634   2.177 124.100  0.00  0.00    +0.060 A 
ATOM     10  C   LIG A   1      -8.851   1.718 123.425  0.00  0.00    +0.022 A 
ATOM     11  C   LIG A   1      -9.261   2.277 122.285  0.00  0.00    +0.093 A 
ATOM     12  C   LIG A   1      -5.078   1.867 126.972  0.00  0.00    +0.053 A 
ATOM     13  C   LIG A   1      -4.017   2.738 126.889  0.00  0.00    +0.196 A 
ATOM     14  O   LIG A   1      -4.140   3.525 125.796  0.00  0.00    -0.463 OA
ENDROOT
BRANCH   8  15
ATOM     15  O   LIG A   1      -7.940   0.634 125.909  0.00  0.00    -0.488 OA
BRANCH  15  16
ATOM     16  C   LIG A   1      -7.505  -0.702 125.646  0.00  0.00    +0.263 C 
BRANCH  16  17
ATOM     17  C   LIG A   1      -8.661  -1.708 125.512  0.00  0.00    +0.183 C 
BRANCH  17  18
ATOM     18  C   LIG A   1      -8.601  -2.648 124.275  0.00  0.00    +0.089 C 
ATOM     19  C   LIG A   1      -8.200  -1.911 122.993  0.00  0.00    +0.044 C 
ATOM     20  C   LIG A   1      -7.698  -3.855 124.492  0.00  0.00    +0.044 C 
BRANCH  18  21
ATOM     21  O   LIG A   1      -9.942  -3.138 124.065  0.00  0.00    -0.387 OA
ATOM     22  H   LIG A   1     -10.383  -3.164 124.934  0.00  0.00    +0.210 HD
ENDBRANCH  18  21
ENDBRANCH  17  18
BRANCH  17  23
ATOM     23  O   LIG A   1      -9.883  -0.943 125.445  0.00  0.00    -0.386 OA
ATOM     24  H   LIG A   1      -9.942  -0.478 126.304  0.00  0.00    +0.210 HD
ENDBRANCH  17  23
ENDBRANCH  16  17
ENDBRANCH  15  16
ENDBRANCH   8  15
TORSDOF 6
ENDMDL
MODEL 6
REMARK VINA RESULT:      -6.5      7.678     10.104
REMARK  Name = NuBBE_1282
REMARK  8 active torsions:
REMARK  status: ('A' for Active; 'I' for Inactive)
REMARK    1  A    between atoms: C_8  and  O_9
REMARK    2  A    between atoms: O_9  and  C_10
REMARK    3  A    between atoms: C_10  and  C_11
REMARK    4  A    between atoms: C_11  and  C_13
REMARK    5  A    between atoms: C_11  and  O_17
REMARK    6  A    between atoms: C_13  and  O_14
REMARK    7  A    between atoms: C_13  and  C_15
REMARK    8  A    between atoms: C_13  and  C_16
REMARK                            x       y       z     vdW  Elec       q    Type
REMARK                         _______ _______ _______ _____ _____    ______ ____
ROOT
ATOM      1  O   LIG A   1      -2.288   7.712 132.209  0.00  0.00    -0.245 OA
ATOM      2  C   LIG A   1      -3.429   7.328 132.051  0.00  0.00    +0.337 A 
ATOM      3  O   LIG A   1      -4.115   6.588 133.005  0.00  0.00    -0.422 OA
ATOM      4  C   LIG A   1      -5.438   6.137 132.797  0.00  0.00    +0.146 A 
ATOM      5  C   LIG A   1      -5.983   5.396 133.842  0.00  0.00    +0.094 A 
ATOM      6  C   LIG A   1      -7.273   4.931 133.638  0.00  0.00    +0.142 A 
ATOM      7  C   LIG A   1      -8.042   5.173 132.499  0.00  0.00    +0.062 A 
ATOM      8  C   LIG A   1      -7.475   5.970 131.462  0.00  0.00    +0.142 A 
ATOM      9  C   LIG A   1      -6.134   6.422 131.617  0.00  0.00    +0.060 A 
ATOM     10  C   LIG A   1      -5.415   7.197 130.601  0.00  0.00    +0.022 A 
ATOM     11  C   LIG A   1      -4.168   7.621 130.812  0.00  0.00    +0.093 A 
ATOM     12  C   LIG A   1      -9.266   4.476 132.746  0.00  0.00    +0.053 A 
ATOM     13  C   LIG A   1      -9.161   3.897 133.989  0.00  0.00    +0.196 A 
ATOM     14  O   LIG A   1      -7.955   4.172 134.536  0.00  0.00    -0.463 OA
ENDROOT
BRANCH   8  15
ATOM     15  O   LIG A   1      -8.114   6.314 130.270  0.00  0.00    -0.488 OA
BRANCH  15  16
ATOM     16  C   LIG A   1      -9.246   7.177 130.406  0.00  0.00    +0.263 C 
BRANCH  16  17
ATOM     17  C   LIG A   1     -10.328   6.941 129.339  0.00  0.00    +0.183 C 
BRANCH  17  18
ATOM     18  C   LIG A   1     -11.626   6.243 129.834  0.00  0.00    +0.089 C 
ATOM     19  C   LIG A   1     -11.942   6.554 131.300  0.00  0.00    +0.044 C 
ATOM     20  C   LIG A   1     -12.834   6.554 128.959  0.00  0.00    +0.044 C 
BRANCH  18  21
ATOM     21  O   LIG A   1     -11.385   4.823 129.756  0.00  0.00    -0.387 OA
ATOM     22  H   LIG A   1     -10.648   4.684 129.133  0.00  0.00    +0.210 HD
ENDBRANCH  18  21
ENDBRANCH  17  18
BRANCH  17  23
ATOM     23  O   LIG A   1      -9.736   6.125 128.307  0.00  0.00    -0.386 OA
ATOM     24  H   LIG A   1      -9.994   6.550 127.464  0.00  0.00    +0.210 HD
ENDBRANCH  17  23
ENDBRANCH  16  17
ENDBRANCH  15  16
ENDBRANCH   8  15
TORSDOF 6
ENDMDL
MODEL 7
REMARK VINA RESULT:      -6.4      2.650      5.994
REMARK  Name = NuBBE_1282
REMARK  8 active torsions:
REMARK  status: ('A' for Active; 'I' for Inactive)
REMARK    1  A    between atoms: C_8  and  O_9
REMARK    2  A    between atoms: O_9  and  C_10
REMARK    3  A    between atoms: C_10  and  C_11
REMARK    4  A    between atoms: C_11  and  C_13
REMARK    5  A    between atoms: C_11  and  O_17
REMARK    6  A    between atoms: C_13  and  O_14
REMARK    7  A    between atoms: C_13  and  C_15
REMARK    8  A    between atoms: C_13  and  C_16
REMARK                            x       y       z     vdW  Elec       q    Type
REMARK                         _______ _______ _______ _____ _____    ______ ____
ROOT
ATOM      1  O   LIG A   1      -2.459   4.241 127.102  0.00  0.00    -0.245 OA
ATOM      2  C   LIG A   1      -3.455   3.674 126.698  0.00  0.00    +0.337 A 
ATOM      3  O   LIG A   1      -4.115   4.047 125.534  0.00  0.00    -0.422 OA
ATOM      4  C   LIG A   1      -5.280   3.384 125.088  0.00  0.00    +0.146 A 
ATOM      5  C   LIG A   1      -5.833   3.885 123.912  0.00  0.00    +0.094 A 
ATOM      6  C   LIG A   1      -6.989   3.254 123.476  0.00  0.00    +0.142 A 
ATOM      7  C   LIG A   1      -7.597   2.169 124.110  0.00  0.00    +0.062 A 
ATOM      8  C   LIG A   1      -6.987   1.650 125.288  0.00  0.00    +0.142 A 
ATOM      9  C   LIG A   1      -5.827   2.305 125.791  0.00  0.00    +0.060 A 
ATOM     10  C   LIG A   1      -5.140   1.909 127.024  0.00  0.00    +0.022 A 
ATOM     11  C   LIG A   1      -4.037   2.539 127.433  0.00  0.00    +0.093 A 
ATOM     12  C   LIG A   1      -8.752   1.899 123.311  0.00  0.00    +0.053 A 
ATOM     13  C   LIG A   1      -8.748   2.798 122.271  0.00  0.00    +0.196 A 
ATOM     14  O   LIG A   1      -7.679   3.621 122.365  0.00  0.00    -0.463 OA
ENDROOT
BRANCH   8  15
ATOM     15  O   LIG A   1      -7.460   0.566 126.030  0.00  0.00    -0.488 OA
BRANCH  15  16
ATOM     16  C   LIG A   1      -7.261  -0.718 125.434  0.00  0.00    +0.263 C 
BRANCH  16  17
ATOM     17  C   LIG A   1      -8.517  -1.606 125.458  0.00  0.00    +0.183 C 
BRANCH  17  18
ATOM     18  C   LIG A   1      -8.646  -2.630 124.295  0.00  0.00    +0.089 C 
ATOM     19  C   LIG A   1      -8.520  -1.974 122.916  0.00  0.00    +0.044 C 
ATOM     20  C   LIG A   1      -7.665  -3.789 124.417  0.00  0.00    +0.044 C 
BRANCH  18  21
ATOM     21  O   LIG A   1      -9.978  -3.176 124.372  0.00  0.00    -0.387 OA
ATOM     22  H   LIG A   1     -10.018  -3.742 125.164  0.00  0.00    +0.210 HD
ENDBRANCH  18  21
ENDBRANCH  17  18
BRANCH  17  23
ATOM     23  O   LIG A   1      -9.660  -0.724 125.417  0.00  0.00    -0.386 OA
ATOM     24  H   LIG A   1     -10.406  -1.285 125.123  0.00  0.00    +0.210 HD
ENDBRANCH  17  23
ENDBRANCH  16  17
ENDBRANCH  15  16
ENDBRANCH   8  15
TORSDOF 6
ENDMDL
MODEL 8
REMARK VINA RESULT:      -6.3      7.344      9.302
REMARK  Name = NuBBE_1282
REMARK  8 active torsions:
REMARK  status: ('A' for Active; 'I' for Inactive)
REMARK    1  A    between atoms: C_8  and  O_9
REMARK    2  A    between atoms: O_9  and  C_10
REMARK    3  A    between atoms: C_10  and  C_11
REMARK    4  A    between atoms: C_11  and  C_13
REMARK    5  A    between atoms: C_11  and  O_17
REMARK    6  A    between atoms: C_13  and  O_14
REMARK    7  A    between atoms: C_13  and  C_15
REMARK    8  A    between atoms: C_13  and  C_16
REMARK                            x       y       z     vdW  Elec       q    Type
REMARK                         _______ _______ _______ _____ _____    ______ ____
ROOT
ATOM      1  O   LIG A   1     -12.873   7.043 130.355  0.00  0.00    -0.245 OA
ATOM      2  C   LIG A   1     -11.699   6.901 130.629  0.00  0.00    +0.337 A 
ATOM      3  O   LIG A   1     -11.265   6.309 131.809  0.00  0.00    -0.422 OA
ATOM      4  C   LIG A   1      -9.894   6.165 132.116  0.00  0.00    +0.146 A 
ATOM      5  C   LIG A   1      -9.622   5.565 133.343  0.00  0.00    +0.094 A 
ATOM      6  C   LIG A   1      -8.278   5.438 133.663  0.00  0.00    +0.142 A 
ATOM      7  C   LIG A   1      -7.219   5.839 132.848  0.00  0.00    +0.062 A 
ATOM      8  C   LIG A   1      -7.525   6.412 131.580  0.00  0.00    +0.142 A 
ATOM      9  C   LIG A   1      -8.894   6.602 131.240  0.00  0.00    +0.060 A 
ATOM     10  C   LIG A   1      -9.343   7.234 129.995  0.00  0.00    +0.022 A 
ATOM     11  C   LIG A   1     -10.641   7.359 129.714  0.00  0.00    +0.093 A 
ATOM     12  C   LIG A   1      -6.051   5.529 133.613  0.00  0.00    +0.053 A 
ATOM     13  C   LIG A   1      -6.474   4.961 134.791  0.00  0.00    +0.196 A 
ATOM     14  O   LIG A   1      -7.825   4.901 134.826  0.00  0.00    -0.463 OA
ENDROOT
BRANCH   8  15
ATOM     15  O   LIG A   1      -6.585   6.850 130.646  0.00  0.00    -0.488 OA
BRANCH  15  16
ATOM     16  C   LIG A   1      -5.896   5.817 129.937  0.00  0.00    +0.263 C 
BRANCH  16  17
ATOM     17  C   LIG A   1      -4.407   5.708 130.309  0.00  0.00    +0.183 C 
BRANCH  17  18
ATOM     18  C   LIG A   1      -3.525   6.934 129.943  0.00  0.00    +0.089 C 
ATOM     19  C   LIG A   1      -3.207   7.815 131.155  0.00  0.00    +0.044 C 
ATOM     20  C   LIG A   1      -2.238   6.543 129.226  0.00  0.00    +0.044 C 
BRANCH  18  21
ATOM     21  O   LIG A   1      -4.301   7.744 129.036  0.00  0.00    -0.387 OA
ATOM     22  H   LIG A   1      -4.662   8.491 129.547  0.00  0.00    +0.210 HD
ENDBRANCH  18  21
ENDBRANCH  17  18
BRANCH  17  23
ATOM     23  O   LIG A   1      -3.883   4.549 129.627  0.00  0.00    -0.386 OA
ATOM     24  H   LIG A   1      -4.265   3.780 130.097  0.00  0.00    +0.210 HD
ENDBRANCH  17  23
ENDBRANCH  16  17
ENDBRANCH  15  16
ENDBRANCH   8  15
TORSDOF 6
ENDMDL
MODEL 9
REMARK VINA RESULT:      -6.3      4.827      6.770
REMARK  Name = NuBBE_1282
REMARK  8 active torsions:
REMARK  status: ('A' for Active; 'I' for Inactive)
REMARK    1  A    between atoms: C_8  and  O_9
REMARK    2  A    between atoms: O_9  and  C_10
REMARK    3  A    between atoms: C_10  and  C_11
REMARK    4  A    between atoms: C_11  and  C_13
REMARK    5  A    between atoms: C_11  and  O_17
REMARK    6  A    between atoms: C_13  and  O_14
REMARK    7  A    between atoms: C_13  and  C_15
REMARK    8  A    between atoms: C_13  and  C_16
REMARK                            x       y       z     vdW  Elec       q    Type
REMARK                         _______ _______ _______ _____ _____    ______ ____
ROOT
ATOM      1  O   LIG A   1      -9.958  -3.661 123.252  0.00  0.00    -0.245 OA
ATOM      2  C   LIG A   1      -9.249  -2.992 123.976  0.00  0.00    +0.337 A 
ATOM      3  O   LIG A   1      -9.599  -1.718 124.405  0.00  0.00    -0.422 OA
ATOM      4  C   LIG A   1      -8.755  -0.948 125.237  0.00  0.00    +0.146 A 
ATOM      5  C   LIG A   1      -9.240   0.314 125.568  0.00  0.00    +0.094 A 
ATOM      6  C   LIG A   1      -8.409   1.085 126.367  0.00  0.00    +0.142 A 
ATOM      7  C   LIG A   1      -7.170   0.678 126.862  0.00  0.00    +0.062 A 
ATOM      8  C   LIG A   1      -6.716  -0.634 126.542  0.00  0.00    +0.142 A 
ATOM      9  C   LIG A   1      -7.521  -1.435 125.684  0.00  0.00    +0.060 A 
ATOM     10  C   LIG A   1      -7.141  -2.776 125.230  0.00  0.00    +0.022 A 
ATOM     11  C   LIG A   1      -7.949  -3.495 124.449  0.00  0.00    +0.093 A 
ATOM     12  C   LIG A   1      -6.695   1.811 127.596  0.00  0.00    +0.053 A 
ATOM     13  C   LIG A   1      -7.662   2.785 127.512  0.00  0.00    +0.196 A 
ATOM     14  O   LIG A   1      -8.705   2.349 126.770  0.00  0.00    -0.463 OA
ENDROOT
BRANCH   8  15
ATOM     15  O   LIG A   1      -5.511  -1.196 126.968  0.00  0.00    -0.488 OA
BRANCH  15  16
ATOM     16  C   LIG A   1      -5.414  -1.452 128.371  0.00  0.00    +0.263 C 
BRANCH  16  17
ATOM     17  C   LIG A   1      -6.006  -2.809 128.789  0.00  0.00    +0.183 C 
BRANCH  17  18
ATOM     18  C   LIG A   1      -7.362  -2.752 129.548  0.00  0.00    +0.089 C 
ATOM     19  C   LIG A   1      -7.740  -1.330 129.973  0.00  0.00    +0.044 C 
ATOM     20  C   LIG A   1      -8.504  -3.388 128.767  0.00  0.00    +0.044 C 
BRANCH  18  21
ATOM     21  O   LIG A   1      -7.187  -3.512 130.761  0.00  0.00    -0.387 OA
ATOM     22  H   LIG A   1      -7.517  -4.414 130.593  0.00  0.00    +0.210 HD
ENDBRANCH  18  21
ENDBRANCH  17  18
BRANCH  17  23
ATOM     23  O   LIG A   1      -5.034  -3.452 129.641  0.00  0.00    -0.386 OA
ATOM     24  H   LIG A   1      -4.762  -4.257 129.156  0.00  0.00    +0.210 HD
ENDBRANCH  17  23
ENDBRANCH  16  17
ENDBRANCH  15  16
ENDBRANCH   8  15
TORSDOF 6
ENDMDL
