MODEL 1
REMARK VINA RESULT:     -11.3      0.000      0.000
REMARK  Name = NuBBE_493
REMARK  8 active torsions:
REMARK  status: ('A' for Active; 'I' for Inactive)
REMARK    1  A    between atoms: C_1  and  C_2
REMARK    2  A    between atoms: C_3  and  C_4
REMARK    3  A    between atoms: C_6  and  C_9
REMARK    4  A    between atoms: C_9  and  C_10
REMARK    5  A    between atoms: C_26  and  C_28
REMARK    6  A    between atoms: C_30  and  C_31
REMARK    7  A    between atoms: C_32  and  O_34
REMARK    8  A    between atoms: C_37  and  O_39
REMARK                            x       y       z     vdW  Elec       q    Type
REMARK                         _______ _______ _______ _____ _____    ______ ____
ROOT
ATOM      1  C   LIG A   1      -3.225   3.877 129.880  0.00  0.00    +0.041 C 
ATOM      2  C   LIG A   1      -4.498   3.653 129.096  0.00  0.00    -0.045 C 
ATOM      3  C   LIG A   1      -5.562   4.489 129.164  0.00  0.00    -0.065 C 
ATOM      4  C   LIG A   1      -5.423   5.865 129.782  0.00  0.00    +0.039 C 
ATOM      5  C   LIG A   1      -6.912   4.183 128.492  0.00  0.00    +0.058 C 
ATOM      6  C   LIG A   1      -8.139   3.998 129.443  0.00  0.00    +0.086 C 
ATOM      7  N   LIG A   1      -8.100   2.586 129.728  0.00  0.00    -0.311 N 
ATOM      8  C   LIG A   1      -6.943   2.809 127.693  0.00  0.00    +0.126 C 
ATOM      9  C   LIG A   1      -5.555   2.497 127.092  0.00  0.00    +0.067 C 
ATOM     10  C   LIG A   1      -5.478   1.340 126.096  0.00  0.00    -0.023 C 
ATOM     11  C   LIG A   1      -5.312   0.036 126.372  0.00  0.00    -0.030 C 
ATOM     12  C   LIG A   1      -5.110  -1.030 125.323  0.00  0.00    +0.034 C 
ATOM     13  C   LIG A   1      -6.355  -1.888 125.002  0.00  0.00    +0.012 C 
ATOM     14  C   LIG A   1      -5.978  -2.986 124.002  0.00  0.00    +0.012 C 
ATOM     15  C   LIG A   1      -6.947  -2.523 126.241  0.00  0.00    -0.022 C 
ATOM     16  C   LIG A   1      -8.242  -2.561 126.624  0.00  0.00    -0.041 C 
ATOM     17  C   LIG A   1      -8.613  -3.286 127.896  0.00  0.00    +0.042 C 
ATOM     18  C   LIG A   1      -9.431  -1.993 125.881  0.00  0.00    +0.210 C 
ATOM     19  C   LIG A   1      -9.359  -0.521 125.404  0.00  0.00    +0.189 C 
ATOM     20  O   LIG A   1      -9.833  -0.196 124.311  0.00  0.00    -0.289 OA
ATOM     21  C   LIG A   1      -4.478   2.427 128.207  0.00  0.00    +0.148 C 
ATOM     22  C   LIG A   1      -7.999   2.930 126.579  0.00  0.00    +0.172 C 
ATOM     23  C   LIG A   1      -8.660   1.769 125.910  0.00  0.00    +0.051 C 
ATOM     24  C   LIG A   1      -8.745   0.494 126.307  0.00  0.00    +0.052 C 
ATOM     25  O   LIG A   1      -8.291   4.036 126.106  0.00  0.00    -0.291 OA
ATOM     26  C   LIG A   1      -7.351   1.881 128.824  0.00  0.00    +0.228 C 
ATOM     27  O   LIG A   1      -7.091   0.695 128.959  0.00  0.00    -0.275 OA
ATOM     28  H   LIG A   1      -8.544   2.139 130.523  0.00  0.00    +0.149 HD
ENDROOT
BRANCH  18  29
ATOM     29  O   LIG A   1      -9.706  -2.866 124.786  0.00  0.00    -0.380 OA
ATOM     30  H   LIG A   1     -10.379  -2.407 124.246  0.00  0.00    +0.211 HD
ENDBRANCH  18  29
BRANCH  21  31
ATOM     31  O   LIG A   1      -3.186   2.379 127.588  0.00  0.00    -0.387 OA
ATOM     32  H   LIG A   1      -2.557   2.104 128.278  0.00  0.00    +0.210 HD
ENDBRANCH  21  31
BRANCH   6  33
ATOM     33  C   LIG A   1      -8.205   4.856 130.715  0.00  0.00    +0.060 C 
BRANCH  33  34
ATOM     34  C   LIG A   1      -9.568   5.433 130.971  0.00  0.00    -0.021 A 
ATOM     35  C   LIG A   1     -10.445   5.065 131.974  0.00  0.00    +0.087 A 
ATOM     36  N   LIG A   1     -11.574   5.832 131.861  0.00  0.00    -0.360 N 
ATOM     37  C   LIG A   1     -11.452   6.708 130.807  0.00  0.00    +0.047 A 
ATOM     38  C   LIG A   1     -12.340   7.681 130.335  0.00  0.00    +0.026 A 
ATOM     39  C   LIG A   1     -11.946   8.437 129.226  0.00  0.00    +0.002 A 
ATOM     40  C   LIG A   1     -10.717   8.217 128.609  0.00  0.00    +0.001 A 
ATOM     41  C   LIG A   1      -9.847   7.232 129.087  0.00  0.00    +0.010 A 
ATOM     42  C   LIG A   1     -10.213   6.467 130.215  0.00  0.00    +0.003 A 
ATOM     43  H   LIG A   1     -12.382   5.773 132.464  0.00  0.00    +0.165 HD
ENDBRANCH  33  34
ENDBRANCH   6  33
TORSDOF 4
ENDMDL
MODEL 2
REMARK VINA RESULT:     -10.5      3.695      7.781
REMARK  Name = NuBBE_493
REMARK  8 active torsions:
REMARK  status: ('A' for Active; 'I' for Inactive)
REMARK    1  A    between atoms: C_1  and  C_2
REMARK    2  A    between atoms: C_3  and  C_4
REMARK    3  A    between atoms: C_6  and  C_9
REMARK    4  A    between atoms: C_9  and  C_10
REMARK    5  A    between atoms: C_26  and  C_28
REMARK    6  A    between atoms: C_30  and  C_31
REMARK    7  A    between atoms: C_32  and  O_34
REMARK    8  A    between atoms: C_37  and  O_39
REMARK                            x       y       z     vdW  Elec       q    Type
REMARK                         _______ _______ _______ _____ _____    ______ ____
ROOT
ATOM      1  C   LIG A   1      -1.927   6.528 128.053  0.00  0.00    +0.041 C 
ATOM      2  C   LIG A   1      -2.867   5.444 128.531  0.00  0.00    -0.045 C 
ATOM      3  C   LIG A   1      -3.120   4.321 127.816  0.00  0.00    -0.065 C 
ATOM      4  C   LIG A   1      -2.238   3.937 126.647  0.00  0.00    +0.039 C 
ATOM      5  C   LIG A   1      -4.190   3.293 128.222  0.00  0.00    +0.058 C 
ATOM      6  C   LIG A   1      -5.391   3.108 127.239  0.00  0.00    +0.086 C 
ATOM      7  N   LIG A   1      -6.332   4.093 127.711  0.00  0.00    -0.311 N 
ATOM      8  C   LIG A   1      -4.958   3.653 129.568  0.00  0.00    +0.126 C 
ATOM      9  C   LIG A   1      -4.027   4.405 130.542  0.00  0.00    +0.067 C 
ATOM     10  C   LIG A   1      -4.537   4.608 131.969  0.00  0.00    -0.023 C 
ATOM     11  C   LIG A   1      -5.313   5.606 132.423  0.00  0.00    -0.030 C 
ATOM     12  C   LIG A   1      -5.663   5.807 133.878  0.00  0.00    +0.034 C 
ATOM     13  C   LIG A   1      -7.079   5.345 134.289  0.00  0.00    +0.012 C 
ATOM     14  C   LIG A   1      -7.330   5.701 135.758  0.00  0.00    +0.012 C 
ATOM     15  C   LIG A   1      -8.158   5.970 133.432  0.00  0.00    -0.022 C 
ATOM     16  C   LIG A   1      -9.208   5.366 132.835  0.00  0.00    -0.041 C 
ATOM     17  C   LIG A   1     -10.188   6.202 132.045  0.00  0.00    +0.042 C 
ATOM     18  C   LIG A   1      -9.578   3.900 132.903  0.00  0.00    +0.210 C 
ATOM     19  C   LIG A   1      -8.481   2.854 132.588  0.00  0.00    +0.189 C 
ATOM     20  O   LIG A   1      -8.417   1.803 133.234  0.00  0.00    -0.289 OA
ATOM     21  C   LIG A   1      -3.485   5.704 129.889  0.00  0.00    +0.148 C 
ATOM     22  C   LIG A   1      -5.453   2.338 130.200  0.00  0.00    +0.172 C 
ATOM     23  C   LIG A   1      -6.571   2.242 131.186  0.00  0.00    +0.051 C 
ATOM     24  C   LIG A   1      -7.535   3.126 131.468  0.00  0.00    +0.052 C 
ATOM     25  O   LIG A   1      -4.862   1.273 129.980  0.00  0.00    -0.291 OA
ATOM     26  C   LIG A   1      -6.071   4.509 128.988  0.00  0.00    +0.228 C 
ATOM     27  O   LIG A   1      -6.675   5.426 129.524  0.00  0.00    -0.275 OA
ATOM     28  H   LIG A   1      -7.097   4.476 127.166  0.00  0.00    +0.149 HD
ENDROOT
BRANCH  18  29
ATOM     29  O   LIG A   1     -10.146   3.665 134.191  0.00  0.00    -0.380 OA
ATOM     30  H   LIG A   1      -9.565   3.004 134.618  0.00  0.00    +0.211 HD
ENDBRANCH  18  29
BRANCH  21  31
ATOM     31  O   LIG A   1      -2.448   6.236 130.725  0.00  0.00    -0.387 OA
ATOM     32  H   LIG A   1      -2.130   5.500 131.277  0.00  0.00    +0.210 HD
ENDBRANCH  21  31
BRANCH   6  33
ATOM     33  C   LIG A   1      -5.117   3.227 125.732  0.00  0.00    +0.060 C 
BRANCH  33  34
ATOM     34  C   LIG A   1      -6.344   3.025 124.889  0.00  0.00    -0.021 A 
ATOM     35  C   LIG A   1      -7.552   2.499 125.304  0.00  0.00    +0.087 A 
ATOM     36  N   LIG A   1      -8.406   2.488 124.233  0.00  0.00    -0.360 N 
ATOM     37  C   LIG A   1      -7.785   3.007 123.121  0.00  0.00    +0.047 A 
ATOM     38  C   LIG A   1      -8.271   3.205 121.824  0.00  0.00    +0.026 A 
ATOM     39  C   LIG A   1      -7.401   3.762 120.881  0.00  0.00    +0.002 A 
ATOM     40  C   LIG A   1      -6.092   4.093 121.223  0.00  0.00    +0.001 A 
ATOM     41  C   LIG A   1      -5.619   3.877 122.521  0.00  0.00    +0.010 A 
ATOM     42  C   LIG A   1      -6.481   3.335 123.496  0.00  0.00    +0.003 A 
ATOM     43  H   LIG A   1      -9.359   2.151 124.250  0.00  0.00    +0.165 HD
ENDBRANCH  33  34
ENDBRANCH   6  33
TORSDOF 4
ENDMDL
MODEL 3
REMARK VINA RESULT:     -10.5      1.991      3.113
REMARK  Name = NuBBE_493
REMARK  8 active torsions:
REMARK  status: ('A' for Active; 'I' for Inactive)
REMARK    1  A    between atoms: C_1  and  C_2
REMARK    2  A    between atoms: C_3  and  C_4
REMARK    3  A    between atoms: C_6  and  C_9
REMARK    4  A    between atoms: C_9  and  C_10
REMARK    5  A    between atoms: C_26  and  C_28
REMARK    6  A    between atoms: C_30  and  C_31
REMARK    7  A    between atoms: C_32  and  O_34
REMARK    8  A    between atoms: C_37  and  O_39
REMARK                            x       y       z     vdW  Elec       q    Type
REMARK                         _______ _______ _______ _____ _____    ______ ____
ROOT
ATOM      1  C   LIG A   1      -6.683   2.211 133.728  0.00  0.00    +0.041 C 
ATOM      2  C   LIG A   1      -6.485   2.850 132.372  0.00  0.00    -0.045 C 
ATOM      3  C   LIG A   1      -6.476   4.192 132.185  0.00  0.00    -0.065 C 
ATOM      4  C   LIG A   1      -6.348   5.134 133.363  0.00  0.00    +0.039 C 
ATOM      5  C   LIG A   1      -6.431   4.843 130.791  0.00  0.00    +0.058 C 
ATOM      6  C   LIG A   1      -7.672   5.700 130.379  0.00  0.00    +0.086 C 
ATOM      7  N   LIG A   1      -8.531   4.721 129.760  0.00  0.00    -0.311 N 
ATOM      8  C   LIG A   1      -6.373   3.803 129.590  0.00  0.00    +0.126 C 
ATOM      9  C   LIG A   1      -5.603   2.531 130.007  0.00  0.00    +0.067 C 
ATOM     10  C   LIG A   1      -5.252   1.540 128.897  0.00  0.00    -0.023 C 
ATOM     11  C   LIG A   1      -6.019   0.548 128.416  0.00  0.00    -0.030 C 
ATOM     12  C   LIG A   1      -5.545  -0.473 127.410  0.00  0.00    +0.034 C 
ATOM     13  C   LIG A   1      -6.014  -0.237 125.957  0.00  0.00    +0.012 C 
ATOM     14  C   LIG A   1      -5.545  -1.397 125.072  0.00  0.00    +0.012 C 
ATOM     15  C   LIG A   1      -7.517  -0.105 125.853  0.00  0.00    -0.022 C 
ATOM     16  C   LIG A   1      -8.231   0.829 125.188  0.00  0.00    -0.041 C 
ATOM     17  C   LIG A   1      -9.740   0.746 125.195  0.00  0.00    +0.042 C 
ATOM     18  C   LIG A   1      -7.690   1.968 124.352  0.00  0.00    +0.210 C 
ATOM     19  C   LIG A   1      -6.610   2.885 124.978  0.00  0.00    +0.189 C 
ATOM     20  O   LIG A   1      -5.675   3.306 124.290  0.00  0.00    -0.289 OA
ATOM     21  C   LIG A   1      -6.271   1.866 131.240  0.00  0.00    +0.148 C 
ATOM     22  C   LIG A   1      -5.679   4.488 128.398  0.00  0.00    +0.172 C 
ATOM     23  C   LIG A   1      -5.819   4.057 126.975  0.00  0.00    +0.051 C 
ATOM     24  C   LIG A   1      -6.747   3.276 126.410  0.00  0.00    +0.052 C 
ATOM     25  O   LIG A   1      -4.869   5.406 128.585  0.00  0.00    -0.291 OA
ATOM     26  C   LIG A   1      -7.863   3.587 129.387  0.00  0.00    +0.228 C 
ATOM     27  O   LIG A   1      -8.430   2.592 128.961  0.00  0.00    -0.275 OA
ATOM     28  H   LIG A   1      -9.532   4.824 129.630  0.00  0.00    +0.149 HD
ENDROOT
BRANCH  18  29
ATOM     29  O   LIG A   1      -7.230   1.412 123.121  0.00  0.00    -0.380 OA
ATOM     30  H   LIG A   1      -7.994   1.449 122.513  0.00  0.00    +0.211 HD
ENDBRANCH  18  29
BRANCH  21  31
ATOM     31  O   LIG A   1      -5.396   0.844 131.734  0.00  0.00    -0.387 OA
ATOM     32  H   LIG A   1      -5.526   0.066 131.166  0.00  0.00    +0.210 HD
ENDBRANCH  21  31
BRANCH   6  33
ATOM     33  C   LIG A   1      -8.388   6.508 131.471  0.00  0.00    +0.060 C 
BRANCH  33  34
ATOM     34  C   LIG A   1      -9.875   6.582 131.275  0.00  0.00    -0.021 A 
ATOM     35  C   LIG A   1     -10.843   6.035 132.096  0.00  0.00    +0.087 A 
ATOM     36  N   LIG A   1     -12.072   6.329 131.567  0.00  0.00    -0.360 N 
ATOM     37  C   LIG A   1     -11.930   7.071 130.417  0.00  0.00    +0.047 A 
ATOM     38  C   LIG A   1     -12.901   7.604 129.561  0.00  0.00    +0.026 A 
ATOM     39  C   LIG A   1     -12.460   8.327 128.448  0.00  0.00    +0.002 A 
ATOM     40  C   LIG A   1     -11.100   8.496 128.196  0.00  0.00    +0.001 A 
ATOM     41  C   LIG A   1     -10.144   7.946 129.056  0.00  0.00    +0.010 A 
ATOM     42  C   LIG A   1     -10.562   7.228 130.196  0.00  0.00    +0.003 A 
ATOM     43  H   LIG A   1     -12.959   6.050 131.961  0.00  0.00    +0.165 HD
ENDBRANCH  33  34
ENDBRANCH   6  33
TORSDOF 4
ENDMDL
MODEL 4
REMARK VINA RESULT:     -10.3      3.347      8.819
REMARK  Name = NuBBE_493
REMARK  8 active torsions:
REMARK  status: ('A' for Active; 'I' for Inactive)
REMARK    1  A    between atoms: C_1  and  C_2
REMARK    2  A    between atoms: C_3  and  C_4
REMARK    3  A    between atoms: C_6  and  C_9
REMARK    4  A    between atoms: C_9  and  C_10
REMARK    5  A    between atoms: C_26  and  C_28
REMARK    6  A    between atoms: C_30  and  C_31
REMARK    7  A    between atoms: C_32  and  O_34
REMARK    8  A    between atoms: C_37  and  O_39
REMARK                            x       y       z     vdW  Elec       q    Type
REMARK                         _______ _______ _______ _____ _____    ______ ____
ROOT
ATOM      1  C   LIG A   1      -7.140  -3.462 131.939  0.00  0.00    +0.041 C 
ATOM      2  C   LIG A   1      -7.346  -2.198 131.135  0.00  0.00    -0.045 C 
ATOM      3  C   LIG A   1      -7.430  -2.190 129.783  0.00  0.00    -0.065 C 
ATOM      4  C   LIG A   1      -7.639  -3.478 129.016  0.00  0.00    +0.039 C 
ATOM      5  C   LIG A   1      -7.482  -0.894 128.955  0.00  0.00    +0.058 C 
ATOM      6  C   LIG A   1      -6.284  -0.637 127.983  0.00  0.00    +0.086 C 
ATOM      7  N   LIG A   1      -5.356   0.081 128.821  0.00  0.00    -0.311 N 
ATOM      8  C   LIG A   1      -7.451   0.436 129.826  0.00  0.00    +0.126 C 
ATOM      9  C   LIG A   1      -8.154   0.214 131.183  0.00  0.00    +0.067 C 
ATOM     10  C   LIG A   1      -8.422   1.456 132.034  0.00  0.00    -0.023 C 
ATOM     11  C   LIG A   1      -7.587   2.040 132.908  0.00  0.00    -0.030 C 
ATOM     12  C   LIG A   1      -7.977   3.186 133.810  0.00  0.00    +0.034 C 
ATOM     13  C   LIG A   1      -7.491   4.581 133.356  0.00  0.00    +0.012 C 
ATOM     14  C   LIG A   1      -7.871   5.626 134.412  0.00  0.00    +0.012 C 
ATOM     15  C   LIG A   1      -5.997   4.621 133.128  0.00  0.00    -0.022 C 
ATOM     16  C   LIG A   1      -5.324   5.135 132.076  0.00  0.00    -0.041 C 
ATOM     17  C   LIG A   1      -3.814   5.094 132.075  0.00  0.00    +0.042 C 
ATOM     18  C   LIG A   1      -5.912   5.829 130.866  0.00  0.00    +0.210 C 
ATOM     19  C   LIG A   1      -7.059   5.120 130.103  0.00  0.00    +0.189 C 
ATOM     20  O   LIG A   1      -8.001   5.773 129.646  0.00  0.00    -0.289 OA
ATOM     21  C   LIG A   1      -7.476  -0.940 131.969  0.00  0.00    +0.148 C 
ATOM     22  C   LIG A   1      -8.158   1.546 129.027  0.00  0.00    +0.172 C 
ATOM     23  C   LIG A   1      -7.962   3.009 129.255  0.00  0.00    +0.051 C 
ATOM     24  C   LIG A   1      -6.976   3.645 129.900  0.00  0.00    +0.052 C 
ATOM     25  O   LIG A   1      -9.025   1.264 128.189  0.00  0.00    -0.291 OA
ATOM     26  C   LIG A   1      -5.947   0.621 129.930  0.00  0.00    +0.228 C 
ATOM     27  O   LIG A   1      -5.313   1.158 130.826  0.00  0.00    -0.275 OA
ATOM     28  H   LIG A   1      -4.360   0.166 128.646  0.00  0.00    +0.149 HD
ENDROOT
BRANCH  18  29
ATOM     29  O   LIG A   1      -6.312   7.135 131.278  0.00  0.00    -0.380 OA
ATOM     30  H   LIG A   1      -5.482   7.620 131.457  0.00  0.00    +0.211 HD
ENDBRANCH  18  29
BRANCH  21  31
ATOM     31  O   LIG A   1      -8.300  -1.268 133.095  0.00  0.00    -0.387 OA
ATOM     32  H   LIG A   1      -8.184  -0.553 133.744  0.00  0.00    +0.210 HD
ENDBRANCH  21  31
BRANCH   6  33
ATOM     33  C   LIG A   1      -5.642  -1.847 127.290  0.00  0.00    +0.060 C 
BRANCH  33  34
ATOM     34  C   LIG A   1      -6.015  -1.967 125.840  0.00  0.00    -0.021 A 
ATOM     35  C   LIG A   1      -5.212  -1.673 124.754  0.00  0.00    +0.087 A 
ATOM     36  N   LIG A   1      -5.926  -1.918 123.612  0.00  0.00    -0.360 N 
ATOM     37  C   LIG A   1      -7.184  -2.378 123.925  0.00  0.00    +0.047 A 
ATOM     38  C   LIG A   1      -8.237  -2.768 123.090  0.00  0.00    +0.026 A 
ATOM     39  C   LIG A   1      -9.421  -3.201 123.695  0.00  0.00    +0.002 A 
ATOM     40  C   LIG A   1      -9.548  -3.228 125.082  0.00  0.00    +0.001 A 
ATOM     41  C   LIG A   1      -8.490  -2.823 125.902  0.00  0.00    +0.010 A 
ATOM     42  C   LIG A   1      -7.278  -2.400 125.317  0.00  0.00    +0.003 A 
ATOM     43  H   LIG A   1      -5.584  -1.786 122.671  0.00  0.00    +0.165 HD
ENDBRANCH  33  34
ENDBRANCH   6  33
TORSDOF 4
ENDMDL
MODEL 5
REMARK VINA RESULT:     -10.3      2.691      3.329
REMARK  Name = NuBBE_493
REMARK  8 active torsions:
REMARK  status: ('A' for Active; 'I' for Inactive)
REMARK    1  A    between atoms: C_1  and  C_2
REMARK    2  A    between atoms: C_3  and  C_4
REMARK    3  A    between atoms: C_6  and  C_9
REMARK    4  A    between atoms: C_9  and  C_10
REMARK    5  A    between atoms: C_26  and  C_28
REMARK    6  A    between atoms: C_30  and  C_31
REMARK    7  A    between atoms: C_32  and  O_34
REMARK    8  A    between atoms: C_37  and  O_39
REMARK                            x       y       z     vdW  Elec       q    Type
REMARK                         _______ _______ _______ _____ _____    ______ ____
ROOT
ATOM      1  C   LIG A   1      -3.908   6.044 132.378  0.00  0.00    +0.041 C 
ATOM      2  C   LIG A   1      -4.875   5.236 131.542  0.00  0.00    -0.045 C 
ATOM      3  C   LIG A   1      -6.022   5.752 131.037  0.00  0.00    -0.065 C 
ATOM      4  C   LIG A   1      -6.248   7.249 131.013  0.00  0.00    +0.039 C 
ATOM      5  C   LIG A   1      -7.081   4.896 130.321  0.00  0.00    +0.058 C 
ATOM      6  C   LIG A   1      -8.484   4.804 131.005  0.00  0.00    +0.086 C 
ATOM      7  N   LIG A   1      -8.329   3.665 131.876  0.00  0.00    -0.311 N 
ATOM      8  C   LIG A   1      -6.702   3.356 130.206  0.00  0.00    +0.126 C 
ATOM      9  C   LIG A   1      -5.174   3.179 130.076  0.00  0.00    +0.067 C 
ATOM     10  C   LIG A   1      -4.668   1.783 129.714  0.00  0.00    -0.023 C 
ATOM     11  C   LIG A   1      -4.406   0.768 130.554  0.00  0.00    -0.030 C 
ATOM     12  C   LIG A   1      -3.780  -0.538 130.130  0.00  0.00    +0.034 C 
ATOM     13  C   LIG A   1      -4.758  -1.725 129.982  0.00  0.00    +0.012 C 
ATOM     14  C   LIG A   1      -3.975  -2.999 129.648  0.00  0.00    +0.012 C 
ATOM     15  C   LIG A   1      -5.574  -1.955 131.235  0.00  0.00    -0.022 C 
ATOM     16  C   LIG A   1      -6.905  -2.152 131.343  0.00  0.00    -0.041 C 
ATOM     17  C   LIG A   1      -7.507  -2.396 132.707  0.00  0.00    +0.042 C 
ATOM     18  C   LIG A   1      -7.913  -2.218 130.216  0.00  0.00    +0.210 C 
ATOM     19  C   LIG A   1      -7.917  -1.074 129.172  0.00  0.00    +0.189 C 
ATOM     20  O   LIG A   1      -8.115  -1.320 127.978  0.00  0.00    -0.289 OA
ATOM     21  C   LIG A   1      -4.444   3.805 131.294  0.00  0.00    +0.148 C 
ATOM     22  C   LIG A   1      -7.420   2.780 128.971  0.00  0.00    +0.172 C 
ATOM     23  C   LIG A   1      -7.706   1.329 128.759  0.00  0.00    +0.051 C 
ATOM     24  C   LIG A   1      -7.719   0.326 129.645  0.00  0.00    +0.052 C 
ATOM     25  O   LIG A   1      -7.721   3.513 128.020  0.00  0.00    -0.291 OA
ATOM     26  C   LIG A   1      -7.272   2.869 131.527  0.00  0.00    +0.228 C 
ATOM     27  O   LIG A   1      -6.897   1.926 132.209  0.00  0.00    -0.275 OA
ATOM     28  H   LIG A   1      -8.908   3.468 132.685  0.00  0.00    +0.149 HD
ENDROOT
BRANCH  18  29
ATOM     29  O   LIG A   1      -7.755  -3.484 129.577  0.00  0.00    -0.380 OA
ATOM     30  H   LIG A   1      -6.790  -3.610 129.479  0.00  0.00    +0.211 HD
ENDBRANCH  18  29
BRANCH  21  31
ATOM     31  O   LIG A   1      -3.038   3.834 131.015  0.00  0.00    -0.387 OA
ATOM     32  H   LIG A   1      -2.946   3.925 130.051  0.00  0.00    +0.210 HD
ENDBRANCH  21  31
BRANCH   6  33
ATOM     33  C   LIG A   1      -9.012   6.044 131.742  0.00  0.00    +0.060 C 
BRANCH  33  34
ATOM     34  C   LIG A   1     -10.386   6.457 131.296  0.00  0.00    -0.021 A 
ATOM     35  C   LIG A   1     -11.578   6.194 131.944  0.00  0.00    +0.087 A 
ATOM     36  N   LIG A   1     -12.596   6.744 131.212  0.00  0.00    -0.360 N 
ATOM     37  C   LIG A   1     -12.095   7.375 130.097  0.00  0.00    +0.047 A 
ATOM     38  C   LIG A   1     -12.756   8.080 129.085  0.00  0.00    +0.026 A 
ATOM     39  C   LIG A   1     -11.979   8.624 128.057  0.00  0.00    +0.002 A 
ATOM     40  C   LIG A   1     -10.596   8.455 128.039  0.00  0.00    +0.001 A 
ATOM     41  C   LIG A   1      -9.953   7.737 129.052  0.00  0.00    +0.010 A 
ATOM     42  C   LIG A   1     -10.712   7.194 130.110  0.00  0.00    +0.003 A 
ATOM     43  H   LIG A   1     -13.576   6.701 131.452  0.00  0.00    +0.165 HD
ENDBRANCH  33  34
ENDBRANCH   6  33
TORSDOF 4
ENDMDL
MODEL 6
REMARK VINA RESULT:     -10.1      3.099      8.159
REMARK  Name = NuBBE_493
REMARK  8 active torsions:
REMARK  status: ('A' for Active; 'I' for Inactive)
REMARK    1  A    between atoms: C_1  and  C_2
REMARK    2  A    between atoms: C_3  and  C_4
REMARK    3  A    between atoms: C_6  and  C_9
REMARK    4  A    between atoms: C_9  and  C_10
REMARK    5  A    between atoms: C_26  and  C_28
REMARK    6  A    between atoms: C_30  and  C_31
REMARK    7  A    between atoms: C_32  and  O_34
REMARK    8  A    between atoms: C_37  and  O_39
REMARK                            x       y       z     vdW  Elec       q    Type
REMARK                         _______ _______ _______ _____ _____    ______ ____
ROOT
ATOM      1  C   LIG A   1      -1.970   6.501 128.059  0.00  0.00    +0.041 C 
ATOM      2  C   LIG A   1      -2.891   5.416 128.568  0.00  0.00    -0.045 C 
ATOM      3  C   LIG A   1      -3.120   4.265 127.889  0.00  0.00    -0.065 C 
ATOM      4  C   LIG A   1      -2.225   3.859 126.738  0.00  0.00    +0.039 C 
ATOM      5  C   LIG A   1      -4.173   3.231 128.325  0.00  0.00    +0.058 C 
ATOM      6  C   LIG A   1      -5.365   2.991 127.343  0.00  0.00    +0.086 C 
ATOM      7  N   LIG A   1      -6.327   3.972 127.778  0.00  0.00    -0.311 N 
ATOM      8  C   LIG A   1      -4.954   3.620 129.654  0.00  0.00    +0.126 C 
ATOM      9  C   LIG A   1      -4.042   4.422 130.608  0.00  0.00    +0.067 C 
ATOM     10  C   LIG A   1      -4.563   4.662 132.025  0.00  0.00    -0.023 C 
ATOM     11  C   LIG A   1      -5.360   5.659 132.442  0.00  0.00    -0.030 C 
ATOM     12  C   LIG A   1      -5.721   5.902 133.888  0.00  0.00    +0.034 C 
ATOM     13  C   LIG A   1      -7.130   5.426 134.307  0.00  0.00    +0.012 C 
ATOM     14  C   LIG A   1      -7.395   5.826 135.763  0.00  0.00    +0.012 C 
ATOM     15  C   LIG A   1      -8.216   6.002 133.426  0.00  0.00    -0.022 C 
ATOM     16  C   LIG A   1      -9.251   5.359 132.845  0.00  0.00    -0.041 C 
ATOM     17  C   LIG A   1     -10.243   6.150 132.023  0.00  0.00    +0.042 C 
ATOM     18  C   LIG A   1      -9.595   3.890 132.960  0.00  0.00    +0.210 C 
ATOM     19  C   LIG A   1      -8.476   2.855 132.684  0.00  0.00    +0.189 C 
ATOM     20  O   LIG A   1      -8.396   1.827 133.364  0.00  0.00    -0.289 OA
ATOM     21  C   LIG A   1      -3.521   5.709 129.915  0.00  0.00    +0.148 C 
ATOM     22  C   LIG A   1      -5.427   2.318 130.327  0.00  0.00    +0.172 C 
ATOM     23  C   LIG A   1      -6.548   2.233 131.311  0.00  0.00    +0.051 C 
ATOM     24  C   LIG A   1      -7.530   3.107 131.560  0.00  0.00    +0.052 C 
ATOM     25  O   LIG A   1      -4.815   1.257 130.145  0.00  0.00    -0.291 OA
ATOM     26  C   LIG A   1      -6.080   4.435 129.042  0.00  0.00    +0.228 C 
ATOM     27  O   LIG A   1      -6.703   5.358 129.545  0.00  0.00    -0.275 OA
ATOM     28  H   LIG A   1      -7.096   4.323 127.217  0.00  0.00    +0.149 HD
ENDROOT
BRANCH  18  29
ATOM     29  O   LIG A   1     -10.164   3.686 134.252  0.00  0.00    -0.380 OA
ATOM     30  H   LIG A   1     -11.095   3.974 134.178  0.00  0.00    +0.211 HD
ENDBRANCH  18  29
BRANCH  21  31
ATOM     31  O   LIG A   1      -2.499   6.287 130.737  0.00  0.00    -0.387 OA
ATOM     32  H   LIG A   1      -1.883   6.743 130.138  0.00  0.00    +0.210 HD
ENDBRANCH  21  31
BRANCH   6  33
ATOM     33  C   LIG A   1      -5.085   3.065 125.834  0.00  0.00    +0.060 C 
BRANCH  33  34
ATOM     34  C   LIG A   1      -5.926   2.116 125.028  0.00  0.00    -0.021 A 
ATOM     35  C   LIG A   1      -6.795   2.448 124.006  0.00  0.00    +0.087 A 
ATOM     36  N   LIG A   1      -7.362   1.295 123.533  0.00  0.00    -0.360 N 
ATOM     37  C   LIG A   1      -6.874   0.207 124.218  0.00  0.00    +0.047 A 
ATOM     38  C   LIG A   1      -7.153  -1.156 124.066  0.00  0.00    +0.026 A 
ATOM     39  C   LIG A   1      -6.499  -2.053 124.917  0.00  0.00    +0.002 A 
ATOM     40  C   LIG A   1      -5.611  -1.599 125.890  0.00  0.00    +0.001 A 
ATOM     41  C   LIG A   1      -5.353  -0.232 126.036  0.00  0.00    +0.010 A 
ATOM     42  C   LIG A   1      -5.986   0.692 125.178  0.00  0.00    +0.003 A 
ATOM     43  H   LIG A   1      -8.039   1.243 122.785  0.00  0.00    +0.165 HD
ENDBRANCH  33  34
ENDBRANCH   6  33
TORSDOF 4
ENDMDL
MODEL 7
REMARK VINA RESULT:      -9.8      3.805      6.419
REMARK  Name = NuBBE_493
REMARK  8 active torsions:
REMARK  status: ('A' for Active; 'I' for Inactive)
REMARK    1  A    between atoms: C_1  and  C_2
REMARK    2  A    between atoms: C_3  and  C_4
REMARK    3  A    between atoms: C_6  and  C_9
REMARK    4  A    between atoms: C_9  and  C_10
REMARK    5  A    between atoms: C_26  and  C_28
REMARK    6  A    between atoms: C_30  and  C_31
REMARK    7  A    between atoms: C_32  and  O_34
REMARK    8  A    between atoms: C_37  and  O_39
REMARK                            x       y       z     vdW  Elec       q    Type
REMARK                         _______ _______ _______ _____ _____    ______ ____
ROOT
ATOM      1  C   LIG A   1      -2.674   4.676 128.992  0.00  0.00    +0.041 C 
ATOM      2  C   LIG A   1      -3.932   3.840 128.923  0.00  0.00    -0.045 C 
ATOM      3  C   LIG A   1      -4.386   3.106 129.967  0.00  0.00    -0.065 C 
ATOM      4  C   LIG A   1      -3.838   3.326 131.361  0.00  0.00    +0.039 C 
ATOM      5  C   LIG A   1      -5.575   2.134 129.853  0.00  0.00    +0.058 C 
ATOM      6  C   LIG A   1      -5.264   0.620 130.087  0.00  0.00    +0.086 C 
ATOM      7  N   LIG A   1      -4.924   0.166 128.762  0.00  0.00    -0.311 N 
ATOM      8  C   LIG A   1      -6.237   2.085 128.408  0.00  0.00    +0.126 C 
ATOM      9  C   LIG A   1      -6.140   3.462 127.717  0.00  0.00    +0.067 C 
ATOM     10  C   LIG A   1      -6.939   3.646 126.427  0.00  0.00    -0.023 C 
ATOM     11  C   LIG A   1      -6.556   3.333 125.179  0.00  0.00    -0.030 C 
ATOM     12  C   LIG A   1      -7.352   3.672 123.942  0.00  0.00    +0.034 C 
ATOM     13  C   LIG A   1      -8.153   2.500 123.329  0.00  0.00    +0.012 C 
ATOM     14  C   LIG A   1      -8.826   2.962 122.032  0.00  0.00    +0.012 C 
ATOM     15  C   LIG A   1      -7.280   1.300 123.039  0.00  0.00    -0.022 C 
ATOM     16  C   LIG A   1      -7.514   0.003 123.338  0.00  0.00    -0.041 C 
ATOM     17  C   LIG A   1      -6.508  -1.043 122.920  0.00  0.00    +0.042 C 
ATOM     18  C   LIG A   1      -8.736  -0.570 124.022  0.00  0.00    +0.210 C 
ATOM     19  C   LIG A   1      -9.201   0.077 125.350  0.00  0.00    +0.189 C 
ATOM     20  O   LIG A   1     -10.405   0.209 125.592  0.00  0.00    -0.289 OA
ATOM     21  C   LIG A   1      -4.659   3.911 127.596  0.00  0.00    +0.148 C 
ATOM     22  C   LIG A   1      -7.710   1.666 128.574  0.00  0.00    +0.172 C 
ATOM     23  C   LIG A   1      -8.547   1.070 127.489  0.00  0.00    +0.051 C 
ATOM     24  C   LIG A   1      -8.169   0.497 126.341  0.00  0.00    +0.052 C 
ATOM     25  O   LIG A   1      -8.316   1.900 129.627  0.00  0.00    -0.291 OA
ATOM     26  C   LIG A   1      -5.364   1.013 127.780  0.00  0.00    +0.228 C 
ATOM     27  O   LIG A   1      -5.070   0.873 126.602  0.00  0.00    -0.275 OA
ATOM     28  H   LIG A   1      -4.391  -0.671 128.552  0.00  0.00    +0.149 HD
ENDROOT
BRANCH  18  29
ATOM     29  O   LIG A   1      -9.795  -0.577 123.066  0.00  0.00    -0.380 OA
ATOM     30  H   LIG A   1      -9.725   0.274 122.589  0.00  0.00    +0.211 HD
ENDBRANCH  18  29
BRANCH  21  31
ATOM     31  O   LIG A   1      -4.633   5.281 127.177  0.00  0.00    -0.387 OA
ATOM     32  H   LIG A   1      -3.720   5.594 127.301  0.00  0.00    +0.210 HD
ENDBRANCH  21  31
BRANCH   6  33
ATOM     33  C   LIG A   1      -4.198   0.253 131.130  0.00  0.00    +0.060 C 
BRANCH  33  34
ATOM     34  C   LIG A   1      -4.612  -0.879 132.027  0.00  0.00    -0.021 A 
ATOM     35  C   LIG A   1      -4.873  -0.803 133.382  0.00  0.00    +0.087 A 
ATOM     36  N   LIG A   1      -5.221  -2.052 133.824  0.00  0.00    -0.360 N 
ATOM     37  C   LIG A   1      -5.204  -2.948 132.780  0.00  0.00    +0.047 A 
ATOM     38  C   LIG A   1      -5.503  -4.315 132.759  0.00  0.00    +0.026 A 
ATOM     39  C   LIG A   1      -5.399  -4.985 131.535  0.00  0.00    +0.002 A 
ATOM     40  C   LIG A   1      -4.997  -4.313 130.383  0.00  0.00    +0.001 A 
ATOM     41  C   LIG A   1      -4.690  -2.949 130.425  0.00  0.00    +0.010 A 
ATOM     42  C   LIG A   1      -4.805  -2.246 131.643  0.00  0.00    +0.003 A 
ATOM     43  H   LIG A   1      -5.460  -2.288 134.776  0.00  0.00    +0.165 HD
ENDBRANCH  33  34
ENDBRANCH   6  33
TORSDOF 4
ENDMDL
MODEL 8
REMARK VINA RESULT:      -9.8      1.912      3.256
REMARK  Name = NuBBE_493
REMARK  8 active torsions:
REMARK  status: ('A' for Active; 'I' for Inactive)
REMARK    1  A    between atoms: C_1  and  C_2
REMARK    2  A    between atoms: C_3  and  C_4
REMARK    3  A    between atoms: C_6  and  C_9
REMARK    4  A    between atoms: C_9  and  C_10
REMARK    5  A    between atoms: C_26  and  C_28
REMARK    6  A    between atoms: C_30  and  C_31
REMARK    7  A    between atoms: C_32  and  O_34
REMARK    8  A    between atoms: C_37  and  O_39
REMARK                            x       y       z     vdW  Elec       q    Type
REMARK                         _______ _______ _______ _____ _____    ______ ____
ROOT
ATOM      1  C   LIG A   1      -3.017   3.884 129.468  0.00  0.00    +0.041 C 
ATOM      2  C   LIG A   1      -4.326   3.642 128.750  0.00  0.00    -0.045 C 
ATOM      3  C   LIG A   1      -5.385   4.482 128.846  0.00  0.00    -0.065 C 
ATOM      4  C   LIG A   1      -5.216   5.872 129.421  0.00  0.00    +0.039 C 
ATOM      5  C   LIG A   1      -6.765   4.161 128.246  0.00  0.00    +0.058 C 
ATOM      6  C   LIG A   1      -7.947   4.002 129.258  0.00  0.00    +0.086 C 
ATOM      7  N   LIG A   1      -7.895   2.597 129.577  0.00  0.00    -0.311 N 
ATOM      8  C   LIG A   1      -6.835   2.766 127.485  0.00  0.00    +0.126 C 
ATOM      9  C   LIG A   1      -5.477   2.437 126.828  0.00  0.00    +0.067 C 
ATOM     10  C   LIG A   1      -5.446   1.254 125.859  0.00  0.00    -0.023 C 
ATOM     11  C   LIG A   1      -5.269  -0.042 126.161  0.00  0.00    -0.030 C 
ATOM     12  C   LIG A   1      -5.117  -1.135 125.131  0.00  0.00    +0.034 C 
ATOM     13  C   LIG A   1      -6.376  -1.999 124.891  0.00  0.00    +0.012 C 
ATOM     14  C   LIG A   1      -6.047  -3.123 123.902  0.00  0.00    +0.012 C 
ATOM     15  C   LIG A   1      -6.910  -2.601 126.172  0.00  0.00    -0.022 C 
ATOM     16  C   LIG A   1      -8.185  -2.627 126.616  0.00  0.00    -0.041 C 
ATOM     17  C   LIG A   1      -8.497  -3.319 127.922  0.00  0.00    +0.042 C 
ATOM     18  C   LIG A   1      -9.408  -2.076 125.915  0.00  0.00    +0.210 C 
ATOM     19  C   LIG A   1      -9.357  -0.617 125.397  0.00  0.00    +0.189 C 
ATOM     20  O   LIG A   1      -9.882  -0.319 124.320  0.00  0.00    -0.289 OA
ATOM     21  C   LIG A   1      -4.349   2.393 127.892  0.00  0.00    +0.148 C 
ATOM     22  C   LIG A   1      -7.942   2.861 126.419  0.00  0.00    +0.172 C 
ATOM     23  C   LIG A   1      -8.634   1.684 125.812  0.00  0.00    +0.051 C 
ATOM     24  C   LIG A   1      -8.701   0.420 126.244  0.00  0.00    +0.052 C 
ATOM     25  O   LIG A   1      -8.255   3.955 125.931  0.00  0.00    -0.291 OA
ATOM     26  C   LIG A   1      -7.190   1.869 128.657  0.00  0.00    +0.228 C 
ATOM     27  O   LIG A   1      -6.924   0.686 128.810  0.00  0.00    -0.275 OA
ATOM     28  H   LIG A   1      -8.302   2.172 130.403  0.00  0.00    +0.149 HD
ENDROOT
BRANCH  18  29
ATOM     29  O   LIG A   1      -9.734  -2.976 124.857  0.00  0.00    -0.380 OA
ATOM     30  H   LIG A   1      -9.304  -2.611 124.059  0.00  0.00    +0.211 HD
ENDBRANCH  18  29
BRANCH  21  31
ATOM     31  O   LIG A   1      -3.087   2.327 127.216  0.00  0.00    -0.387 OA
ATOM     32  H   LIG A   1      -3.281   2.327 126.262  0.00  0.00    +0.210 HD
ENDBRANCH  21  31
BRANCH   6  33
ATOM     33  C   LIG A   1      -7.952   4.893 130.509  0.00  0.00    +0.060 C 
BRANCH  33  34
ATOM     34  C   LIG A   1      -7.953   4.112 131.792  0.00  0.00    -0.021 A 
ATOM     35  C   LIG A   1      -9.062   3.702 132.507  0.00  0.00    +0.087 A 
ATOM     36  N   LIG A   1      -8.632   3.017 133.613  0.00  0.00    -0.360 N 
ATOM     37  C   LIG A   1      -7.258   2.959 133.633  0.00  0.00    +0.047 A 
ATOM     38  C   LIG A   1      -6.393   2.354 134.552  0.00  0.00    +0.026 A 
ATOM     39  C   LIG A   1      -5.018   2.457 134.316  0.00  0.00    +0.002 A 
ATOM     40  C   LIG A   1      -4.531   3.152 133.211  0.00  0.00    +0.001 A 
ATOM     41  C   LIG A   1      -5.410   3.761 132.310  0.00  0.00    +0.010 A 
ATOM     42  C   LIG A   1      -6.801   3.656 132.514  0.00  0.00    +0.003 A 
ATOM     43  H   LIG A   1      -9.231   2.606 134.314  0.00  0.00    +0.165 HD
ENDBRANCH  33  34
ENDBRANCH   6  33
TORSDOF 4
ENDMDL
MODEL 9
REMARK VINA RESULT:      -9.7      4.143      7.131
REMARK  Name = NuBBE_493
REMARK  8 active torsions:
REMARK  status: ('A' for Active; 'I' for Inactive)
REMARK    1  A    between atoms: C_1  and  C_2
REMARK    2  A    between atoms: C_3  and  C_4
REMARK    3  A    between atoms: C_6  and  C_9
REMARK    4  A    between atoms: C_9  and  C_10
REMARK    5  A    between atoms: C_26  and  C_28
REMARK    6  A    between atoms: C_30  and  C_31
REMARK    7  A    between atoms: C_32  and  O_34
REMARK    8  A    between atoms: C_37  and  O_39
REMARK                            x       y       z     vdW  Elec       q    Type
REMARK                         _______ _______ _______ _____ _____    ______ ____
ROOT
ATOM      1  C   LIG A   1      -3.916   3.546 129.286  0.00  0.00    +0.041 C 
ATOM      2  C   LIG A   1      -4.799   2.323 129.185  0.00  0.00    -0.045 C 
ATOM      3  C   LIG A   1      -4.769   1.316 130.092  0.00  0.00    -0.065 C 
ATOM      4  C   LIG A   1      -4.079   1.502 131.427  0.00  0.00    +0.039 C 
ATOM      5  C   LIG A   1      -5.549   0.002 129.911  0.00  0.00    +0.058 C 
ATOM      6  C   LIG A   1      -4.698  -1.303 129.775  0.00  0.00    +0.086 C 
ATOM      7  N   LIG A   1      -4.477  -1.380 128.352  0.00  0.00    -0.311 N 
ATOM      8  C   LIG A   1      -6.412  -0.063 128.577  0.00  0.00    +0.126 C 
ATOM      9  C   LIG A   1      -6.925   1.342 128.192  0.00  0.00    +0.067 C 
ATOM     10  C   LIG A   1      -7.966   1.415 127.074  0.00  0.00    -0.023 C 
ATOM     11  C   LIG A   1      -7.739   1.470 125.752  0.00  0.00    -0.030 C 
ATOM     12  C   LIG A   1      -8.820   1.677 124.718  0.00  0.00    +0.034 C 
ATOM     13  C   LIG A   1      -9.268   0.404 123.965  0.00  0.00    +0.012 C 
ATOM     14  C   LIG A   1     -10.289   0.779 122.885  0.00  0.00    +0.012 C 
ATOM     15  C   LIG A   1      -8.107  -0.321 123.323  0.00  0.00    -0.022 C 
ATOM     16  C   LIG A   1      -7.819  -1.640 123.361  0.00  0.00    -0.041 C 
ATOM     17  C   LIG A   1      -6.612  -2.154 122.613  0.00  0.00    +0.042 C 
ATOM     18  C   LIG A   1      -8.618  -2.730 124.043  0.00  0.00    +0.210 C 
ATOM     19  C   LIG A   1      -9.020  -2.522 125.525  0.00  0.00    +0.189 C 
ATOM     20  O   LIG A   1     -10.128  -2.890 125.928  0.00  0.00    -0.289 OA
ATOM     21  C   LIG A   1      -5.741   2.325 127.999  0.00  0.00    +0.148 C 
ATOM     22  C   LIG A   1      -7.592  -1.022 128.819  0.00  0.00    +0.172 C 
ATOM     23  C   LIG A   1      -8.359  -1.709 127.736  0.00  0.00    +0.051 C 
ATOM     24  C   LIG A   1      -8.029  -1.909 126.455  0.00  0.00    +0.052 C 
ATOM     25  O   LIG A   1      -8.033  -1.202 129.961  0.00  0.00    -0.291 OA
ATOM     26  C   LIG A   1      -5.357  -0.616 127.634  0.00  0.00    +0.228 C 
ATOM     27  O   LIG A   1      -5.259  -0.448 126.428  0.00  0.00    -0.275 OA
ATOM     28  H   LIG A   1      -3.738  -1.913 127.906  0.00  0.00    +0.149 HD
ENDROOT
BRANCH  18  29
ATOM     29  O   LIG A   1      -9.769  -2.981 123.238  0.00  0.00    -0.380 OA
ATOM     30  H   LIG A   1      -9.453  -2.961 122.313  0.00  0.00    +0.211 HD
ENDBRANCH  18  29
BRANCH  21  31
ATOM     31  O   LIG A   1      -6.266   3.654 127.884  0.00  0.00    -0.387 OA
ATOM     32  H   LIG A   1      -6.298   3.861 126.934  0.00  0.00    +0.210 HD
ENDBRANCH  21  31
BRANCH   6  33
ATOM     33  C   LIG A   1      -3.396  -1.404 130.582  0.00  0.00    +0.060 C 
BRANCH  33  34
ATOM     34  C   LIG A   1      -3.581  -2.046 131.928  0.00  0.00    -0.021 A 
ATOM     35  C   LIG A   1      -3.132  -1.562 133.141  0.00  0.00    +0.087 A 
ATOM     36  N   LIG A   1      -3.509  -2.442 134.121  0.00  0.00    -0.360 N 
ATOM     37  C   LIG A   1      -4.207  -3.493 133.575  0.00  0.00    +0.047 A 
ATOM     38  C   LIG A   1      -4.793  -4.605 134.191  0.00  0.00    +0.026 A 
ATOM     39  C   LIG A   1      -5.451  -5.530 133.374  0.00  0.00    +0.002 A 
ATOM     40  C   LIG A   1      -5.507  -5.353 131.993  0.00  0.00    +0.001 A 
ATOM     41  C   LIG A   1      -4.905  -4.242 131.393  0.00  0.00    +0.010 A 
ATOM     42  C   LIG A   1      -4.252  -3.285 132.197  0.00  0.00    +0.003 A 
ATOM     43  H   LIG A   1      -3.309  -2.338 135.106  0.00  0.00    +0.165 HD
ENDBRANCH  33  34
ENDBRANCH   6  33
TORSDOF 4
ENDMDL
