MODEL 1
REMARK VINA RESULT:      -4.8      0.000      0.000
REMARK  Name = NuBBE_2118
REMARK  8 active torsions:
REMARK  status: ('A' for Active; 'I' for Inactive)
REMARK    1  A    between atoms: C_2  and  C_3
REMARK    2  A    between atoms: C_3  and  C_4
REMARK    3  A    between atoms: C_4  and  C_5
REMARK    4  A    between atoms: C_5  and  C_6
REMARK    5  A    between atoms: C_6  and  C_7
REMARK    6  A    between atoms: C_7  and  C_8
REMARK    7  A    between atoms: C_8  and  C_9
REMARK    8  A    between atoms: C_9  and  C_10
REMARK                            x       y       z     vdW  Elec       q    Type
REMARK                         _______ _______ _______ _____ _____    ______ ____
ROOT
ATOM      1  C   LIG A   1      -8.744  -2.643 123.161  0.00  0.00    +0.000 C 
ENDROOT
BRANCH   1   2
ATOM      2  C   LIG A   1      -8.938  -3.589 124.368  0.00  0.00    +0.004 C 
BRANCH   2   3
ATOM      3  C   LIG A   1      -9.453  -2.896 125.640  0.00  0.00    +0.026 C 
BRANCH   3   5
ATOM      4  C   LIG A   1      -8.998  -3.908 127.929  0.00  0.00    +0.004 C 
ATOM      5  C   LIG A   1      -8.656  -3.158 126.901  0.00  0.00    -0.035 C 
ENDBRANCH   3   5
ENDBRANCH   2   3
ENDBRANCH   1   2
BRANCH   1   6
ATOM      6  C   LIG A   1      -7.778  -1.528 123.517  0.00  0.00    +0.000 C 
BRANCH   6   7
ATOM      7  C   LIG A   1      -6.343  -1.628 123.023  0.00  0.00    -0.000 C 
BRANCH   7   8
ATOM      8  C   LIG A   1      -5.470  -2.492 123.958  0.00  0.00    -0.000 C 
BRANCH   8   9
ATOM      9  C   LIG A   1      -4.396  -3.370 123.291  0.00  0.00    -0.003 C 
ATOM     10  C   LIG A   1      -4.382  -4.860 123.626  0.00  0.00    +0.004 C 
ENDBRANCH   8   9
ENDBRANCH   7   8
ENDBRANCH   6   7
ENDBRANCH   1   6
TORSDOF 7
ENDMDL
MODEL 2
REMARK VINA RESULT:      -4.8      1.484      4.692
REMARK  Name = NuBBE_2118
REMARK  8 active torsions:
REMARK  status: ('A' for Active; 'I' for Inactive)
REMARK    1  A    between atoms: C_2  and  C_3
REMARK    2  A    between atoms: C_3  and  C_4
REMARK    3  A    between atoms: C_4  and  C_5
REMARK    4  A    between atoms: C_5  and  C_6
REMARK    5  A    between atoms: C_6  and  C_7
REMARK    6  A    between atoms: C_7  and  C_8
REMARK    7  A    between atoms: C_8  and  C_9
REMARK    8  A    between atoms: C_9  and  C_10
REMARK                            x       y       z     vdW  Elec       q    Type
REMARK                         _______ _______ _______ _____ _____    ______ ____
ROOT
ATOM      1  C   LIG A   1      -6.692  -2.504 125.595  0.00  0.00    +0.000 C 
ENDROOT
BRANCH   1   2
ATOM      2  C   LIG A   1      -5.779  -1.854 124.531  0.00  0.00    +0.004 C 
BRANCH   2   3
ATOM      3  C   LIG A   1      -5.473  -2.755 123.323  0.00  0.00    +0.026 C 
BRANCH   3   5
ATOM      4  C   LIG A   1      -4.306  -5.005 123.531  0.00  0.00    +0.004 C 
ATOM      5  C   LIG A   1      -4.291  -3.688 123.481  0.00  0.00    -0.035 C 
ENDBRANCH   3   5
ENDBRANCH   2   3
ENDBRANCH   1   2
BRANCH   1   6
ATOM      6  C   LIG A   1      -7.584  -3.551 124.954  0.00  0.00    +0.000 C 
BRANCH   6   7
ATOM      7  C   LIG A   1      -9.064  -3.242 124.795  0.00  0.00    -0.000 C 
BRANCH   7   8
ATOM      8  C   LIG A   1      -9.458  -3.051 123.315  0.00  0.00    -0.000 C 
BRANCH   8   9
ATOM      9  C   LIG A   1      -9.032  -1.731 122.647  0.00  0.00    -0.003 C 
ATOM     10  C   LIG A   1      -9.087  -0.456 123.485  0.00  0.00    +0.004 C 
ENDBRANCH   8   9
ENDBRANCH   7   8
ENDBRANCH   6   7
ENDBRANCH   1   6
TORSDOF 7
ENDMDL
MODEL 3
REMARK VINA RESULT:      -4.7      0.694      4.411
REMARK  Name = NuBBE_2118
REMARK  8 active torsions:
REMARK  status: ('A' for Active; 'I' for Inactive)
REMARK    1  A    between atoms: C_2  and  C_3
REMARK    2  A    between atoms: C_3  and  C_4
REMARK    3  A    between atoms: C_4  and  C_5
REMARK    4  A    between atoms: C_5  and  C_6
REMARK    5  A    between atoms: C_6  and  C_7
REMARK    6  A    between atoms: C_7  and  C_8
REMARK    7  A    between atoms: C_8  and  C_9
REMARK    8  A    between atoms: C_9  and  C_10
REMARK                            x       y       z     vdW  Elec       q    Type
REMARK                         _______ _______ _______ _____ _____    ______ ____
ROOT
ATOM      1  C   LIG A   1      -8.057  -1.213 123.792  0.00  0.00    +0.000 C 
ENDROOT
BRANCH   1   2
ATOM      2  C   LIG A   1      -6.701  -0.969 123.090  0.00  0.00    +0.004 C 
BRANCH   2   3
ATOM      3  C   LIG A   1      -6.025  -2.243 122.556  0.00  0.00    +0.026 C 
BRANCH   3   5
ATOM      4  C   LIG A   1      -4.921  -4.111 123.883  0.00  0.00    +0.004 C 
ATOM      5  C   LIG A   1      -4.983  -2.864 123.463  0.00  0.00    -0.035 C 
ENDBRANCH   3   5
ENDBRANCH   2   3
ENDBRANCH   1   2
BRANCH   1   6
ATOM      6  C   LIG A   1      -8.795  -2.359 123.126  0.00  0.00    +0.000 C 
BRANCH   6   7
ATOM      7  C   LIG A   1      -9.225  -3.539 123.984  0.00  0.00    -0.000 C 
BRANCH   7   8
ATOM      8  C   LIG A   1      -8.395  -3.642 125.281  0.00  0.00    -0.000 C 
BRANCH   8   9
ATOM      9  C   LIG A   1      -9.073  -3.165 126.579  0.00  0.00    -0.003 C 
ATOM     10  C   LIG A   1      -8.925  -4.037 127.824  0.00  0.00    +0.004 C 
ENDBRANCH   8   9
ENDBRANCH   7   8
ENDBRANCH   6   7
ENDBRANCH   1   6
TORSDOF 7
ENDMDL
MODEL 4
REMARK VINA RESULT:      -4.7     11.146     12.652
REMARK  Name = NuBBE_2118
REMARK  8 active torsions:
REMARK  status: ('A' for Active; 'I' for Inactive)
REMARK    1  A    between atoms: C_2  and  C_3
REMARK    2  A    between atoms: C_3  and  C_4
REMARK    3  A    between atoms: C_4  and  C_5
REMARK    4  A    between atoms: C_5  and  C_6
REMARK    5  A    between atoms: C_6  and  C_7
REMARK    6  A    between atoms: C_7  and  C_8
REMARK    7  A    between atoms: C_8  and  C_9
REMARK    8  A    between atoms: C_9  and  C_10
REMARK                            x       y       z     vdW  Elec       q    Type
REMARK                         _______ _______ _______ _____ _____    ______ ____
ROOT
ATOM      1  C   LIG A   1     -12.771   8.779 130.013  0.00  0.00    +0.000 C 
ENDROOT
BRANCH   1   2
ATOM      2  C   LIG A   1     -13.135   8.863 128.513  0.00  0.00    +0.004 C 
BRANCH   2   3
ATOM      3  C   LIG A   1     -13.494   7.513 127.870  0.00  0.00    +0.026 C 
BRANCH   3   5
ATOM      4  C   LIG A   1     -11.335   7.405 126.531  0.00  0.00    +0.004 C 
ATOM      5  C   LIG A   1     -12.587   7.058 126.746  0.00  0.00    -0.035 C 
ENDBRANCH   3   5
ENDBRANCH   2   3
ENDBRANCH   1   2
BRANCH   1   6
ATOM      6  C   LIG A   1     -13.011   7.374 130.534  0.00  0.00    +0.000 C 
BRANCH   6   7
ATOM      7  C   LIG A   1     -11.859   6.646 131.208  0.00  0.00    -0.000 C 
BRANCH   7   8
ATOM      8  C   LIG A   1     -11.111   5.717 130.229  0.00  0.00    -0.000 C 
BRANCH   8   9
ATOM      9  C   LIG A   1      -9.745   6.207 129.712  0.00  0.00    -0.003 C 
ATOM     10  C   LIG A   1      -8.867   7.012 130.667  0.00  0.00    +0.004 C 
ENDBRANCH   8   9
ENDBRANCH   7   8
ENDBRANCH   6   7
ENDBRANCH   1   6
TORSDOF 7
ENDMDL
MODEL 5
REMARK VINA RESULT:      -4.5      1.256      4.474
REMARK  Name = NuBBE_2118
REMARK  8 active torsions:
REMARK  status: ('A' for Active; 'I' for Inactive)
REMARK    1  A    between atoms: C_2  and  C_3
REMARK    2  A    between atoms: C_3  and  C_4
REMARK    3  A    between atoms: C_4  and  C_5
REMARK    4  A    between atoms: C_5  and  C_6
REMARK    5  A    between atoms: C_6  and  C_7
REMARK    6  A    between atoms: C_7  and  C_8
REMARK    7  A    between atoms: C_8  and  C_9
REMARK    8  A    between atoms: C_9  and  C_10
REMARK                            x       y       z     vdW  Elec       q    Type
REMARK                         _______ _______ _______ _____ _____    ______ ____
ROOT
ATOM      1  C   LIG A   1      -6.421  -0.420 124.849  0.00  0.00    +0.000 C 
ENDROOT
BRANCH   1   2
ATOM      2  C   LIG A   1      -5.548  -1.674 125.085  0.00  0.00    +0.004 C 
BRANCH   2   3
ATOM      3  C   LIG A   1      -5.249  -2.488 123.815  0.00  0.00    +0.026 C 
BRANCH   3   5
ATOM      4  C   LIG A   1      -4.186  -4.768 123.445  0.00  0.00    +0.004 C 
ATOM      5  C   LIG A   1      -5.074  -3.979 124.014  0.00  0.00    -0.035 C 
ENDBRANCH   3   5
ENDBRANCH   2   3
ENDBRANCH   1   2
BRANCH   1   6
ATOM      6  C   LIG A   1      -7.891  -0.794 124.860  0.00  0.00    +0.000 C 
BRANCH   6   7
ATOM      7  C   LIG A   1      -8.479  -1.385 126.132  0.00  0.00    -0.000 C 
BRANCH   7   8
ATOM      8  C   LIG A   1      -9.185  -2.732 125.869  0.00  0.00    -0.000 C 
BRANCH   8   9
ATOM      9  C   LIG A   1      -8.739  -3.520 124.623  0.00  0.00    -0.003 C 
ATOM     10  C   LIG A   1      -9.618  -3.443 123.377  0.00  0.00    +0.004 C 
ENDBRANCH   8   9
ENDBRANCH   7   8
ENDBRANCH   6   7
ENDBRANCH   1   6
TORSDOF 7
ENDMDL
MODEL 6
REMARK VINA RESULT:      -4.4      1.668      2.488
REMARK  Name = NuBBE_2118
REMARK  8 active torsions:
REMARK  status: ('A' for Active; 'I' for Inactive)
REMARK    1  A    between atoms: C_2  and  C_3
REMARK    2  A    between atoms: C_3  and  C_4
REMARK    3  A    between atoms: C_4  and  C_5
REMARK    4  A    between atoms: C_5  and  C_6
REMARK    5  A    between atoms: C_6  and  C_7
REMARK    6  A    between atoms: C_7  and  C_8
REMARK    7  A    between atoms: C_8  and  C_9
REMARK    8  A    between atoms: C_9  and  C_10
REMARK                            x       y       z     vdW  Elec       q    Type
REMARK                         _______ _______ _______ _____ _____    ______ ____
ROOT
ATOM      1  C   LIG A   1      -9.139  -3.191 125.977  0.00  0.00    +0.000 C 
ENDROOT
BRANCH   1   2
ATOM      2  C   LIG A   1      -8.761  -3.539 127.435  0.00  0.00    +0.004 C 
BRANCH   2   3
ATOM      3  C   LIG A   1      -7.976  -2.437 128.166  0.00  0.00    +0.026 C 
BRANCH   3   5
ATOM      4  C   LIG A   1      -5.526  -1.759 128.085  0.00  0.00    +0.004 C 
ATOM      5  C   LIG A   1      -6.479  -2.650 128.264  0.00  0.00    -0.035 C 
ENDBRANCH   3   5
ENDBRANCH   2   3
ENDBRANCH   1   2
BRANCH   1   6
ATOM      6  C   LIG A   1      -8.096  -3.735 125.019  0.00  0.00    +0.000 C 
BRANCH   6   7
ATOM      7  C   LIG A   1      -7.209  -2.748 124.277  0.00  0.00    -0.000 C 
BRANCH   7   8
ATOM      8  C   LIG A   1      -5.714  -2.966 124.591  0.00  0.00    -0.000 C 
BRANCH   8   9
ATOM      9  C   LIG A   1      -4.809  -3.380 123.416  0.00  0.00    -0.003 C 
ATOM     10  C   LIG A   1      -4.165  -4.764 123.463  0.00  0.00    +0.004 C 
ENDBRANCH   8   9
ENDBRANCH   7   8
ENDBRANCH   6   7
ENDBRANCH   1   6
TORSDOF 7
ENDMDL
MODEL 7
REMARK VINA RESULT:      -4.3      1.579      4.508
REMARK  Name = NuBBE_2118
REMARK  8 active torsions:
REMARK  status: ('A' for Active; 'I' for Inactive)
REMARK    1  A    between atoms: C_2  and  C_3
REMARK    2  A    between atoms: C_3  and  C_4
REMARK    3  A    between atoms: C_4  and  C_5
REMARK    4  A    between atoms: C_5  and  C_6
REMARK    5  A    between atoms: C_6  and  C_7
REMARK    6  A    between atoms: C_7  and  C_8
REMARK    7  A    between atoms: C_8  and  C_9
REMARK    8  A    between atoms: C_9  and  C_10
REMARK                            x       y       z     vdW  Elec       q    Type
REMARK                         _______ _______ _______ _____ _____    ______ ____
ROOT
ATOM      1  C   LIG A   1      -8.042  -3.871 124.741  0.00  0.00    +0.000 C 
ENDROOT
BRANCH   1   2
ATOM      2  C   LIG A   1      -7.077  -2.921 123.995  0.00  0.00    +0.004 C 
BRANCH   2   3
ATOM      3  C   LIG A   1      -5.618  -2.992 124.476  0.00  0.00    +0.026 C 
BRANCH   3   5
ATOM      4  C   LIG A   1      -4.274  -4.891 123.448  0.00  0.00    +0.004 C 
ATOM      5  C   LIG A   1      -4.637  -3.626 123.512  0.00  0.00    -0.035 C 
ENDBRANCH   3   5
ENDBRANCH   2   3
ENDBRANCH   1   2
BRANCH   1   6
ATOM      6  C   LIG A   1      -9.117  -3.074 125.455  0.00  0.00    +0.000 C 
BRANCH   6   7
ATOM      7  C   LIG A   1      -8.689  -2.042 126.486  0.00  0.00    -0.000 C 
BRANCH   7   8
ATOM      8  C   LIG A   1      -8.099  -2.701 127.751  0.00  0.00    -0.000 C 
BRANCH   8   9
ATOM      9  C   LIG A   1      -6.594  -2.496 128.005  0.00  0.00    -0.003 C 
ATOM     10  C   LIG A   1      -5.989  -1.139 127.652  0.00  0.00    +0.004 C 
ENDBRANCH   8   9
ENDBRANCH   7   8
ENDBRANCH   6   7
ENDBRANCH   1   6
TORSDOF 7
ENDMDL
MODEL 8
REMARK VINA RESULT:      -4.3      2.703      5.469
REMARK  Name = NuBBE_2118
REMARK  8 active torsions:
REMARK  status: ('A' for Active; 'I' for Inactive)
REMARK    1  A    between atoms: C_2  and  C_3
REMARK    2  A    between atoms: C_3  and  C_4
REMARK    3  A    between atoms: C_4  and  C_5
REMARK    4  A    between atoms: C_5  and  C_6
REMARK    5  A    between atoms: C_6  and  C_7
REMARK    6  A    between atoms: C_7  and  C_8
REMARK    7  A    between atoms: C_8  and  C_9
REMARK    8  A    between atoms: C_9  and  C_10
REMARK                            x       y       z     vdW  Elec       q    Type
REMARK                         _______ _______ _______ _____ _____    ______ ____
ROOT
ATOM      1  C   LIG A   1      -8.989  -4.027 127.788  0.00  0.00    +0.000 C 
ENDROOT
BRANCH   1   2
ATOM      2  C   LIG A   1      -8.785  -3.128 126.547  0.00  0.00    +0.004 C 
BRANCH   2   3
ATOM      3  C   LIG A   1      -8.187  -3.852 125.330  0.00  0.00    +0.026 C 
BRANCH   3   5
ATOM      4  C   LIG A   1      -9.741  -3.312 123.391  0.00  0.00    +0.004 C 
ATOM      5  C   LIG A   1      -8.562  -3.285 123.977  0.00  0.00    -0.035 C 
ENDBRANCH   3   5
ENDBRANCH   2   3
ENDBRANCH   1   2
BRANCH   1   6
ATOM      6  C   LIG A   1      -8.439  -3.347 129.027  0.00  0.00    +0.000 C 
BRANCH   6   7
ATOM      7  C   LIG A   1      -7.000  -2.855 129.005  0.00  0.00    -0.000 C 
BRANCH   7   8
ATOM      8  C   LIG A   1      -6.250  -3.206 130.307  0.00  0.00    -0.000 C 
BRANCH   8   9
ATOM      9  C   LIG A   1      -5.850  -4.680 130.504  0.00  0.00    -0.003 C 
ATOM     10  C   LIG A   1      -5.322  -5.100 131.874  0.00  0.00    +0.004 C 
ENDBRANCH   8   9
ENDBRANCH   7   8
ENDBRANCH   6   7
ENDBRANCH   1   6
TORSDOF 7
ENDMDL
MODEL 9
REMARK VINA RESULT:      -4.2      2.512      4.901
REMARK  Name = NuBBE_2118
REMARK  8 active torsions:
REMARK  status: ('A' for Active; 'I' for Inactive)
REMARK    1  A    between atoms: C_2  and  C_3
REMARK    2  A    between atoms: C_3  and  C_4
REMARK    3  A    between atoms: C_4  and  C_5
REMARK    4  A    between atoms: C_5  and  C_6
REMARK    5  A    between atoms: C_6  and  C_7
REMARK    6  A    between atoms: C_7  and  C_8
REMARK    7  A    between atoms: C_8  and  C_9
REMARK    8  A    between atoms: C_9  and  C_10
REMARK                            x       y       z     vdW  Elec       q    Type
REMARK                         _______ _______ _______ _____ _____    ______ ____
ROOT
ATOM      1  C   LIG A   1      -8.444  -3.435 129.120  0.00  0.00    +0.000 C 
ENDROOT
BRANCH   1   2
ATOM      2  C   LIG A   1      -7.214  -2.501 129.070  0.00  0.00    +0.004 C 
BRANCH   2   3
ATOM      3  C   LIG A   1      -5.896  -3.164 129.504  0.00  0.00    +0.026 C 
BRANCH   3   5
ATOM      4  C   LIG A   1      -5.378  -4.827 131.358  0.00  0.00    +0.004 C 
ATOM      5  C   LIG A   1      -6.035  -4.459 130.277  0.00  0.00    -0.035 C 
ENDBRANCH   3   5
ENDBRANCH   2   3
ENDBRANCH   1   2
BRANCH   1   6
ATOM      6  C   LIG A   1      -8.830  -3.871 127.719  0.00  0.00    +0.000 C 
BRANCH   6   7
ATOM      7  C   LIG A   1      -8.523  -2.938 126.559  0.00  0.00    -0.000 C 
BRANCH   7   8
ATOM      8  C   LIG A   1      -8.319  -3.708 125.237  0.00  0.00    -0.000 C 
BRANCH   8   9
ATOM      9  C   LIG A   1      -9.275  -3.367 124.079  0.00  0.00    -0.003 C 
ATOM     10  C   LIG A   1      -8.765  -2.435 122.981  0.00  0.00    +0.004 C 
ENDBRANCH   8   9
ENDBRANCH   7   8
ENDBRANCH   6   7
ENDBRANCH   1   6
TORSDOF 7
ENDMDL
