MODEL 1
REMARK VINA RESULT:      -6.4      0.000      0.000
REMARK  Name = NuBBE_1596
REMARK  3 active torsions:
REMARK  status: ('A' for Active; 'I' for Inactive)
REMARK    1  A    between atoms: C_1  and  C_2
REMARK    2  A    between atoms: C_1  and  C_4
REMARK    3  A    between atoms: C_2  and  C_3
REMARK                            x       y       z     vdW  Elec       q    Type
REMARK                         _______ _______ _______ _____ _____    ______ ____
ROOT
ATOM      1  C   LIG A   1      -9.023   6.540 131.345  0.00  0.00    +0.042 A 
ATOM      2  N   LIG A   1      -9.143   7.207 130.172  0.00  0.00    -0.252 NA
ATOM      3  C   LIG A   1     -10.376   7.497 129.716  0.00  0.00    +0.071 A 
ATOM      4  C   LIG A   1     -11.544   7.136 130.418  0.00  0.00    +0.000 A 
ATOM      5  C   LIG A   1     -11.394   6.447 131.628  0.00  0.00    +0.012 A 
ATOM      6  C   LIG A   1     -10.121   6.148 132.100  0.00  0.00    +0.024 A 
ATOM      7  C   LIG A   1     -12.812   7.467 129.906  0.00  0.00    +0.010 A 
ATOM      8  C   LIG A   1     -12.927   8.154 128.701  0.00  0.00    +0.001 A 
ATOM      9  C   LIG A   1     -11.778   8.510 128.002  0.00  0.00    +0.002 A 
ATOM     10  C   LIG A   1     -10.521   8.179 128.515  0.00  0.00    +0.028 A 
ENDROOT
BRANCH   1  11
ATOM     11  C   LIG A   1      -7.623   6.273 131.838  0.00  0.00    +0.055 C 
BRANCH  11  12
ATOM     12  C   LIG A   1      -6.589   7.050 131.022  0.00  0.00    +0.003 C 
ATOM     13  C   LIG A   1      -5.170   6.721 131.455  0.00  0.00    +0.004 C 
ENDBRANCH  11  12
ENDBRANCH   1  11
TORSDOF 2
ENDMDL
MODEL 2
REMARK VINA RESULT:      -6.4      1.354      4.887
REMARK  Name = NuBBE_1596
REMARK  3 active torsions:
REMARK  status: ('A' for Active; 'I' for Inactive)
REMARK    1  A    between atoms: C_1  and  C_2
REMARK    2  A    between atoms: C_1  and  C_4
REMARK    3  A    between atoms: C_2  and  C_3
REMARK                            x       y       z     vdW  Elec       q    Type
REMARK                         _______ _______ _______ _____ _____    ______ ____
ROOT
ATOM      1  C   LIG A   1     -12.088   7.937 129.659  0.00  0.00    +0.042 A 
ATOM      2  N   LIG A   1     -10.736   7.904 129.564  0.00  0.00    -0.252 NA
ATOM      3  C   LIG A   1     -10.039   7.232 130.496  0.00  0.00    +0.071 A 
ATOM      4  C   LIG A   1     -10.664   6.557 131.566  0.00  0.00    +0.000 A 
ATOM      5  C   LIG A   1     -12.061   6.606 131.643  0.00  0.00    +0.012 A 
ATOM      6  C   LIG A   1     -12.782   7.300 130.678  0.00  0.00    +0.024 A 
ATOM      7  C   LIG A   1      -9.893   5.860 132.514  0.00  0.00    +0.010 A 
ATOM      8  C   LIG A   1      -8.505   5.829 132.408  0.00  0.00    +0.001 A 
ATOM      9  C   LIG A   1      -7.883   6.496 131.358  0.00  0.00    +0.002 A 
ATOM     10  C   LIG A   1      -8.653   7.186 130.418  0.00  0.00    +0.028 A 
ENDROOT
BRANCH   1  11
ATOM     11  C   LIG A   1     -12.831   8.668 128.568  0.00  0.00    +0.055 C 
BRANCH  11  12
ATOM     12  C   LIG A   1     -13.597   7.696 127.671  0.00  0.00    +0.003 C 
ATOM     13  C   LIG A   1     -12.678   7.012 126.672  0.00  0.00    +0.004 C 
ENDBRANCH  11  12
ENDBRANCH   1  11
TORSDOF 2
ENDMDL
MODEL 3
REMARK VINA RESULT:      -6.3     11.382     12.140
REMARK  Name = NuBBE_1596
REMARK  3 active torsions:
REMARK  status: ('A' for Active; 'I' for Inactive)
REMARK    1  A    between atoms: C_1  and  C_2
REMARK    2  A    between atoms: C_1  and  C_4
REMARK    3  A    between atoms: C_2  and  C_3
REMARK                            x       y       z     vdW  Elec       q    Type
REMARK                         _______ _______ _______ _____ _____    ______ ____
ROOT
ATOM      1  C   LIG A   1      -6.608  -2.836 124.436  0.00  0.00    +0.042 A 
ATOM      2  N   LIG A   1      -6.170  -2.447 125.658  0.00  0.00    -0.252 NA
ATOM      3  C   LIG A   1      -6.938  -2.705 126.732  0.00  0.00    +0.071 A 
ATOM      4  C   LIG A   1      -8.179  -3.369 126.631  0.00  0.00    +0.000 A 
ATOM      5  C   LIG A   1      -8.609  -3.760 125.358  0.00  0.00    +0.012 A 
ATOM      6  C   LIG A   1      -7.816  -3.495 124.248  0.00  0.00    +0.024 A 
ATOM      7  C   LIG A   1      -8.945  -3.623 127.783  0.00  0.00    +0.010 A 
ATOM      8  C   LIG A   1      -8.487  -3.222 129.035  0.00  0.00    +0.001 A 
ATOM      9  C   LIG A   1      -7.267  -2.564 129.141  0.00  0.00    +0.002 A 
ATOM     10  C   LIG A   1      -6.509  -2.313 127.994  0.00  0.00    +0.028 A 
ENDROOT
BRANCH   1  11
ATOM     11  C   LIG A   1      -5.696  -2.563 123.266  0.00  0.00    +0.055 C 
BRANCH  11  12
ATOM     12  C   LIG A   1      -4.330  -3.223 123.460  0.00  0.00    +0.003 C 
ATOM     13  C   LIG A   1      -4.445  -4.737 123.536  0.00  0.00    +0.004 C 
ENDBRANCH  11  12
ENDBRANCH   1  11
TORSDOF 2
ENDMDL
MODEL 4
REMARK VINA RESULT:      -6.1      1.515      5.274
REMARK  Name = NuBBE_1596
REMARK  3 active torsions:
REMARK  status: ('A' for Active; 'I' for Inactive)
REMARK    1  A    between atoms: C_1  and  C_2
REMARK    2  A    between atoms: C_1  and  C_4
REMARK    3  A    between atoms: C_2  and  C_3
REMARK                            x       y       z     vdW  Elec       q    Type
REMARK                         _______ _______ _______ _____ _____    ______ ____
ROOT
ATOM      1  C   LIG A   1     -12.071   7.918 129.261  0.00  0.00    +0.042 A 
ATOM      2  N   LIG A   1     -12.046   7.250 130.439  0.00  0.00    -0.252 NA
ATOM      3  C   LIG A   1     -10.856   6.891 130.953  0.00  0.00    +0.071 A 
ATOM      4  C   LIG A   1      -9.635   7.189 130.311  0.00  0.00    +0.000 A 
ATOM      5  C   LIG A   1      -9.687   7.880 129.095  0.00  0.00    +0.012 A 
ATOM      6  C   LIG A   1     -10.917   8.252 128.564  0.00  0.00    +0.024 A 
ATOM      7  C   LIG A   1      -8.414   6.800 130.891  0.00  0.00    +0.010 A 
ATOM      8  C   LIG A   1      -8.397   6.115 132.103  0.00  0.00    +0.001 A 
ATOM      9  C   LIG A   1      -9.596   5.815 132.739  0.00  0.00    +0.002 A 
ATOM     10  C   LIG A   1     -10.808   6.204 132.160  0.00  0.00    +0.028 A 
ENDROOT
BRANCH   1  11
ATOM     11  C   LIG A   1     -13.425   8.337 128.742  0.00  0.00    +0.055 C 
BRANCH  11  12
ATOM     12  C   LIG A   1     -13.531   9.858 128.633  0.00  0.00    +0.003 C 
ATOM     13  C   LIG A   1     -13.423  10.527 129.994  0.00  0.00    +0.004 C 
ENDBRANCH  11  12
ENDBRANCH   1  11
TORSDOF 2
ENDMDL
MODEL 5
REMARK VINA RESULT:      -6.1      1.879      2.968
REMARK  Name = NuBBE_1596
REMARK  3 active torsions:
REMARK  status: ('A' for Active; 'I' for Inactive)
REMARK    1  A    between atoms: C_1  and  C_2
REMARK    2  A    between atoms: C_1  and  C_4
REMARK    3  A    between atoms: C_2  and  C_3
REMARK                            x       y       z     vdW  Elec       q    Type
REMARK                         _______ _______ _______ _____ _____    ______ ____
ROOT
ATOM      1  C   LIG A   1      -8.886   5.997 132.672  0.00  0.00    +0.042 A 
ATOM      2  N   LIG A   1     -10.235   6.106 132.605  0.00  0.00    -0.252 NA
ATOM      3  C   LIG A   1     -10.786   6.662 131.511  0.00  0.00    +0.071 A 
ATOM      4  C   LIG A   1     -10.009   7.130 130.430  0.00  0.00    +0.000 A 
ATOM      5  C   LIG A   1      -8.618   7.007 130.522  0.00  0.00    +0.012 A 
ATOM      6  C   LIG A   1      -8.048   6.432 131.652  0.00  0.00    +0.024 A 
ATOM      7  C   LIG A   1     -10.631   7.697 129.303  0.00  0.00    +0.010 A 
ATOM      8  C   LIG A   1     -12.018   7.804 129.242  0.00  0.00    +0.001 A 
ATOM      9  C   LIG A   1     -12.788   7.347 130.306  0.00  0.00    +0.002 A 
ATOM     10  C   LIG A   1     -12.167   6.784 131.424  0.00  0.00    +0.028 A 
ENDROOT
BRANCH   1  11
ATOM     11  C   LIG A   1      -8.314   5.331 133.898  0.00  0.00    +0.055 C 
BRANCH  11  12
ATOM     12  C   LIG A   1      -8.865   3.915 134.069  0.00  0.00    +0.003 C 
ATOM     13  C   LIG A   1      -7.874   2.866 133.592  0.00  0.00    +0.004 C 
ENDBRANCH  11  12
ENDBRANCH   1  11
TORSDOF 2
ENDMDL
MODEL 6
REMARK VINA RESULT:      -6.1     11.125     11.359
REMARK  Name = NuBBE_1596
REMARK  3 active torsions:
REMARK  status: ('A' for Active; 'I' for Inactive)
REMARK    1  A    between atoms: C_1  and  C_2
REMARK    2  A    between atoms: C_1  and  C_4
REMARK    3  A    between atoms: C_2  and  C_3
REMARK                            x       y       z     vdW  Elec       q    Type
REMARK                         _______ _______ _______ _____ _____    ______ ____
ROOT
ATOM      1  C   LIG A   1      -6.763  -2.264 124.024  0.00  0.00    +0.042 A 
ATOM      2  N   LIG A   1      -6.730  -0.911 123.954  0.00  0.00    -0.252 NA
ATOM      3  C   LIG A   1      -7.814  -0.260 123.496  0.00  0.00    +0.071 A 
ATOM      4  C   LIG A   1      -8.984  -0.936 123.090  0.00  0.00    +0.000 A 
ATOM      5  C   LIG A   1      -8.995  -2.333 123.171  0.00  0.00    +0.012 A 
ATOM      6  C   LIG A   1      -7.875  -3.006 123.646  0.00  0.00    +0.024 A 
ATOM      7  C   LIG A   1     -10.097  -0.212 122.625  0.00  0.00    +0.010 A 
ATOM      8  C   LIG A   1     -10.055   1.178 122.558  0.00  0.00    +0.001 A 
ATOM      9  C   LIG A   1      -8.903   1.850 122.953  0.00  0.00    +0.002 A 
ATOM     10  C   LIG A   1      -7.800   1.126 123.415  0.00  0.00    +0.028 A 
ENDROOT
BRANCH   1  11
ATOM     11  C   LIG A   1      -5.541  -2.950 124.582  0.00  0.00    +0.055 C 
BRANCH  11  12
ATOM     12  C   LIG A   1      -4.583  -3.370 123.467  0.00  0.00    +0.003 C 
ATOM     13  C   LIG A   1      -4.310  -4.865 123.495  0.00  0.00    +0.004 C 
ENDBRANCH  11  12
ENDBRANCH   1  11
TORSDOF 2
ENDMDL
MODEL 7
REMARK VINA RESULT:      -5.7      9.353     10.508
REMARK  Name = NuBBE_1596
REMARK  3 active torsions:
REMARK  status: ('A' for Active; 'I' for Inactive)
REMARK    1  A    between atoms: C_1  and  C_2
REMARK    2  A    between atoms: C_1  and  C_4
REMARK    3  A    between atoms: C_2  and  C_3
REMARK                            x       y       z     vdW  Elec       q    Type
REMARK                         _______ _______ _______ _____ _____    ______ ____
ROOT
ATOM      1  C   LIG A   1      -6.756   3.364 123.048  0.00  0.00    +0.042 A 
ATOM      2  N   LIG A   1      -7.480   3.368 121.902  0.00  0.00    -0.252 NA
ATOM      3  C   LIG A   1      -6.987   4.011 120.828  0.00  0.00    +0.071 A 
ATOM      4  C   LIG A   1      -5.743   4.676 120.852  0.00  0.00    +0.000 A 
ATOM      5  C   LIG A   1      -5.014   4.658 122.046  0.00  0.00    +0.012 A 
ATOM      6  C   LIG A   1      -5.523   3.993 123.156  0.00  0.00    +0.024 A 
ATOM      7  C   LIG A   1      -5.264   5.328 119.701  0.00  0.00    +0.010 A 
ATOM      8  C   LIG A   1      -6.013   5.326 118.527  0.00  0.00    +0.001 A 
ATOM      9  C   LIG A   1      -7.242   4.676 118.499  0.00  0.00    +0.002 A 
ATOM     10  C   LIG A   1      -7.714   4.028 119.644  0.00  0.00    +0.028 A 
ENDROOT
BRANCH   1  11
ATOM     11  C   LIG A   1      -7.328   2.597 124.214  0.00  0.00    +0.055 C 
BRANCH  11  12
ATOM     12  C   LIG A   1      -8.845   2.448 124.089  0.00  0.00    +0.003 C 
ATOM     13  C   LIG A   1      -9.366   1.294 124.931  0.00  0.00    +0.004 C 
ENDBRANCH  11  12
ENDBRANCH   1  11
TORSDOF 2
ENDMDL
MODEL 8
REMARK VINA RESULT:      -5.7     10.914     11.271
REMARK  Name = NuBBE_1596
REMARK  3 active torsions:
REMARK  status: ('A' for Active; 'I' for Inactive)
REMARK    1  A    between atoms: C_1  and  C_2
REMARK    2  A    between atoms: C_1  and  C_4
REMARK    3  A    between atoms: C_2  and  C_3
REMARK                            x       y       z     vdW  Elec       q    Type
REMARK                         _______ _______ _______ _____ _____    ______ ____
ROOT
ATOM      1  C   LIG A   1      -7.248  -2.754 127.930  0.00  0.00    +0.042 A 
ATOM      2  N   LIG A   1      -6.681  -2.318 126.779  0.00  0.00    -0.252 NA
ATOM      3  C   LIG A   1      -7.355  -2.477 125.626  0.00  0.00    +0.071 A 
ATOM      4  C   LIG A   1      -8.630  -3.077 125.573  0.00  0.00    +0.000 A 
ATOM      5  C   LIG A   1      -9.195  -3.520 126.775  0.00  0.00    +0.012 A 
ATOM      6  C   LIG A   1      -8.499  -3.355 127.967  0.00  0.00    +0.024 A 
ATOM      7  C   LIG A   1      -9.301  -3.215 124.344  0.00  0.00    +0.010 A 
ATOM      8  C   LIG A   1      -8.712  -2.763 123.166  0.00  0.00    +0.001 A 
ATOM      9  C   LIG A   1      -7.453  -2.173 123.211  0.00  0.00    +0.002 A 
ATOM     10  C   LIG A   1      -6.791  -2.037 124.434  0.00  0.00    +0.028 A 
ENDROOT
BRANCH   1  11
ATOM     11  C   LIG A   1      -6.475  -2.518 129.204  0.00  0.00    +0.055 C 
BRANCH  11  12
ATOM     12  C   LIG A   1      -6.860  -3.531 130.282  0.00  0.00    +0.003 C 
ATOM     13  C   LIG A   1      -5.773  -4.574 130.487  0.00  0.00    +0.004 C 
ENDBRANCH  11  12
ENDBRANCH   1  11
TORSDOF 2
ENDMDL
MODEL 9
REMARK VINA RESULT:      -5.5     10.652     10.992
REMARK  Name = NuBBE_1596
REMARK  3 active torsions:
REMARK  status: ('A' for Active; 'I' for Inactive)
REMARK    1  A    between atoms: C_1  and  C_2
REMARK    2  A    between atoms: C_1  and  C_4
REMARK    3  A    between atoms: C_2  and  C_3
REMARK                            x       y       z     vdW  Elec       q    Type
REMARK                         _______ _______ _______ _____ _____    ______ ____
ROOT
ATOM      1  C   LIG A   1      -6.345  -1.769 124.514  0.00  0.00    +0.042 A 
ATOM      2  N   LIG A   1      -7.471  -1.857 123.764  0.00  0.00    -0.252 NA
ATOM      3  C   LIG A   1      -8.189  -0.742 123.544  0.00  0.00    +0.071 A 
ATOM      4  C   LIG A   1      -7.810   0.515 124.061  0.00  0.00    +0.000 A 
ATOM      5  C   LIG A   1      -6.644   0.580 124.832  0.00  0.00    +0.012 A 
ATOM      6  C   LIG A   1      -5.900  -0.572 125.059  0.00  0.00    +0.024 A 
ATOM      7  C   LIG A   1      -8.589   1.656 123.797  0.00  0.00    +0.010 A 
ATOM      8  C   LIG A   1      -9.743   1.558 123.024  0.00  0.00    +0.001 A 
ATOM      9  C   LIG A   1     -10.124   0.321 122.515  0.00  0.00    +0.002 A 
ATOM     10  C   LIG A   1      -9.347  -0.810 122.779  0.00  0.00    +0.028 A 
ENDROOT
BRANCH   1  11
ATOM     11  C   LIG A   1      -5.549  -3.037 124.701  0.00  0.00    +0.055 C 
BRANCH  11  12
ATOM     12  C   LIG A   1      -4.689  -3.339 123.474  0.00  0.00    +0.003 C 
ATOM     13  C   LIG A   1      -4.200  -4.778 123.471  0.00  0.00    +0.004 C 
ENDBRANCH  11  12
ENDBRANCH   1  11
TORSDOF 2
ENDMDL
