MODEL 1
REMARK VINA RESULT:      -8.0      0.000      0.000
REMARK  Name = NuBBE_78
REMARK  13 active torsions:
REMARK  status: ('A' for Active; 'I' for Inactive)
REMARK    1  A    between atoms: C_1  and  C_2
REMARK    2  A    between atoms: C_11  and  C_12
REMARK    3  A    between atoms: C_17  and  O_21
REMARK    4  A    between atoms: C_24  and  C_26
REMARK    5  A    between atoms: C_26  and  C_28
REMARK    6  A    between atoms: C_26  and  C_37
REMARK    7  A    between atoms: C_28  and  C_29
REMARK    8  A    between atoms: C_29  and  C_30
REMARK    9  A    between atoms: C_30  and  C_32
REMARK   10  A    between atoms: C_30  and  C_35
REMARK   11  A    between atoms: C_32  and  C_33
REMARK   12  A    between atoms: C_32  and  C_34
REMARK   13  A    between atoms: C_35  and  C_36
REMARK                            x       y       z     vdW  Elec       q    Type
REMARK                         _______ _______ _______ _____ _____    ______ ____
ROOT
ATOM      1  C   LIG A   1      -8.088   0.718 128.545  0.00  0.00    +0.012 C 
ATOM      2  C   LIG A   1      -7.386   0.380 127.191  0.00  0.00    -0.026 C 
ATOM      3  C   LIG A   1      -7.858  -0.964 126.608  0.00  0.00    -0.001 C 
ATOM      4  C   LIG A   1      -7.365  -2.250 127.292  0.00  0.00    +0.000 C 
ATOM      5  C   LIG A   1      -5.857  -2.180 127.688  0.00  0.00    +0.003 C 
ATOM      6  C   LIG A   1      -5.165  -0.914 127.131  0.00  0.00    +0.005 C 
ATOM      7  C   LIG A   1      -5.876   0.387 127.478  0.00  0.00    +0.007 C 
ATOM      8  C   LIG A   1      -5.437  -2.587 129.157  0.00  0.00    -0.008 C 
ATOM      9  C   LIG A   1      -4.052  -3.292 129.019  0.00  0.00    +0.016 C 
ATOM     10  C   LIG A   1      -6.450  -3.525 129.806  0.00  0.00    -0.065 C 
ATOM     11  C   LIG A   1      -7.705  -3.684 129.373  0.00  0.00    -0.027 C 
ATOM     12  C   LIG A   1      -8.332  -2.906 128.268  0.00  0.00    +0.031 C 
ATOM     13  C   LIG A   1      -6.067  -4.067 131.165  0.00  0.00    +0.062 C 
ATOM     14  C   LIG A   1      -5.913  -2.883 132.129  0.00  0.00    +0.119 C 
ATOM     15  C   LIG A   1      -4.954  -1.817 131.591  0.00  0.00    +0.032 C 
ATOM     16  C   LIG A   1      -5.274  -1.401 130.146  0.00  0.00    +0.013 C 
ATOM     17  C   LIG A   1      -9.335  -0.730 126.297  0.00  0.00    +0.004 C 
ATOM     18  C   LIG A   1      -9.396   0.756 125.871  0.00  0.00    +0.004 C 
ATOM     19  C   LIG A   1      -7.966   1.356 126.103  0.00  0.00    -0.002 C 
ENDROOT
BRANCH  14  20
ATOM     20  O   LIG A   1      -5.456  -3.337 133.400  0.00  0.00    -0.392 OA
ATOM     21  H   LIG A   1      -5.299  -2.556 133.957  0.00  0.00    +0.210 HD
ENDBRANCH  14  20
BRANCH  19  22
ATOM     22  C   LIG A   1      -7.257   1.605 124.720  0.00  0.00    -0.010 C 
ATOM     23  C   LIG A   1      -8.119   2.172 123.576  0.00  0.00    +0.008 C 
BRANCH  22  24
ATOM     24  C   LIG A   1      -6.418   0.448 124.133  0.00  0.00    +0.004 C 
BRANCH  24  25
ATOM     25  C   LIG A   1      -6.961  -0.160 122.831  0.00  0.00    +0.004 C 
BRANCH  25  26
ATOM     26  C   LIG A   1      -6.867  -1.711 122.770  0.00  0.00    -0.009 C 
BRANCH  26  27
ATOM     27  C   LIG A   1      -8.287  -2.365 122.733  0.00  0.00    -0.014 C 
ATOM     28  C   LIG A   1      -8.527  -3.329 123.906  0.00  0.00    +0.007 C 
ATOM     29  C   LIG A   1      -9.409  -1.318 122.743  0.00  0.00    +0.007 C 
ENDBRANCH  26  27
BRANCH  26  30
ATOM     30  C   LIG A   1      -5.966  -2.289 123.889  0.00  0.00    +0.000 C 
ATOM     31  C   LIG A   1      -4.849  -3.205 123.405  0.00  0.00    +0.004 C 
ENDBRANCH  26  30
ENDBRANCH  25  26
ENDBRANCH  24  25
ENDBRANCH  22  24
ENDBRANCH  19  22
TORSDOF 7
ENDMDL
MODEL 2
REMARK VINA RESULT:      -7.5      2.928      7.459
REMARK  Name = NuBBE_78
REMARK  13 active torsions:
REMARK  status: ('A' for Active; 'I' for Inactive)
REMARK    1  A    between atoms: C_1  and  C_2
REMARK    2  A    between atoms: C_11  and  C_12
REMARK    3  A    between atoms: C_17  and  O_21
REMARK    4  A    between atoms: C_24  and  C_26
REMARK    5  A    between atoms: C_26  and  C_28
REMARK    6  A    between atoms: C_26  and  C_37
REMARK    7  A    between atoms: C_28  and  C_29
REMARK    8  A    between atoms: C_29  and  C_30
REMARK    9  A    between atoms: C_30  and  C_32
REMARK   10  A    between atoms: C_30  and  C_35
REMARK   11  A    between atoms: C_32  and  C_33
REMARK   12  A    between atoms: C_32  and  C_34
REMARK   13  A    between atoms: C_35  and  C_36
REMARK                            x       y       z     vdW  Elec       q    Type
REMARK                         _______ _______ _______ _____ _____    ______ ____
ROOT
ATOM      1  C   LIG A   1      -4.686  -3.058 128.421  0.00  0.00    +0.012 C 
ATOM      2  C   LIG A   1      -5.337  -2.111 129.479  0.00  0.00    -0.026 C 
ATOM      3  C   LIG A   1      -6.741  -2.581 129.898  0.00  0.00    -0.001 C 
ATOM      4  C   LIG A   1      -7.887  -2.397 128.890  0.00  0.00    +0.000 C 
ATOM      5  C   LIG A   1      -7.829  -1.017 128.162  0.00  0.00    +0.003 C 
ATOM      6  C   LIG A   1      -6.749  -0.086 128.760  0.00  0.00    +0.005 C 
ATOM      7  C   LIG A   1      -5.363  -0.712 128.842  0.00  0.00    +0.007 C 
ATOM      8  C   LIG A   1      -7.950  -0.985 126.586  0.00  0.00    -0.008 C 
ATOM      9  C   LIG A   1      -8.752   0.312 126.252  0.00  0.00    +0.016 C 
ATOM     10  C   LIG A   1      -8.672  -2.212 126.039  0.00  0.00    -0.065 C 
ATOM     11  C   LIG A   1      -8.839  -3.348 126.724  0.00  0.00    -0.027 C 
ATOM     12  C   LIG A   1      -8.268  -3.623 128.073  0.00  0.00    +0.031 C 
ATOM     13  C   LIG A   1      -8.946  -2.205 124.551  0.00  0.00    +0.062 C 
ATOM     14  C   LIG A   1      -7.600  -2.145 123.815  0.00  0.00    +0.119 C 
ATOM     15  C   LIG A   1      -6.729  -0.980 124.293  0.00  0.00    +0.032 C 
ATOM     16  C   LIG A   1      -6.599  -0.921 125.824  0.00  0.00    +0.013 C 
ATOM     17  C   LIG A   1      -6.486  -3.917 130.595  0.00  0.00    +0.004 C 
ATOM     18  C   LIG A   1      -5.118  -3.720 131.291  0.00  0.00    +0.004 C 
ATOM     19  C   LIG A   1      -4.572  -2.323 130.836  0.00  0.00    -0.002 C 
ENDROOT
BRANCH  14  20
ATOM     20  O   LIG A   1      -7.811  -2.036 122.410  0.00  0.00    -0.392 OA
ATOM     21  H   LIG A   1      -7.235  -2.686 121.971  0.00  0.00    +0.210 HD
ENDBRANCH  14  20
BRANCH  19  22
ATOM     22  C   LIG A   1      -4.656  -1.299 132.028  0.00  0.00    -0.010 C 
ATOM     23  C   LIG A   1      -3.332  -0.692 132.533  0.00  0.00    +0.008 C 
BRANCH  22  24
ATOM     24  C   LIG A   1      -5.471  -1.719 133.270  0.00  0.00    +0.004 C 
BRANCH  24  25
ATOM     25  C   LIG A   1      -6.725  -0.878 133.547  0.00  0.00    +0.004 C 
BRANCH  25  26
ATOM     26  C   LIG A   1      -7.151   0.033 132.361  0.00  0.00    -0.009 C 
BRANCH  26  27
ATOM     27  C   LIG A   1      -6.870   1.540 132.673  0.00  0.00    -0.014 C 
ATOM     28  C   LIG A   1      -6.331   1.761 134.094  0.00  0.00    +0.007 C 
ATOM     29  C   LIG A   1      -5.872   2.160 131.686  0.00  0.00    +0.007 C 
ENDBRANCH  26  27
BRANCH  26  30
ATOM     30  C   LIG A   1      -8.612  -0.228 131.916  0.00  0.00    +0.000 C 
ATOM     31  C   LIG A   1      -9.505   1.006 131.888  0.00  0.00    +0.004 C 
ENDBRANCH  26  30
ENDBRANCH  25  26
ENDBRANCH  24  25
ENDBRANCH  22  24
ENDBRANCH  19  22
TORSDOF 7
ENDMDL
MODEL 3
REMARK VINA RESULT:      -7.5      3.868      6.942
REMARK  Name = NuBBE_78
REMARK  13 active torsions:
REMARK  status: ('A' for Active; 'I' for Inactive)
REMARK    1  A    between atoms: C_1  and  C_2
REMARK    2  A    between atoms: C_11  and  C_12
REMARK    3  A    between atoms: C_17  and  O_21
REMARK    4  A    between atoms: C_24  and  C_26
REMARK    5  A    between atoms: C_26  and  C_28
REMARK    6  A    between atoms: C_26  and  C_37
REMARK    7  A    between atoms: C_28  and  C_29
REMARK    8  A    between atoms: C_29  and  C_30
REMARK    9  A    between atoms: C_30  and  C_32
REMARK   10  A    between atoms: C_30  and  C_35
REMARK   11  A    between atoms: C_32  and  C_33
REMARK   12  A    between atoms: C_32  and  C_34
REMARK   13  A    between atoms: C_35  and  C_36
REMARK                            x       y       z     vdW  Elec       q    Type
REMARK                         _______ _______ _______ _____ _____    ______ ____
ROOT
ATOM      1  C   LIG A   1      -8.543   1.373 127.748  0.00  0.00    +0.012 C 
ATOM      2  C   LIG A   1      -7.015   1.274 128.060  0.00  0.00    -0.026 C 
ATOM      3  C   LIG A   1      -6.148   1.808 126.906  0.00  0.00    -0.001 C 
ATOM      4  C   LIG A   1      -6.040   0.947 125.637  0.00  0.00    +0.000 C 
ATOM      5  C   LIG A   1      -5.876  -0.573 125.955  0.00  0.00    +0.003 C 
ATOM      6  C   LIG A   1      -5.671  -0.835 127.465  0.00  0.00    +0.005 C 
ATOM      7  C   LIG A   1      -6.734  -0.208 128.357  0.00  0.00    +0.007 C 
ATOM      8  C   LIG A   1      -6.812  -1.609 125.212  0.00  0.00    -0.008 C 
ATOM      9  C   LIG A   1      -5.929  -2.872 124.967  0.00  0.00    +0.016 C 
ATOM     10  C   LIG A   1      -7.339  -1.063 123.889  0.00  0.00    -0.065 C 
ATOM     11  C   LIG A   1      -7.347   0.235 123.567  0.00  0.00    -0.027 C 
ATOM     12  C   LIG A   1      -6.941   1.343 124.477  0.00  0.00    +0.031 C 
ATOM     13  C   LIG A   1      -8.139  -2.034 123.050  0.00  0.00    +0.062 C 
ATOM     14  C   LIG A   1      -9.377  -2.457 123.853  0.00  0.00    +0.119 C 
ATOM     15  C   LIG A   1      -9.013  -2.988 125.242  0.00  0.00    +0.032 C 
ATOM     16  C   LIG A   1      -8.068  -2.051 126.011  0.00  0.00    +0.013 C 
ATOM     17  C   LIG A   1      -6.493   3.295 126.846  0.00  0.00    +0.004 C 
ATOM     18  C   LIG A   1      -6.749   3.679 128.323  0.00  0.00    +0.004 C 
ATOM     19  C   LIG A   1      -6.687   2.352 129.156  0.00  0.00    -0.002 C 
ENDROOT
BRANCH  14  20
ATOM     20  O   LIG A   1     -10.112  -3.449 123.141  0.00  0.00    -0.392 OA
ATOM     21  H   LIG A   1      -9.668  -4.303 123.275  0.00  0.00    +0.210 HD
ENDBRANCH  14  20
BRANCH  19  22
ATOM     22  C   LIG A   1      -5.367   2.318 130.014  0.00  0.00    -0.010 C 
ATOM     23  C   LIG A   1      -5.302   3.241 131.246  0.00  0.00    +0.008 C 
BRANCH  22  24
ATOM     24  C   LIG A   1      -4.026   2.462 129.261  0.00  0.00    +0.004 C 
BRANCH  24  25
ATOM     25  C   LIG A   1      -3.237   3.743 129.566  0.00  0.00    +0.004 C 
BRANCH  25  26
ATOM     26  C   LIG A   1      -2.697   4.470 128.302  0.00  0.00    -0.009 C 
BRANCH  26  27
ATOM     27  C   LIG A   1      -3.298   5.908 128.173  0.00  0.00    -0.014 C 
ATOM     28  C   LIG A   1      -4.211   6.277 129.352  0.00  0.00    +0.007 C 
ATOM     29  C   LIG A   1      -2.210   6.984 128.062  0.00  0.00    +0.007 C 
ENDBRANCH  26  27
BRANCH  26  30
ATOM     30  C   LIG A   1      -2.877   3.624 127.017  0.00  0.00    +0.000 C 
ATOM     31  C   LIG A   1      -1.595   3.010 126.468  0.00  0.00    +0.004 C 
ENDBRANCH  26  30
ENDBRANCH  25  26
ENDBRANCH  24  25
ENDBRANCH  22  24
ENDBRANCH  19  22
TORSDOF 7
ENDMDL
MODEL 4
REMARK VINA RESULT:      -7.4      3.575      6.581
REMARK  Name = NuBBE_78
REMARK  13 active torsions:
REMARK  status: ('A' for Active; 'I' for Inactive)
REMARK    1  A    between atoms: C_1  and  C_2
REMARK    2  A    between atoms: C_11  and  C_12
REMARK    3  A    between atoms: C_17  and  O_21
REMARK    4  A    between atoms: C_24  and  C_26
REMARK    5  A    between atoms: C_26  and  C_28
REMARK    6  A    between atoms: C_26  and  C_37
REMARK    7  A    between atoms: C_28  and  C_29
REMARK    8  A    between atoms: C_29  and  C_30
REMARK    9  A    between atoms: C_30  and  C_32
REMARK   10  A    between atoms: C_30  and  C_35
REMARK   11  A    between atoms: C_32  and  C_33
REMARK   12  A    between atoms: C_32  and  C_34
REMARK   13  A    between atoms: C_35  and  C_36
REMARK                            x       y       z     vdW  Elec       q    Type
REMARK                         _______ _______ _______ _____ _____    ______ ____
ROOT
ATOM      1  C   LIG A   1      -5.438   0.511 132.672  0.00  0.00    +0.012 C 
ATOM      2  C   LIG A   1      -6.101  -0.151 131.423  0.00  0.00    -0.026 C 
ATOM      3  C   LIG A   1      -5.821   0.634 130.129  0.00  0.00    -0.001 C 
ATOM      4  C   LIG A   1      -6.556   1.970 129.930  0.00  0.00    +0.000 C 
ATOM      5  C   LIG A   1      -8.054   1.900 130.363  0.00  0.00    +0.003 C 
ATOM      6  C   LIG A   1      -8.496   0.459 130.710  0.00  0.00    +0.005 C 
ATOM      7  C   LIG A   1      -7.605  -0.236 131.731  0.00  0.00    +0.007 C 
ATOM      8  C   LIG A   1      -8.623   3.027 131.315  0.00  0.00    -0.008 C 
ATOM      9  C   LIG A   1     -10.093   3.268 130.851  0.00  0.00    +0.016 C 
ATOM     10  C   LIG A   1      -7.818   4.319 131.222  0.00  0.00    -0.065 C 
ATOM     11  C   LIG A   1      -6.581   4.394 130.719  0.00  0.00    -0.027 C 
ATOM     12  C   LIG A   1      -5.770   3.228 130.270  0.00  0.00    +0.031 C 
ATOM     13  C   LIG A   1      -8.366   5.493 132.003  0.00  0.00    +0.062 C 
ATOM     14  C   LIG A   1      -8.383   5.115 133.491  0.00  0.00    +0.119 C 
ATOM     15  C   LIG A   1      -9.121   3.797 133.746  0.00  0.00    +0.032 C 
ATOM     16  C   LIG A   1      -8.651   2.661 132.824  0.00  0.00    +0.013 C 
ATOM     17  C   LIG A   1      -4.308   0.510 129.947  0.00  0.00    +0.004 C 
ATOM     18  C   LIG A   1      -3.981  -0.900 130.492  0.00  0.00    +0.004 C 
ATOM     19  C   LIG A   1      -5.306  -1.470 131.108  0.00  0.00    -0.002 C 
ENDROOT
BRANCH  14  20
ATOM     20  O   LIG A   1      -8.984   6.154 134.258  0.00  0.00    -0.392 OA
ATOM     21  H   LIG A   1      -9.564   5.740 134.919  0.00  0.00    +0.210 HD
ENDBRANCH  14  20
BRANCH  19  22
ATOM     22  C   LIG A   1      -5.880  -2.609 130.186  0.00  0.00    -0.010 C 
ATOM     23  C   LIG A   1      -6.081  -3.998 130.823  0.00  0.00    +0.008 C 
BRANCH  22  24
ATOM     24  C   LIG A   1      -5.199  -2.826 128.817  0.00  0.00    +0.004 C 
BRANCH  24  25
ATOM     25  C   LIG A   1      -5.868  -2.115 127.632  0.00  0.00    +0.004 C 
BRANCH  25  26
ATOM     26  C   LIG A   1      -7.403  -1.919 127.795  0.00  0.00    -0.009 C 
BRANCH  26  27
ATOM     27  C   LIG A   1      -8.196  -3.125 127.193  0.00  0.00    -0.014 C 
ATOM     28  C   LIG A   1      -9.000  -3.894 128.252  0.00  0.00    +0.007 C 
ATOM     29  C   LIG A   1      -9.166  -2.688 126.087  0.00  0.00    +0.007 C 
ENDBRANCH  26  27
BRANCH  26  30
ATOM     30  C   LIG A   1      -7.880  -0.550 127.250  0.00  0.00    +0.000 C 
ATOM     31  C   LIG A   1      -6.807   0.268 126.541  0.00  0.00    +0.004 C 
ENDBRANCH  26  30
ENDBRANCH  25  26
ENDBRANCH  24  25
ENDBRANCH  22  24
ENDBRANCH  19  22
TORSDOF 7
ENDMDL
MODEL 5
REMARK VINA RESULT:      -7.3      1.640      3.282
REMARK  Name = NuBBE_78
REMARK  13 active torsions:
REMARK  status: ('A' for Active; 'I' for Inactive)
REMARK    1  A    between atoms: C_1  and  C_2
REMARK    2  A    between atoms: C_11  and  C_12
REMARK    3  A    between atoms: C_17  and  O_21
REMARK    4  A    between atoms: C_24  and  C_26
REMARK    5  A    between atoms: C_26  and  C_28
REMARK    6  A    between atoms: C_26  and  C_37
REMARK    7  A    between atoms: C_28  and  C_29
REMARK    8  A    between atoms: C_29  and  C_30
REMARK    9  A    between atoms: C_30  and  C_32
REMARK   10  A    between atoms: C_30  and  C_35
REMARK   11  A    between atoms: C_32  and  C_33
REMARK   12  A    between atoms: C_32  and  C_34
REMARK   13  A    between atoms: C_35  and  C_36
REMARK                            x       y       z     vdW  Elec       q    Type
REMARK                         _______ _______ _______ _____ _____    ______ ____
ROOT
ATOM      1  C   LIG A   1      -5.238   0.084 130.496  0.00  0.00    +0.012 C 
ATOM      2  C   LIG A   1      -5.927  -0.680 129.321  0.00  0.00    -0.026 C 
ATOM      3  C   LIG A   1      -7.352  -1.140 129.679  0.00  0.00    -0.001 C 
ATOM      4  C   LIG A   1      -7.496  -2.319 130.655  0.00  0.00    +0.000 C 
ATOM      5  C   LIG A   1      -6.471  -3.462 130.373  0.00  0.00    +0.003 C 
ATOM      6  C   LIG A   1      -5.680  -3.227 129.065  0.00  0.00    +0.005 C 
ATOM      7  C   LIG A   1      -5.007  -1.863 128.981  0.00  0.00    +0.007 C 
ATOM      8  C   LIG A   1      -5.625  -4.039 131.578  0.00  0.00    -0.008 C 
ATOM      9  C   LIG A   1      -5.469  -5.564 131.290  0.00  0.00    +0.016 C 
ATOM     10  C   LIG A   1      -6.314  -3.819 132.921  0.00  0.00    -0.065 C 
ATOM     11  C   LIG A   1      -7.293  -2.930 133.123  0.00  0.00    -0.027 C 
ATOM     12  C   LIG A   1      -7.787  -1.960 132.105  0.00  0.00    +0.031 C 
ATOM     13  C   LIG A   1      -5.638  -4.451 134.117  0.00  0.00    +0.062 C 
ATOM     14  C   LIG A   1      -4.237  -3.838 134.258  0.00  0.00    +0.119 C 
ATOM     15  C   LIG A   1      -3.428  -3.937 132.961  0.00  0.00    +0.032 C 
ATOM     16  C   LIG A   1      -4.204  -3.433 131.733  0.00  0.00    +0.013 C 
ATOM     17  C   LIG A   1      -8.121   0.166 129.871  0.00  0.00    +0.004 C 
ATOM     18  C   LIG A   1      -7.483   1.129 128.842  0.00  0.00    +0.004 C 
ATOM     19  C   LIG A   1      -6.265   0.375 128.205  0.00  0.00    -0.002 C 
ENDROOT
BRANCH  14  20
ATOM     20  O   LIG A   1      -3.523  -4.474 135.314  0.00  0.00    -0.392 OA
ATOM     21  H   LIG A   1      -3.389  -3.820 136.020  0.00  0.00    +0.210 HD
ENDBRANCH  14  20
BRANCH  19  22
ATOM     22  C   LIG A   1      -6.602  -0.034 126.723  0.00  0.00    -0.010 C 
ATOM     23  C   LIG A   1      -5.553   0.297 125.643  0.00  0.00    +0.008 C 
BRANCH  22  24
ATOM     24  C   LIG A   1      -7.981   0.384 126.166  0.00  0.00    +0.004 C 
BRANCH  24  25
ATOM     25  C   LIG A   1      -9.005  -0.751 126.032  0.00  0.00    +0.004 C 
BRANCH  25  26
ATOM     26  C   LIG A   1      -8.375  -2.140 125.728  0.00  0.00    -0.009 C 
BRANCH  26  27
ATOM     27  C   LIG A   1      -7.987  -2.270 124.219  0.00  0.00    -0.014 C 
ATOM     28  C   LIG A   1      -6.644  -2.987 124.011  0.00  0.00    +0.007 C 
ATOM     29  C   LIG A   1      -9.053  -3.018 123.407  0.00  0.00    +0.007 C 
ENDBRANCH  26  27
BRANCH  26  30
ATOM     30  C   LIG A   1      -9.263  -3.308 126.225  0.00  0.00    +0.000 C 
ATOM     31  C   LIG A   1      -8.964  -3.784 127.642  0.00  0.00    +0.004 C 
ENDBRANCH  26  30
ENDBRANCH  25  26
ENDBRANCH  24  25
ENDBRANCH  22  24
ENDBRANCH  19  22
TORSDOF 7
ENDMDL
MODEL 6
REMARK VINA RESULT:      -7.3      7.790      9.793
REMARK  Name = NuBBE_78
REMARK  13 active torsions:
REMARK  status: ('A' for Active; 'I' for Inactive)
REMARK    1  A    between atoms: C_1  and  C_2
REMARK    2  A    between atoms: C_11  and  C_12
REMARK    3  A    between atoms: C_17  and  O_21
REMARK    4  A    between atoms: C_24  and  C_26
REMARK    5  A    between atoms: C_26  and  C_28
REMARK    6  A    between atoms: C_26  and  C_37
REMARK    7  A    between atoms: C_28  and  C_29
REMARK    8  A    between atoms: C_29  and  C_30
REMARK    9  A    between atoms: C_30  and  C_32
REMARK   10  A    between atoms: C_30  and  C_35
REMARK   11  A    between atoms: C_32  and  C_33
REMARK   12  A    between atoms: C_32  and  C_34
REMARK   13  A    between atoms: C_35  and  C_36
REMARK                            x       y       z     vdW  Elec       q    Type
REMARK                         _______ _______ _______ _____ _____    ______ ____
ROOT
ATOM      1  C   LIG A   1      -6.647   5.672 134.240  0.00  0.00    +0.012 C 
ATOM      2  C   LIG A   1      -7.233   5.335 132.832  0.00  0.00    -0.026 C 
ATOM      3  C   LIG A   1      -6.785   3.951 132.329  0.00  0.00    -0.001 C 
ATOM      4  C   LIG A   1      -5.328   3.798 131.863  0.00  0.00    +0.000 C 
ATOM      5  C   LIG A   1      -4.839   5.014 131.014  0.00  0.00    +0.003 C 
ATOM      6  C   LIG A   1      -5.988   5.994 130.681  0.00  0.00    +0.005 C 
ATOM      7  C   LIG A   1      -6.777   6.465 131.896  0.00  0.00    +0.007 C 
ATOM      8  C   LIG A   1      -3.460   5.693 131.383  0.00  0.00    -0.008 C 
ATOM      9  C   LIG A   1      -2.825   6.121 130.023  0.00  0.00    +0.016 C 
ATOM     10  C   LIG A   1      -2.531   4.740 132.128  0.00  0.00    -0.065 C 
ATOM     11  C   LIG A   1      -2.939   3.622 132.737  0.00  0.00    -0.027 C 
ATOM     12  C   LIG A   1      -4.360   3.192 132.868  0.00  0.00    +0.031 C 
ATOM     13  C   LIG A   1      -1.140   5.264 132.409  0.00  0.00    +0.062 C 
ATOM     14  C   LIG A   1      -1.266   6.509 133.299  0.00  0.00    +0.119 C 
ATOM     15  C   LIG A   1      -2.217   7.553 132.704  0.00  0.00    +0.032 C 
ATOM     16  C   LIG A   1      -3.569   6.956 132.280  0.00  0.00    +0.013 C 
ATOM     17  C   LIG A   1      -7.422   2.977 133.320  0.00  0.00    +0.004 C 
ATOM     18  C   LIG A   1      -8.764   3.650 133.694  0.00  0.00    +0.004 C 
ATOM     19  C   LIG A   1      -8.771   5.062 133.014  0.00  0.00    -0.002 C 
ENDROOT
BRANCH  14  20
ATOM     20  O   LIG A   1       0.014   7.097 133.510  0.00  0.00    -0.392 OA
ATOM     21  H   LIG A   1       0.651   6.638 132.936  0.00  0.00    +0.210 HD
ENDBRANCH  14  20
BRANCH  19  22
ATOM     22  C   LIG A   1      -9.785   5.073 131.809  0.00  0.00    -0.010 C 
ATOM     23  C   LIG A   1      -9.382   4.297 130.540  0.00  0.00    +0.008 C 
BRANCH  22  24
ATOM     24  C   LIG A   1     -10.334   6.443 131.355  0.00  0.00    +0.004 C 
BRANCH  24  25
ATOM     25  C   LIG A   1     -10.540   6.597 129.841  0.00  0.00    +0.004 C 
BRANCH  25  26
ATOM     26  C   LIG A   1     -11.018   8.012 129.408  0.00  0.00    -0.009 C 
BRANCH  26  27
ATOM     27  C   LIG A   1     -12.561   8.175 129.600  0.00  0.00    -0.014 C 
ATOM     28  C   LIG A   1     -13.119   9.422 128.898  0.00  0.00    +0.007 C 
ATOM     29  C   LIG A   1     -13.342   6.956 129.090  0.00  0.00    +0.007 C 
ENDBRANCH  26  27
BRANCH  26  30
ATOM     30  C   LIG A   1     -10.547   8.378 127.979  0.00  0.00    +0.000 C 
ATOM     31  C   LIG A   1     -10.577   7.228 126.979  0.00  0.00    +0.004 C 
ENDBRANCH  26  30
ENDBRANCH  25  26
ENDBRANCH  24  25
ENDBRANCH  22  24
ENDBRANCH  19  22
TORSDOF 7
ENDMDL
MODEL 7
REMARK VINA RESULT:      -7.2      3.019      7.447
REMARK  Name = NuBBE_78
REMARK  13 active torsions:
REMARK  status: ('A' for Active; 'I' for Inactive)
REMARK    1  A    between atoms: C_1  and  C_2
REMARK    2  A    between atoms: C_11  and  C_12
REMARK    3  A    between atoms: C_17  and  O_21
REMARK    4  A    between atoms: C_24  and  C_26
REMARK    5  A    between atoms: C_26  and  C_28
REMARK    6  A    between atoms: C_26  and  C_37
REMARK    7  A    between atoms: C_28  and  C_29
REMARK    8  A    between atoms: C_29  and  C_30
REMARK    9  A    between atoms: C_30  and  C_32
REMARK   10  A    between atoms: C_30  and  C_35
REMARK   11  A    between atoms: C_32  and  C_33
REMARK   12  A    between atoms: C_32  and  C_34
REMARK   13  A    between atoms: C_35  and  C_36
REMARK                            x       y       z     vdW  Elec       q    Type
REMARK                         _______ _______ _______ _____ _____    ______ ____
ROOT
ATOM      1  C   LIG A   1      -6.476  -1.592 124.245  0.00  0.00    +0.012 C 
ATOM      2  C   LIG A   1      -7.311  -1.456 125.558  0.00  0.00    -0.026 C 
ATOM      3  C   LIG A   1      -8.823  -1.370 125.283  0.00  0.00    -0.001 C 
ATOM      4  C   LIG A   1      -9.367  -0.059 124.691  0.00  0.00    +0.000 C 
ATOM      5  C   LIG A   1      -8.728   1.206 125.346  0.00  0.00    +0.003 C 
ATOM      6  C   LIG A   1      -7.843   0.850 126.564  0.00  0.00    +0.005 C 
ATOM      7  C   LIG A   1      -6.782  -0.204 126.275  0.00  0.00    +0.007 C 
ATOM      8  C   LIG A   1      -8.157   2.341 124.406  0.00  0.00    -0.008 C 
ATOM      9  C   LIG A   1      -8.462   3.686 125.138  0.00  0.00    +0.016 C 
ATOM     10  C   LIG A   1      -8.806   2.327 123.026  0.00  0.00    -0.065 C 
ATOM     11  C   LIG A   1      -9.474   1.283 122.525  0.00  0.00    -0.027 C 
ATOM     12  C   LIG A   1      -9.600  -0.046 123.187  0.00  0.00    +0.031 C 
ATOM     13  C   LIG A   1      -8.412   3.459 122.103  0.00  0.00    +0.062 C 
ATOM     14  C   LIG A   1      -6.899   3.373 121.857  0.00  0.00    +0.119 C 
ATOM     15  C   LIG A   1      -6.100   3.329 123.163  0.00  0.00    +0.032 C 
ATOM     16  C   LIG A   1      -6.627   2.273 124.148  0.00  0.00    +0.013 C 
ATOM     17  C   LIG A   1      -9.163  -2.732 124.678  0.00  0.00    +0.004 C 
ATOM     18  C   LIG A   1      -8.214  -3.711 125.408  0.00  0.00    +0.004 C 
ATOM     19  C   LIG A   1      -7.257  -2.843 126.297  0.00  0.00    -0.002 C 
ENDROOT
BRANCH  14  20
ATOM     20  O   LIG A   1      -6.464   4.479 121.070  0.00  0.00    -0.392 OA
ATOM     21  H   LIG A   1      -5.574   4.275 120.735  0.00  0.00    +0.210 HD
ENDBRANCH  14  20
BRANCH  19  22
ATOM     22  C   LIG A   1      -7.634  -3.013 127.816  0.00  0.00    -0.010 C 
ATOM     23  C   LIG A   1      -8.923  -3.794 128.140  0.00  0.00    +0.008 C 
BRANCH  22  24
ATOM     24  C   LIG A   1      -7.634  -1.743 128.694  0.00  0.00    +0.004 C 
BRANCH  24  25
ATOM     25  C   LIG A   1      -6.543  -1.693 129.773  0.00  0.00    +0.004 C 
BRANCH  25  26
ATOM     26  C   LIG A   1      -5.625  -2.949 129.805  0.00  0.00    -0.009 C 
BRANCH  26  27
ATOM     27  C   LIG A   1      -5.865  -3.797 131.096  0.00  0.00    -0.014 C 
ATOM     28  C   LIG A   1      -5.654  -5.301 130.866  0.00  0.00    +0.007 C 
ATOM     29  C   LIG A   1      -4.956  -3.363 132.254  0.00  0.00    +0.007 C 
ENDBRANCH  26  27
BRANCH  26  30
ATOM     30  C   LIG A   1      -4.133  -2.590 129.588  0.00  0.00    +0.000 C 
ATOM     31  C   LIG A   1      -3.301  -3.680 128.924  0.00  0.00    +0.004 C 
ENDBRANCH  26  30
ENDBRANCH  25  26
ENDBRANCH  24  25
ENDBRANCH  22  24
ENDBRANCH  19  22
TORSDOF 7
ENDMDL
MODEL 8
REMARK VINA RESULT:      -6.9      4.109      7.423
REMARK  Name = NuBBE_78
REMARK  13 active torsions:
REMARK  status: ('A' for Active; 'I' for Inactive)
REMARK    1  A    between atoms: C_1  and  C_2
REMARK    2  A    between atoms: C_11  and  C_12
REMARK    3  A    between atoms: C_17  and  O_21
REMARK    4  A    between atoms: C_24  and  C_26
REMARK    5  A    between atoms: C_26  and  C_28
REMARK    6  A    between atoms: C_26  and  C_37
REMARK    7  A    between atoms: C_28  and  C_29
REMARK    8  A    between atoms: C_29  and  C_30
REMARK    9  A    between atoms: C_30  and  C_32
REMARK   10  A    between atoms: C_30  and  C_35
REMARK   11  A    between atoms: C_32  and  C_33
REMARK   12  A    between atoms: C_32  and  C_34
REMARK   13  A    between atoms: C_35  and  C_36
REMARK                            x       y       z     vdW  Elec       q    Type
REMARK                         _______ _______ _______ _____ _____    ______ ____
ROOT
ATOM      1  C   LIG A   1      -8.179   1.088 127.844  0.00  0.00    +0.012 C 
ATOM      2  C   LIG A   1      -6.630   0.984 128.014  0.00  0.00    -0.026 C 
ATOM      3  C   LIG A   1      -5.870   1.557 126.805  0.00  0.00    -0.001 C 
ATOM      4  C   LIG A   1      -5.876   0.737 125.504  0.00  0.00    +0.000 C 
ATOM      5  C   LIG A   1      -5.684  -0.791 125.757  0.00  0.00    +0.003 C 
ATOM      6  C   LIG A   1      -5.343  -1.101 127.233  0.00  0.00    +0.005 C 
ATOM      7  C   LIG A   1      -6.322  -0.506 128.236  0.00  0.00    +0.007 C 
ATOM      8  C   LIG A   1      -6.682  -1.806 125.068  0.00  0.00    -0.008 C 
ATOM      9  C   LIG A   1      -5.824  -3.057 124.703  0.00  0.00    +0.016 C 
ATOM     10  C   LIG A   1      -7.326  -1.219 123.816  0.00  0.00    -0.065 C 
ATOM     11  C   LIG A   1      -7.364   0.088 123.537  0.00  0.00    -0.027 C 
ATOM     12  C   LIG A   1      -6.878   1.168 124.443  0.00  0.00    +0.031 C 
ATOM     13  C   LIG A   1      -8.198  -2.165 123.021  0.00  0.00    +0.062 C 
ATOM     14  C   LIG A   1      -9.359  -2.618 123.918  0.00  0.00    +0.119 C 
ATOM     15  C   LIG A   1      -8.871  -3.193 125.251  0.00  0.00    +0.032 C 
ATOM     16  C   LIG A   1      -7.861  -2.278 125.962  0.00  0.00    +0.013 C 
ATOM     17  C   LIG A   1      -6.220   3.044 126.824  0.00  0.00    +0.004 C 
ATOM     18  C   LIG A   1      -6.342   3.379 128.330  0.00  0.00    +0.004 C 
ATOM     19  C   LIG A   1      -6.204   2.027 129.111  0.00  0.00    -0.002 C 
ENDROOT
BRANCH  14  20
ATOM     20  O   LIG A   1     -10.154  -3.589 123.243  0.00  0.00    -0.392 OA
ATOM     21  H   LIG A   1      -9.690  -3.839 122.426  0.00  0.00    +0.210 HD
ENDBRANCH  14  20
BRANCH  19  22
ATOM     22  C   LIG A   1      -4.813   1.970 129.845  0.00  0.00    -0.010 C 
ATOM     23  C   LIG A   1      -4.447   0.656 130.563  0.00  0.00    +0.008 C 
BRANCH  22  24
ATOM     24  C   LIG A   1      -4.468   3.129 130.804  0.00  0.00    +0.004 C 
BRANCH  24  25
ATOM     25  C   LIG A   1      -3.198   3.917 130.451  0.00  0.00    +0.004 C 
BRANCH  25  26
ATOM     26  C   LIG A   1      -3.467   5.382 130.003  0.00  0.00    -0.009 C 
BRANCH  26  27
ATOM     27  C   LIG A   1      -3.236   5.558 128.466  0.00  0.00    -0.014 C 
ATOM     28  C   LIG A   1      -2.311   6.739 128.136  0.00  0.00    +0.007 C 
ATOM     29  C   LIG A   1      -2.645   4.298 127.820  0.00  0.00    +0.007 C 
ENDBRANCH  26  27
BRANCH  26  30
ATOM     30  C   LIG A   1      -2.677   6.409 130.852  0.00  0.00    +0.000 C 
ATOM     31  C   LIG A   1      -1.586   5.810 131.732  0.00  0.00    +0.004 C 
ENDBRANCH  26  30
ENDBRANCH  25  26
ENDBRANCH  24  25
ENDBRANCH  22  24
ENDBRANCH  19  22
TORSDOF 7
ENDMDL
MODEL 9
REMARK VINA RESULT:      -6.9      6.039      8.337
REMARK  Name = NuBBE_78
REMARK  13 active torsions:
REMARK  status: ('A' for Active; 'I' for Inactive)
REMARK    1  A    between atoms: C_1  and  C_2
REMARK    2  A    between atoms: C_11  and  C_12
REMARK    3  A    between atoms: C_17  and  O_21
REMARK    4  A    between atoms: C_24  and  C_26
REMARK    5  A    between atoms: C_26  and  C_28
REMARK    6  A    between atoms: C_26  and  C_37
REMARK    7  A    between atoms: C_28  and  C_29
REMARK    8  A    between atoms: C_29  and  C_30
REMARK    9  A    between atoms: C_30  and  C_32
REMARK   10  A    between atoms: C_30  and  C_35
REMARK   11  A    between atoms: C_32  and  C_33
REMARK   12  A    between atoms: C_32  and  C_34
REMARK   13  A    between atoms: C_35  and  C_36
REMARK                            x       y       z     vdW  Elec       q    Type
REMARK                         _______ _______ _______ _____ _____    ______ ____
ROOT
ATOM      1  C   LIG A   1      -6.143   4.795 133.588  0.00  0.00    +0.012 C 
ATOM      2  C   LIG A   1      -6.334   4.067 132.219  0.00  0.00    -0.026 C 
ATOM      3  C   LIG A   1      -5.289   2.959 131.997  0.00  0.00    -0.001 C 
ATOM      4  C   LIG A   1      -3.849   3.390 131.673  0.00  0.00    +0.000 C 
ATOM      5  C   LIG A   1      -3.791   4.581 130.667  0.00  0.00    +0.003 C 
ATOM      6  C   LIG A   1      -5.183   4.924 130.086  0.00  0.00    +0.005 C 
ATOM      7  C   LIG A   1      -6.257   5.158 131.139  0.00  0.00    +0.007 C 
ATOM      8  C   LIG A   1      -2.881   5.827 131.016  0.00  0.00    -0.008 C 
ATOM      9  C   LIG A   1      -2.295   6.314 129.655  0.00  0.00    +0.016 C 
ATOM     10  C   LIG A   1      -1.757   5.465 131.981  0.00  0.00    -0.065 C 
ATOM     11  C   LIG A   1      -1.749   4.365 132.742  0.00  0.00    -0.027 C 
ATOM     12  C   LIG A   1      -2.869   3.387 132.837  0.00  0.00    +0.031 C 
ATOM     13  C   LIG A   1      -0.761   6.566 132.271  0.00  0.00    +0.062 C 
ATOM     14  C   LIG A   1      -1.512   7.735 132.922  0.00  0.00    +0.119 C 
ATOM     15  C   LIG A   1      -2.714   8.188 132.087  0.00  0.00    +0.032 C 
ATOM     16  C   LIG A   1      -3.626   7.022 131.672  0.00  0.00    +0.013 C 
ATOM     17  C   LIG A   1      -5.601   1.937 133.090  0.00  0.00    +0.004 C 
ATOM     18  C   LIG A   1      -7.139   2.010 133.242  0.00  0.00    +0.004 C 
ATOM     19  C   LIG A   1      -7.632   3.186 132.330  0.00  0.00    -0.002 C 
ENDROOT
BRANCH  14  20
ATOM     20  O   LIG A   1      -0.631   8.837 133.124  0.00  0.00    -0.392 OA
ATOM     21  H   LIG A   1      -0.202   8.720 133.988  0.00  0.00    +0.210 HD
ENDBRANCH  14  20
BRANCH  19  22
ATOM     22  C   LIG A   1      -8.379   2.611 131.069  0.00  0.00    -0.010 C 
ATOM     23  C   LIG A   1      -9.820   3.098 130.820  0.00  0.00    +0.008 C 
BRANCH  22  24
ATOM     24  C   LIG A   1      -8.372   1.079 130.876  0.00  0.00    +0.004 C 
BRANCH  24  25
ATOM     25  C   LIG A   1      -7.586   0.575 129.658  0.00  0.00    +0.004 C 
BRANCH  25  26
ATOM     26  C   LIG A   1      -6.725   1.669 128.963  0.00  0.00    -0.009 C 
BRANCH  26  27
ATOM     27  C   LIG A   1      -7.352   2.103 127.598  0.00  0.00    -0.014 C 
ATOM     28  C   LIG A   1      -8.638   1.332 127.263  0.00  0.00    +0.007 C 
ATOM     29  C   LIG A   1      -7.676   3.603 127.558  0.00  0.00    +0.007 C 
ENDBRANCH  26  27
BRANCH  26  30
ATOM     30  C   LIG A   1      -5.238   1.253 128.839  0.00  0.00    +0.000 C 
ATOM     31  C   LIG A   1      -4.813   0.110 129.753  0.00  0.00    +0.004 C 
ENDBRANCH  26  30
ENDBRANCH  25  26
ENDBRANCH  24  25
ENDBRANCH  22  24
ENDBRANCH  19  22
TORSDOF 7
ENDMDL
