MODEL 1
REMARK VINA RESULT:     -10.9      0.000      0.000
REMARK  Name = NuBBE_1295
REMARK  29 active torsions:
REMARK  status: ('A' for Active; 'I' for Inactive)
REMARK    1  A    between atoms: C_2  and  C_3
REMARK    2  A    between atoms: C_2  and  C_6
REMARK    3  A    between atoms: C_3  and  C_4
REMARK    4  A    between atoms: C_3  and  C_5
REMARK    5  A    between atoms: C_6  and  C_7
REMARK    6  A    between atoms: C_7  and  C_8
REMARK    7  A    between atoms: C_8  and  C_10
REMARK    8  A    between atoms: C_8  and  C_52
REMARK    9  A    between atoms: C_14  and  C_15
REMARK   10  A    between atoms: C_24  and  C_25
REMARK   11  A    between atoms: C_29  and  O_34
REMARK   12  A    between atoms: C_31  and  C_32
REMARK   13  A    between atoms: C_31  and  C_33
REMARK   14  A    between atoms: O_34  and  C_35
REMARK   15  A    between atoms: C_35  and  C_36
REMARK   16  A    between atoms: C_36  and  C_37
REMARK   17  A    between atoms: C_37  and  C_38
REMARK   18  A    between atoms: C_38  and  C_39
REMARK   19  A    between atoms: C_39  and  C_40
REMARK   20  A    between atoms: C_40  and  C_41
REMARK   21  A    between atoms: C_41  and  C_42
REMARK   22  A    between atoms: C_42  and  C_43
REMARK   23  A    between atoms: C_43  and  C_44
REMARK   24  A    between atoms: C_44  and  C_45
REMARK   25  A    between atoms: C_45  and  C_46
REMARK   26  A    between atoms: C_46  and  C_47
REMARK   27  A    between atoms: C_47  and  C_48
REMARK   28  A    between atoms: C_48  and  C_49
REMARK   29  A    between atoms: C_49  and  C_50
REMARK                            x       y       z     vdW  Elec       q    Type
REMARK                         _______ _______ _______ _____ _____    ______ ____
ROOT
ATOM      1  C   LIG A   1      -7.344   0.686 124.638  0.00  0.00    -0.002 C 
ATOM      2  C   LIG A   1      -8.923   0.687 124.652  0.00  0.00    +0.005 C 
ATOM      3  C   LIG A   1      -9.308  -0.526 125.447  0.00  0.00    +0.008 C 
ATOM      4  C   LIG A   1      -8.108  -1.530 125.441  0.00  0.00    -0.023 C 
ATOM      5  C   LIG A   1      -8.616  -2.763 124.770  0.00  0.00    +0.012 C 
ATOM      6  C   LIG A   1      -7.577  -1.968 127.013  0.00  0.00    +0.002 C 
ATOM      7  C   LIG A   1      -8.333  -2.952 127.869  0.00  0.00    +0.005 C 
ATOM      8  C   LIG A   1      -7.879  -2.859 129.375  0.00  0.00    +0.005 C 
ATOM      9  C   LIG A   1      -6.393  -3.238 129.749  0.00  0.00    +0.005 C 
ATOM     10  C   LIG A   1      -5.391  -2.877 128.676  0.00  0.00    -0.019 C 
ATOM     11  C   LIG A   1      -6.039  -2.347 127.211  0.00  0.00    -0.019 C 
ATOM     12  C   LIG A   1      -5.420  -2.548 125.895  0.00  0.00    +0.008 C 
ATOM     13  C   LIG A   1      -5.680  -1.327 125.029  0.00  0.00    +0.008 C 
ATOM     14  C   LIG A   1      -7.028  -0.851 124.509  0.00  0.00    -0.023 C 
ATOM     15  C   LIG A   1      -7.107  -1.010 122.906  0.00  0.00    +0.012 C 
ATOM     16  C   LIG A   1      -5.416  -1.518 128.254  0.00  0.00    +0.015 C 
ATOM     17  C   LIG A   1      -3.893  -3.051 129.128  0.00  0.00    +0.011 C 
ATOM     18  C   LIG A   1      -3.512  -2.168 130.393  0.00  0.00    +0.046 C 
ATOM     19  C   LIG A   1      -4.660  -1.812 131.366  0.00  0.00    +0.182 C 
ATOM     20  C   LIG A   1      -5.859  -2.872 131.238  0.00  0.00    +0.005 C 
ATOM     21  C   LIG A   1      -5.229  -4.210 131.779  0.00  0.00    +0.015 C 
ATOM     22  C   LIG A   1      -6.987  -2.534 132.223  0.00  0.00    +0.015 C 
ENDROOT
BRANCH   1  23
ATOM     23  C   LIG A   1      -6.144   1.808 125.492  0.00  0.00    -0.010 C 
ATOM     24  C   LIG A   1      -6.229   3.552 125.632  0.00  0.00    +0.008 C 
BRANCH  23  25
ATOM     25  C   LIG A   1      -4.549   1.630 126.352  0.00  0.00    +0.008 C 
BRANCH  25  26
ATOM     26  C   LIG A   1      -3.992   2.407 127.536  0.00  0.00    +0.030 C 
BRANCH  26  28
ATOM     27  C   LIG A   1      -1.889   3.165 126.963  0.00  0.00    +0.008 C 
ATOM     28  C   LIG A   1      -2.922   3.548 127.653  0.00  0.00    -0.074 C 
BRANCH  28  29
ATOM     29  C   LIG A   1      -2.747   4.938 128.285  0.00  0.00    +0.008 C 
ATOM     30  C   LIG A   1      -3.806   5.892 127.738  0.00  0.00    +0.012 C 
ATOM     31  C   LIG A   1      -2.719   5.081 129.831  0.00  0.00    +0.012 C 
ENDBRANCH  28  29
ENDBRANCH  26  28
ENDBRANCH  25  26
ENDBRANCH  23  25
ENDBRANCH   1  23
BRANCH  19  32
ATOM     32  O   LIG A   1      -4.846  -0.332 131.458  0.00  0.00    -0.461 OA
BRANCH  32  33
ATOM     33  C   LIG A   1      -4.519   0.463 132.345  0.00  0.00    +0.307 C 
ATOM     34  O   LIG A   1      -4.175  -0.183 133.705  0.00  0.00    -0.251 OA
BRANCH  33  35
ATOM     35  C   LIG A   1      -4.374   1.891 132.476  0.00  0.00    +0.120 C 
BRANCH  35  36
ATOM     36  C   LIG A   1      -5.591   2.687 131.981  0.00  0.00    +0.011 C 
BRANCH  36  37
ATOM     37  C   LIG A   1      -5.858   3.374 130.608  0.00  0.00    +0.000 C 
BRANCH  37  38
ATOM     38  C   LIG A   1      -7.155   3.140 129.904  0.00  0.00    +0.000 C 
BRANCH  38  39
ATOM     39  C   LIG A   1      -7.164   1.956 128.910  0.00  0.00    -0.000 C 
BRANCH  39  40
ATOM     40  C   LIG A   1      -8.178   0.977 129.371  0.00  0.00    -0.000 C 
BRANCH  40  41
ATOM     41  C   LIG A   1      -8.265   0.345 130.710  0.00  0.00    -0.000 C 
BRANCH  41  42
ATOM     42  C   LIG A   1      -9.234   0.923 132.048  0.00  0.00    -0.000 C 
BRANCH  42  43
ATOM     43  C   LIG A   1      -9.684   2.558 132.697  0.00  0.00    -0.000 C 
BRANCH  43  44
ATOM     44  C   LIG A   1      -8.733   3.665 133.923  0.00  0.00    -0.000 C 
BRANCH  44  45
ATOM     45  C   LIG A   1      -7.800   5.126 133.773  0.00  0.00    -0.000 C 
BRANCH  45  46
ATOM     46  C   LIG A   1      -7.558   6.095 132.330  0.00  0.00    -0.000 C 
BRANCH  46  47
ATOM     47  C   LIG A   1      -8.778   6.790 130.998  0.00  0.00    -0.000 C 
BRANCH  47  48
ATOM     48  C   LIG A   1     -10.609   6.503 130.740  0.00  0.00    -0.003 C 
ATOM     49  C   LIG A   1     -10.921   5.098 130.384  0.00  0.00    +0.004 C 
ENDBRANCH  47  48
ENDBRANCH  46  47
ENDBRANCH  45  46
ENDBRANCH  44  45
ENDBRANCH  43  44
ENDBRANCH  42  43
ENDBRANCH  41  42
ENDBRANCH  40  41
ENDBRANCH  39  40
ENDBRANCH  38  39
ENDBRANCH  37  38
ENDBRANCH  36  37
ENDBRANCH  35  36
ENDBRANCH  33  35
ENDBRANCH  32  33
ENDBRANCH  19  32
TORSDOF 21
ENDMDL
MODEL 2
REMARK VINA RESULT:     -10.8      0.700      2.112
REMARK  Name = NuBBE_1295
REMARK  29 active torsions:
REMARK  status: ('A' for Active; 'I' for Inactive)
REMARK    1  A    between atoms: C_2  and  C_3
REMARK    2  A    between atoms: C_2  and  C_6
REMARK    3  A    between atoms: C_3  and  C_4
REMARK    4  A    between atoms: C_3  and  C_5
REMARK    5  A    between atoms: C_6  and  C_7
REMARK    6  A    between atoms: C_7  and  C_8
REMARK    7  A    between atoms: C_8  and  C_10
REMARK    8  A    between atoms: C_8  and  C_52
REMARK    9  A    between atoms: C_14  and  C_15
REMARK   10  A    between atoms: C_24  and  C_25
REMARK   11  A    between atoms: C_29  and  O_34
REMARK   12  A    between atoms: C_31  and  C_32
REMARK   13  A    between atoms: C_31  and  C_33
REMARK   14  A    between atoms: O_34  and  C_35
REMARK   15  A    between atoms: C_35  and  C_36
REMARK   16  A    between atoms: C_36  and  C_37
REMARK   17  A    between atoms: C_37  and  C_38
REMARK   18  A    between atoms: C_38  and  C_39
REMARK   19  A    between atoms: C_39  and  C_40
REMARK   20  A    between atoms: C_40  and  C_41
REMARK   21  A    between atoms: C_41  and  C_42
REMARK   22  A    between atoms: C_42  and  C_43
REMARK   23  A    between atoms: C_43  and  C_44
REMARK   24  A    between atoms: C_44  and  C_45
REMARK   25  A    between atoms: C_45  and  C_46
REMARK   26  A    between atoms: C_46  and  C_47
REMARK   27  A    between atoms: C_47  and  C_48
REMARK   28  A    between atoms: C_48  and  C_49
REMARK   29  A    between atoms: C_49  and  C_50
REMARK                            x       y       z     vdW  Elec       q    Type
REMARK                         _______ _______ _______ _____ _____    ______ ____
ROOT
ATOM      1  C   LIG A   1      -7.371   0.846 124.863  0.00  0.00    -0.002 C 
ATOM      2  C   LIG A   1      -8.950   0.855 124.885  0.00  0.00    +0.005 C 
ATOM      3  C   LIG A   1      -9.338  -0.400 125.609  0.00  0.00    +0.008 C 
ATOM      4  C   LIG A   1      -8.144  -1.409 125.538  0.00  0.00    -0.023 C 
ATOM      5  C   LIG A   1      -8.662  -2.597 124.798  0.00  0.00    +0.012 C 
ATOM      6  C   LIG A   1      -7.608  -1.942 127.079  0.00  0.00    +0.002 C 
ATOM      7  C   LIG A   1      -8.365  -2.971 127.879  0.00  0.00    +0.005 C 
ATOM      8  C   LIG A   1      -7.904  -2.970 129.386  0.00  0.00    +0.005 C 
ATOM      9  C   LIG A   1      -6.418  -3.378 129.728  0.00  0.00    +0.005 C 
ATOM     10  C   LIG A   1      -5.419  -2.960 128.674  0.00  0.00    -0.019 C 
ATOM     11  C   LIG A   1      -6.072  -2.341 127.246  0.00  0.00    -0.019 C 
ATOM     12  C   LIG A   1      -5.460  -2.468 125.917  0.00  0.00    +0.008 C 
ATOM     13  C   LIG A   1      -5.717  -1.196 125.126  0.00  0.00    +0.008 C 
ATOM     14  C   LIG A   1      -7.065  -0.682 124.642  0.00  0.00    -0.023 C 
ATOM     15  C   LIG A   1      -7.153  -0.745 123.032  0.00  0.00    +0.012 C 
ATOM     16  C   LIG A   1      -5.439  -1.578 128.333  0.00  0.00    +0.015 C 
ATOM     17  C   LIG A   1      -3.920  -3.169 129.107  0.00  0.00    +0.011 C 
ATOM     18  C   LIG A   1      -3.528  -2.365 130.419  0.00  0.00    +0.046 C 
ATOM     19  C   LIG A   1      -4.670  -2.060 131.418  0.00  0.00    +0.182 C 
ATOM     20  C   LIG A   1      -5.875  -3.104 131.234  0.00  0.00    +0.005 C 
ATOM     21  C   LIG A   1      -5.250  -4.475 131.691  0.00  0.00    +0.015 C 
ATOM     22  C   LIG A   1      -6.997  -2.818 132.243  0.00  0.00    +0.015 C 
ENDROOT
BRANCH   1  23
ATOM     23  C   LIG A   1      -6.161   1.909 125.776  0.00  0.00    -0.010 C 
ATOM     24  C   LIG A   1      -6.075   3.659 125.789  0.00  0.00    +0.008 C 
BRANCH  23  25
ATOM     25  C   LIG A   1      -4.697   1.644 126.826  0.00  0.00    +0.008 C 
BRANCH  25  26
ATOM     26  C   LIG A   1      -4.122   2.520 127.931  0.00  0.00    +0.030 C 
BRANCH  26  28
ATOM     27  C   LIG A   1      -2.080   3.243 127.138  0.00  0.00    +0.008 C 
ATOM     28  C   LIG A   1      -3.023   3.638 127.940  0.00  0.00    -0.074 C 
BRANCH  28  29
ATOM     29  C   LIG A   1      -2.753   5.019 128.560  0.00  0.00    +0.008 C 
ATOM     30  C   LIG A   1      -3.732   6.042 127.993  0.00  0.00    +0.012 C 
ATOM     31  C   LIG A   1      -2.729   5.175 130.105  0.00  0.00    +0.012 C 
ENDBRANCH  28  29
ENDBRANCH  26  28
ENDBRANCH  25  26
ENDBRANCH  23  25
ENDBRANCH   1  23
BRANCH  19  32
ATOM     32  O   LIG A   1      -4.846  -0.587 131.599  0.00  0.00    -0.461 OA
BRANCH  32  33
ATOM     33  C   LIG A   1      -4.474   0.159 132.510  0.00  0.00    +0.307 C 
ATOM     34  O   LIG A   1      -5.138  -0.103 133.879  0.00  0.00    -0.251 OA
BRANCH  33  35
ATOM     35  C   LIG A   1      -3.559   1.263 132.657  0.00  0.00    +0.120 C 
BRANCH  35  36
ATOM     36  C   LIG A   1      -4.212   2.541 133.208  0.00  0.00    +0.011 C 
BRANCH  36  37
ATOM     37  C   LIG A   1      -5.432   3.357 132.687  0.00  0.00    +0.000 C 
BRANCH  37  38
ATOM     38  C   LIG A   1      -5.748   3.363 131.227  0.00  0.00    +0.000 C 
BRANCH  38  39
ATOM     39  C   LIG A   1      -6.360   4.677 130.687  0.00  0.00    -0.000 C 
BRANCH  39  40
ATOM     40  C   LIG A   1      -6.891   4.412 129.328  0.00  0.00    -0.000 C 
BRANCH  40  41
ATOM     41  C   LIG A   1      -8.276   4.642 128.850  0.00  0.00    -0.000 C 
BRANCH  41  42
ATOM     42  C   LIG A   1      -9.519   5.519 129.715  0.00  0.00    -0.000 C 
BRANCH  42  43
ATOM     43  C   LIG A   1      -9.609   6.382 131.311  0.00  0.00    -0.000 C 
BRANCH  43  44
ATOM     44  C   LIG A   1      -9.045   5.785 133.031  0.00  0.00    -0.000 C 
BRANCH  44  45
ATOM     45  C   LIG A   1      -8.828   4.223 133.766  0.00  0.00    -0.000 C 
BRANCH  45  46
ATOM     46  C   LIG A   1      -9.205   2.655 133.075  0.00  0.00    -0.000 C 
BRANCH  46  47
ATOM     47  C   LIG A   1      -9.240   2.000 131.254  0.00  0.00    -0.000 C 
BRANCH  47  48
ATOM     48  C   LIG A   1      -8.232   0.671 130.406  0.00  0.00    -0.003 C 
ATOM     49  C   LIG A   1      -7.985   0.970 128.975  0.00  0.00    +0.004 C 
ENDBRANCH  47  48
ENDBRANCH  46  47
ENDBRANCH  45  46
ENDBRANCH  44  45
ENDBRANCH  43  44
ENDBRANCH  42  43
ENDBRANCH  41  42
ENDBRANCH  40  41
ENDBRANCH  39  40
ENDBRANCH  38  39
ENDBRANCH  37  38
ENDBRANCH  36  37
ENDBRANCH  35  36
ENDBRANCH  33  35
ENDBRANCH  32  33
ENDBRANCH  19  32
TORSDOF 21
ENDMDL
MODEL 3
REMARK VINA RESULT:     -10.7      0.944      2.853
REMARK  Name = NuBBE_1295
REMARK  29 active torsions:
REMARK  status: ('A' for Active; 'I' for Inactive)
REMARK    1  A    between atoms: C_2  and  C_3
REMARK    2  A    between atoms: C_2  and  C_6
REMARK    3  A    between atoms: C_3  and  C_4
REMARK    4  A    between atoms: C_3  and  C_5
REMARK    5  A    between atoms: C_6  and  C_7
REMARK    6  A    between atoms: C_7  and  C_8
REMARK    7  A    between atoms: C_8  and  C_10
REMARK    8  A    between atoms: C_8  and  C_52
REMARK    9  A    between atoms: C_14  and  C_15
REMARK   10  A    between atoms: C_24  and  C_25
REMARK   11  A    between atoms: C_29  and  O_34
REMARK   12  A    between atoms: C_31  and  C_32
REMARK   13  A    between atoms: C_31  and  C_33
REMARK   14  A    between atoms: O_34  and  C_35
REMARK   15  A    between atoms: C_35  and  C_36
REMARK   16  A    between atoms: C_36  and  C_37
REMARK   17  A    between atoms: C_37  and  C_38
REMARK   18  A    between atoms: C_38  and  C_39
REMARK   19  A    between atoms: C_39  and  C_40
REMARK   20  A    between atoms: C_40  and  C_41
REMARK   21  A    between atoms: C_41  and  C_42
REMARK   22  A    between atoms: C_42  and  C_43
REMARK   23  A    between atoms: C_43  and  C_44
REMARK   24  A    between atoms: C_44  and  C_45
REMARK   25  A    between atoms: C_45  and  C_46
REMARK   26  A    between atoms: C_46  and  C_47
REMARK   27  A    between atoms: C_47  and  C_48
REMARK   28  A    between atoms: C_48  and  C_49
REMARK   29  A    between atoms: C_49  and  C_50
REMARK                            x       y       z     vdW  Elec       q    Type
REMARK                         _______ _______ _______ _____ _____    ______ ____
ROOT
ATOM      1  C   LIG A   1      -7.386   0.274 124.422  0.00  0.00    -0.002 C 
ATOM      2  C   LIG A   1      -8.957   0.114 124.394  0.00  0.00    +0.005 C 
ATOM      3  C   LIG A   1      -9.243  -1.081 125.253  0.00  0.00    +0.008 C 
ATOM      4  C   LIG A   1      -7.949  -1.956 125.343  0.00  0.00    -0.023 C 
ATOM      5  C   LIG A   1      -8.309  -3.273 124.738  0.00  0.00    +0.012 C 
ATOM      6  C   LIG A   1      -7.429  -2.242 126.954  0.00  0.00    +0.002 C 
ATOM      7  C   LIG A   1      -8.111  -3.245 127.850  0.00  0.00    +0.005 C 
ATOM      8  C   LIG A   1      -7.719  -3.016 129.359  0.00  0.00    +0.005 C 
ATOM      9  C   LIG A   1      -6.216  -3.218 129.795  0.00  0.00    +0.005 C 
ATOM     10  C   LIG A   1      -5.220  -2.821 128.729  0.00  0.00    -0.019 C 
ATOM     11  C   LIG A   1      -5.869  -2.450 127.217  0.00  0.00    -0.019 C 
ATOM     12  C   LIG A   1      -5.190  -2.666 125.933  0.00  0.00    +0.008 C 
ATOM     13  C   LIG A   1      -5.542  -1.532 124.984  0.00  0.00    +0.008 C 
ATOM     14  C   LIG A   1      -6.913  -1.228 124.399  0.00  0.00    -0.023 C 
ATOM     15  C   LIG A   1      -6.922  -1.490 122.808  0.00  0.00    +0.012 C 
ATOM     16  C   LIG A   1      -5.367  -1.500 128.221  0.00  0.00    +0.015 C 
ATOM     17  C   LIG A   1      -3.728  -2.814 129.231  0.00  0.00    +0.011 C 
ATOM     18  C   LIG A   1      -3.480  -1.822 130.447  0.00  0.00    +0.046 C 
ATOM     19  C   LIG A   1      -4.690  -1.528 131.365  0.00  0.00    +0.182 C 
ATOM     20  C   LIG A   1      -5.771  -2.710 131.272  0.00  0.00    +0.005 C 
ATOM     21  C   LIG A   1      -5.028  -3.942 131.913  0.00  0.00    +0.015 C 
ATOM     22  C   LIG A   1      -6.960  -2.430 132.203  0.00  0.00    +0.015 C 
ENDROOT
BRANCH   1  23
ATOM     23  C   LIG A   1      -6.333   1.562 125.236  0.00  0.00    -0.010 C 
ATOM     24  C   LIG A   1      -6.162   3.244 124.779  0.00  0.00    +0.008 C 
BRANCH  23  25
ATOM     25  C   LIG A   1      -5.130   1.617 126.601  0.00  0.00    +0.008 C 
BRANCH  25  26
ATOM     26  C   LIG A   1      -3.643   1.943 126.573  0.00  0.00    +0.030 C 
BRANCH  26  28
ATOM     27  C   LIG A   1      -1.662   3.124 126.509  0.00  0.00    +0.008 C 
ATOM     28  C   LIG A   1      -2.807   3.148 127.126  0.00  0.00    -0.074 C 
BRANCH  28  29
ATOM     29  C   LIG A   1      -2.939   4.320 128.112  0.00  0.00    +0.008 C 
ATOM     30  C   LIG A   1      -3.860   5.387 127.528  0.00  0.00    +0.012 C 
ATOM     31  C   LIG A   1      -3.381   4.046 129.575  0.00  0.00    +0.012 C 
ENDBRANCH  28  29
ENDBRANCH  26  28
ENDBRANCH  25  26
ENDBRANCH  23  25
ENDBRANCH   1  23
BRANCH  19  32
ATOM     32  O   LIG A   1      -5.025  -0.071 131.358  0.00  0.00    -0.461 OA
BRANCH  32  33
ATOM     33  C   LIG A   1      -5.178   0.720 132.294  0.00  0.00    +0.307 C 
ATOM     34  O   LIG A   1      -4.801   0.166 133.685  0.00  0.00    -0.251 OA
BRANCH  33  35
ATOM     35  C   LIG A   1      -5.641   2.075 132.460  0.00  0.00    +0.120 C 
BRANCH  35  36
ATOM     36  C   LIG A   1      -6.394   2.318 133.777  0.00  0.00    +0.011 C 
BRANCH  36  37
ATOM     37  C   LIG A   1      -7.611   3.238 134.089  0.00  0.00    +0.000 C 
BRANCH  37  38
ATOM     38  C   LIG A   1      -7.387   4.576 134.713  0.00  0.00    +0.000 C 
BRANCH  38  39
ATOM     39  C   LIG A   1      -6.828   5.664 133.767  0.00  0.00    -0.000 C 
BRANCH  39  40
ATOM     40  C   LIG A   1      -7.772   5.816 132.633  0.00  0.00    -0.000 C 
BRANCH  40  41
ATOM     41  C   LIG A   1      -7.428   6.033 131.207  0.00  0.00    -0.000 C 
BRANCH  41  42
ATOM     42  C   LIG A   1      -6.819   4.813 130.110  0.00  0.00    -0.000 C 
BRANCH  42  43
ATOM     43  C   LIG A   1      -7.294   4.213 128.463  0.00  0.00    -0.000 C 
BRANCH  43  44
ATOM     44  C   LIG A   1      -8.276   2.648 127.994  0.00  0.00    -0.000 C 
BRANCH  44  45
ATOM     45  C   LIG A   1      -8.144   0.961 128.398  0.00  0.00    -0.000 C 
BRANCH  45  46
ATOM     46  C   LIG A   1      -8.127   0.244 130.000  0.00  0.00    -0.000 C 
BRANCH  46  47
ATOM     47  C   LIG A   1      -9.085   0.657 131.630  0.00  0.00    -0.000 C 
BRANCH  47  48
ATOM     48  C   LIG A   1     -10.181   2.105 132.078  0.00  0.00    -0.003 C 
ATOM     49  C   LIG A   1     -10.070   3.224 131.112  0.00  0.00    +0.004 C 
ENDBRANCH  47  48
ENDBRANCH  46  47
ENDBRANCH  45  46
ENDBRANCH  44  45
ENDBRANCH  43  44
ENDBRANCH  42  43
ENDBRANCH  41  42
ENDBRANCH  40  41
ENDBRANCH  39  40
ENDBRANCH  38  39
ENDBRANCH  37  38
ENDBRANCH  36  37
ENDBRANCH  35  36
ENDBRANCH  33  35
ENDBRANCH  32  33
ENDBRANCH  19  32
TORSDOF 21
ENDMDL
MODEL 4
REMARK VINA RESULT:     -10.7      1.271      2.688
REMARK  Name = NuBBE_1295
REMARK  29 active torsions:
REMARK  status: ('A' for Active; 'I' for Inactive)
REMARK    1  A    between atoms: C_2  and  C_3
REMARK    2  A    between atoms: C_2  and  C_6
REMARK    3  A    between atoms: C_3  and  C_4
REMARK    4  A    between atoms: C_3  and  C_5
REMARK    5  A    between atoms: C_6  and  C_7
REMARK    6  A    between atoms: C_7  and  C_8
REMARK    7  A    between atoms: C_8  and  C_10
REMARK    8  A    between atoms: C_8  and  C_52
REMARK    9  A    between atoms: C_14  and  C_15
REMARK   10  A    between atoms: C_24  and  C_25
REMARK   11  A    between atoms: C_29  and  O_34
REMARK   12  A    between atoms: C_31  and  C_32
REMARK   13  A    between atoms: C_31  and  C_33
REMARK   14  A    between atoms: O_34  and  C_35
REMARK   15  A    between atoms: C_35  and  C_36
REMARK   16  A    between atoms: C_36  and  C_37
REMARK   17  A    between atoms: C_37  and  C_38
REMARK   18  A    between atoms: C_38  and  C_39
REMARK   19  A    between atoms: C_39  and  C_40
REMARK   20  A    between atoms: C_40  and  C_41
REMARK   21  A    between atoms: C_41  and  C_42
REMARK   22  A    between atoms: C_42  and  C_43
REMARK   23  A    between atoms: C_43  and  C_44
REMARK   24  A    between atoms: C_44  and  C_45
REMARK   25  A    between atoms: C_45  and  C_46
REMARK   26  A    between atoms: C_46  and  C_47
REMARK   27  A    between atoms: C_47  and  C_48
REMARK   28  A    between atoms: C_48  and  C_49
REMARK   29  A    between atoms: C_49  and  C_50
REMARK                            x       y       z     vdW  Elec       q    Type
REMARK                         _______ _______ _______ _____ _____    ______ ____
ROOT
ATOM      1  C   LIG A   1      -7.473   0.892 125.043  0.00  0.00    -0.002 C 
ATOM      2  C   LIG A   1      -9.051   0.866 125.070  0.00  0.00    +0.005 C 
ATOM      3  C   LIG A   1      -9.408  -0.427 125.744  0.00  0.00    +0.008 C 
ATOM      4  C   LIG A   1      -8.193  -1.405 125.628  0.00  0.00    -0.023 C 
ATOM      5  C   LIG A   1      -8.688  -2.573 124.843  0.00  0.00    +0.012 C 
ATOM      6  C   LIG A   1      -7.639  -1.987 127.145  0.00  0.00    +0.002 C 
ATOM      7  C   LIG A   1      -8.371  -3.064 127.905  0.00  0.00    +0.005 C 
ATOM      8  C   LIG A   1      -7.903  -3.114 129.409  0.00  0.00    +0.005 C 
ATOM      9  C   LIG A   1      -6.408  -3.503 129.731  0.00  0.00    +0.005 C 
ATOM     10  C   LIG A   1      -5.422  -3.020 128.691  0.00  0.00    -0.019 C 
ATOM     11  C   LIG A   1      -6.094  -2.358 127.291  0.00  0.00    -0.019 C 
ATOM     12  C   LIG A   1      -5.485  -2.418 125.956  0.00  0.00    +0.008 C 
ATOM     13  C   LIG A   1      -5.773  -1.121 125.218  0.00  0.00    +0.008 C 
ATOM     14  C   LIG A   1      -7.133  -0.619 124.759  0.00  0.00    -0.023 C 
ATOM     15  C   LIG A   1      -7.226  -0.619 123.149  0.00  0.00    +0.012 C 
ATOM     16  C   LIG A   1      -5.473  -1.627 128.406  0.00  0.00    +0.015 C 
ATOM     17  C   LIG A   1      -3.918  -3.213 129.111  0.00  0.00    +0.011 C 
ATOM     18  C   LIG A   1      -3.538  -2.454 130.453  0.00  0.00    +0.046 C 
ATOM     19  C   LIG A   1      -4.682  -2.215 131.467  0.00  0.00    +0.182 C 
ATOM     20  C   LIG A   1      -5.865  -3.277 131.244  0.00  0.00    +0.005 C 
ATOM     21  C   LIG A   1      -5.208  -4.652 131.644  0.00  0.00    +0.015 C 
ATOM     22  C   LIG A   1      -6.988  -3.057 132.267  0.00  0.00    +0.015 C 
ENDROOT
BRANCH   1  23
ATOM     23  C   LIG A   1      -6.282   1.944 125.995  0.00  0.00    -0.010 C 
ATOM     24  C   LIG A   1      -6.300   3.687 126.165  0.00  0.00    +0.008 C 
BRANCH  23  25
ATOM     25  C   LIG A   1      -4.754   1.680 126.949  0.00  0.00    +0.008 C 
BRANCH  25  26
ATOM     26  C   LIG A   1      -4.484   1.897 128.431  0.00  0.00    +0.030 C 
BRANCH  26  28
ATOM     27  C   LIG A   1      -4.242   2.797 130.542  0.00  0.00    +0.008 C 
ATOM     28  C   LIG A   1      -4.312   3.188 129.304  0.00  0.00    -0.074 C 
BRANCH  28  29
ATOM     29  C   LIG A   1      -4.173   4.711 129.141  0.00  0.00    +0.008 C 
ATOM     30  C   LIG A   1      -4.985   5.422 130.220  0.00  0.00    +0.012 C 
ATOM     31  C   LIG A   1      -2.761   5.353 129.096  0.00  0.00    +0.012 C 
ENDBRANCH  28  29
ENDBRANCH  26  28
ENDBRANCH  25  26
ENDBRANCH  23  25
ENDBRANCH   1  23
BRANCH  19  32
ATOM     32  O   LIG A   1      -4.890  -0.755 131.707  0.00  0.00    -0.461 OA
BRANCH  32  33
ATOM     33  C   LIG A   1      -5.478  -0.169 132.621  0.00  0.00    +0.307 C 
ATOM     34  O   LIG A   1      -5.073  -0.608 134.045  0.00  0.00    -0.251 OA
BRANCH  33  35
ATOM     35  C   LIG A   1      -6.491   0.849 132.736  0.00  0.00    +0.120 C 
BRANCH  35  36
ATOM     36  C   LIG A   1      -7.884   0.396 132.272  0.00  0.00    +0.011 C 
BRANCH  36  37
ATOM     37  C   LIG A   1      -8.424   0.097 130.842  0.00  0.00    +0.000 C 
BRANCH  37  38
ATOM     38  C   LIG A   1      -7.763   0.722 129.656  0.00  0.00    +0.000 C 
BRANCH  38  39
ATOM     39  C   LIG A   1      -8.542   1.887 129.002  0.00  0.00    -0.000 C 
BRANCH  39  40
ATOM     40  C   LIG A   1      -7.944   3.161 129.471  0.00  0.00    -0.000 C 
BRANCH  40  41
ATOM     41  C   LIG A   1      -8.545   4.136 130.413  0.00  0.00    -0.000 C 
BRANCH  41  42
ATOM     42  C   LIG A   1      -9.475   3.733 131.840  0.00  0.00    -0.000 C 
BRANCH  42  43
ATOM     43  C   LIG A   1      -9.090   3.488 133.598  0.00  0.00    -0.000 C 
BRANCH  43  44
ATOM     44  C   LIG A   1      -8.058   4.588 134.764  0.00  0.00    -0.000 C 
BRANCH  44  45
ATOM     45  C   LIG A   1      -6.355   4.858 134.992  0.00  0.00    -0.000 C 
BRANCH  45  46
ATOM     46  C   LIG A   1      -5.082   4.726 133.791  0.00  0.00    -0.000 C 
BRANCH  46  47
ATOM     47  C   LIG A   1      -3.303   3.966 133.845  0.00  0.00    -0.000 C 
BRANCH  47  48
ATOM     48  C   LIG A   1      -1.789   4.306 132.800  0.00  0.00    -0.003 C 
ATOM     49  C   LIG A   1      -1.583   5.753 132.549  0.00  0.00    +0.004 C 
ENDBRANCH  47  48
ENDBRANCH  46  47
ENDBRANCH  45  46
ENDBRANCH  44  45
ENDBRANCH  43  44
ENDBRANCH  42  43
ENDBRANCH  41  42
ENDBRANCH  40  41
ENDBRANCH  39  40
ENDBRANCH  38  39
ENDBRANCH  37  38
ENDBRANCH  36  37
ENDBRANCH  35  36
ENDBRANCH  33  35
ENDBRANCH  32  33
ENDBRANCH  19  32
TORSDOF 21
ENDMDL
MODEL 5
REMARK VINA RESULT:     -10.7      1.352      2.449
REMARK  Name = NuBBE_1295
REMARK  29 active torsions:
REMARK  status: ('A' for Active; 'I' for Inactive)
REMARK    1  A    between atoms: C_2  and  C_3
REMARK    2  A    between atoms: C_2  and  C_6
REMARK    3  A    between atoms: C_3  and  C_4
REMARK    4  A    between atoms: C_3  and  C_5
REMARK    5  A    between atoms: C_6  and  C_7
REMARK    6  A    between atoms: C_7  and  C_8
REMARK    7  A    between atoms: C_8  and  C_10
REMARK    8  A    between atoms: C_8  and  C_52
REMARK    9  A    between atoms: C_14  and  C_15
REMARK   10  A    between atoms: C_24  and  C_25
REMARK   11  A    between atoms: C_29  and  O_34
REMARK   12  A    between atoms: C_31  and  C_32
REMARK   13  A    between atoms: C_31  and  C_33
REMARK   14  A    between atoms: O_34  and  C_35
REMARK   15  A    between atoms: C_35  and  C_36
REMARK   16  A    between atoms: C_36  and  C_37
REMARK   17  A    between atoms: C_37  and  C_38
REMARK   18  A    between atoms: C_38  and  C_39
REMARK   19  A    between atoms: C_39  and  C_40
REMARK   20  A    between atoms: C_40  and  C_41
REMARK   21  A    between atoms: C_41  and  C_42
REMARK   22  A    between atoms: C_42  and  C_43
REMARK   23  A    between atoms: C_43  and  C_44
REMARK   24  A    between atoms: C_44  and  C_45
REMARK   25  A    between atoms: C_45  and  C_46
REMARK   26  A    between atoms: C_46  and  C_47
REMARK   27  A    between atoms: C_47  and  C_48
REMARK   28  A    between atoms: C_48  and  C_49
REMARK   29  A    between atoms: C_49  and  C_50
REMARK                            x       y       z     vdW  Elec       q    Type
REMARK                         _______ _______ _______ _____ _____    ______ ____
ROOT
ATOM      1  C   LIG A   1      -7.441   1.038 125.021  0.00  0.00    -0.002 C 
ATOM      2  C   LIG A   1      -9.020   1.062 125.040  0.00  0.00    +0.005 C 
ATOM      3  C   LIG A   1      -9.422  -0.224 125.701  0.00  0.00    +0.008 C 
ATOM      4  C   LIG A   1      -8.238  -1.240 125.582  0.00  0.00    -0.023 C 
ATOM      5  C   LIG A   1      -8.767  -2.385 124.784  0.00  0.00    +0.012 C 
ATOM      6  C   LIG A   1      -7.712  -1.853 127.097  0.00  0.00    +0.002 C 
ATOM      7  C   LIG A   1      -8.482  -2.912 127.844  0.00  0.00    +0.005 C 
ATOM      8  C   LIG A   1      -8.025  -2.990 129.350  0.00  0.00    +0.005 C 
ATOM      9  C   LIG A   1      -6.545  -3.430 129.675  0.00  0.00    +0.005 C 
ATOM     10  C   LIG A   1      -5.538  -2.971 128.645  0.00  0.00    -0.019 C 
ATOM     11  C   LIG A   1      -6.181  -2.275 127.248  0.00  0.00    -0.019 C 
ATOM     12  C   LIG A   1      -5.566  -2.343 125.916  0.00  0.00    +0.008 C 
ATOM     13  C   LIG A   1      -5.808  -1.032 125.187  0.00  0.00    +0.008 C 
ATOM     14  C   LIG A   1      -7.149  -0.481 124.726  0.00  0.00    -0.023 C 
ATOM     15  C   LIG A   1      -7.233  -0.465 123.115  0.00  0.00    +0.012 C 
ATOM     16  C   LIG A   1      -5.543  -1.574 128.372  0.00  0.00    +0.015 C 
ATOM     17  C   LIG A   1      -4.043  -3.216 129.071  0.00  0.00    +0.011 C 
ATOM     18  C   LIG A   1      -3.646  -2.481 130.422  0.00  0.00    +0.046 C 
ATOM     19  C   LIG A   1      -4.787  -2.214 131.432  0.00  0.00    +0.182 C 
ATOM     20  C   LIG A   1      -6.003  -3.235 131.194  0.00  0.00    +0.005 C 
ATOM     21  C   LIG A   1      -5.393  -4.633 131.585  0.00  0.00    +0.015 C 
ATOM     22  C   LIG A   1      -7.124  -2.988 132.213  0.00  0.00    +0.015 C 
ENDROOT
BRANCH   1  23
ATOM     23  C   LIG A   1      -6.222   2.042 125.988  0.00  0.00    -0.010 C 
ATOM     24  C   LIG A   1      -6.236   3.774 126.249  0.00  0.00    +0.008 C 
BRANCH  23  25
ATOM     25  C   LIG A   1      -4.664   1.733 126.879  0.00  0.00    +0.008 C 
BRANCH  25  26
ATOM     26  C   LIG A   1      -4.375   1.771 128.373  0.00  0.00    +0.030 C 
BRANCH  26  28
ATOM     27  C   LIG A   1      -4.625   2.713 130.464  0.00  0.00    +0.008 C 
ATOM     28  C   LIG A   1      -3.987   2.932 129.353  0.00  0.00    -0.074 C 
BRANCH  28  29
ATOM     29  C   LIG A   1      -3.093   4.181 129.404  0.00  0.00    +0.008 C 
ATOM     30  C   LIG A   1      -3.729   5.307 128.595  0.00  0.00    +0.012 C 
ATOM     31  C   LIG A   1      -2.658   4.758 130.778  0.00  0.00    +0.012 C 
ENDBRANCH  28  29
ENDBRANCH  26  28
ENDBRANCH  25  26
ENDBRANCH  23  25
ENDBRANCH   1  23
BRANCH  19  32
ATOM     32  O   LIG A   1      -4.949  -0.750 131.684  0.00  0.00    -0.461 OA
BRANCH  32  33
ATOM     33  C   LIG A   1      -4.952  -0.115 132.743  0.00  0.00    +0.307 C 
ATOM     34  O   LIG A   1      -3.614   0.568 133.098  0.00  0.00    -0.251 OA
BRANCH  33  35
ATOM     35  C   LIG A   1      -5.896   0.172 133.794  0.00  0.00    +0.120 C 
BRANCH  35  36
ATOM     36  C   LIG A   1      -6.570   1.547 133.666  0.00  0.00    +0.011 C 
BRANCH  36  37
ATOM     37  C   LIG A   1      -7.574   2.084 132.603  0.00  0.00    +0.000 C 
BRANCH  37  38
ATOM     38  C   LIG A   1      -8.831   1.327 132.323  0.00  0.00    +0.000 C 
BRANCH  38  39
ATOM     39  C   LIG A   1      -8.696   0.173 131.303  0.00  0.00    -0.000 C 
BRANCH  39  40
ATOM     40  C   LIG A   1      -7.710   0.582 130.274  0.00  0.00    -0.000 C 
BRANCH  40  41
ATOM     41  C   LIG A   1      -7.994   1.255 128.983  0.00  0.00    -0.000 C 
BRANCH  41  42
ATOM     42  C   LIG A   1      -8.747   2.825 128.797  0.00  0.00    -0.000 C 
BRANCH  42  43
ATOM     43  C   LIG A   1      -8.346   4.514 129.330  0.00  0.00    -0.000 C 
BRANCH  43  44
ATOM     44  C   LIG A   1      -6.904   5.117 130.420  0.00  0.00    -0.000 C 
BRANCH  44  45
ATOM     45  C   LIG A   1      -6.790   5.824 132.006  0.00  0.00    -0.000 C 
BRANCH  45  46
ATOM     46  C   LIG A   1      -5.396   5.840 133.071  0.00  0.00    -0.000 C 
BRANCH  46  47
ATOM     47  C   LIG A   1      -3.828   6.971 133.161  0.00  0.00    -0.000 C 
BRANCH  47  48
ATOM     48  C   LIG A   1      -3.031   8.071 131.874  0.00  0.00    -0.003 C 
ATOM     49  C   LIG A   1      -3.887   8.262 130.679  0.00  0.00    +0.004 C 
ENDBRANCH  47  48
ENDBRANCH  46  47
ENDBRANCH  45  46
ENDBRANCH  44  45
ENDBRANCH  43  44
ENDBRANCH  42  43
ENDBRANCH  41  42
ENDBRANCH  40  41
ENDBRANCH  39  40
ENDBRANCH  38  39
ENDBRANCH  37  38
ENDBRANCH  36  37
ENDBRANCH  35  36
ENDBRANCH  33  35
ENDBRANCH  32  33
ENDBRANCH  19  32
TORSDOF 21
ENDMDL
MODEL 6
REMARK VINA RESULT:     -10.4      1.402      2.860
REMARK  Name = NuBBE_1295
REMARK  29 active torsions:
REMARK  status: ('A' for Active; 'I' for Inactive)
REMARK    1  A    between atoms: C_2  and  C_3
REMARK    2  A    between atoms: C_2  and  C_6
REMARK    3  A    between atoms: C_3  and  C_4
REMARK    4  A    between atoms: C_3  and  C_5
REMARK    5  A    between atoms: C_6  and  C_7
REMARK    6  A    between atoms: C_7  and  C_8
REMARK    7  A    between atoms: C_8  and  C_10
REMARK    8  A    between atoms: C_8  and  C_52
REMARK    9  A    between atoms: C_14  and  C_15
REMARK   10  A    between atoms: C_24  and  C_25
REMARK   11  A    between atoms: C_29  and  O_34
REMARK   12  A    between atoms: C_31  and  C_32
REMARK   13  A    between atoms: C_31  and  C_33
REMARK   14  A    between atoms: O_34  and  C_35
REMARK   15  A    between atoms: C_35  and  C_36
REMARK   16  A    between atoms: C_36  and  C_37
REMARK   17  A    between atoms: C_37  and  C_38
REMARK   18  A    between atoms: C_38  and  C_39
REMARK   19  A    between atoms: C_39  and  C_40
REMARK   20  A    between atoms: C_40  and  C_41
REMARK   21  A    between atoms: C_41  and  C_42
REMARK   22  A    between atoms: C_42  and  C_43
REMARK   23  A    between atoms: C_43  and  C_44
REMARK   24  A    between atoms: C_44  and  C_45
REMARK   25  A    between atoms: C_45  and  C_46
REMARK   26  A    between atoms: C_46  and  C_47
REMARK   27  A    between atoms: C_47  and  C_48
REMARK   28  A    between atoms: C_48  and  C_49
REMARK   29  A    between atoms: C_49  and  C_50
REMARK                            x       y       z     vdW  Elec       q    Type
REMARK                         _______ _______ _______ _____ _____    ______ ____
ROOT
ATOM      1  C   LIG A   1      -7.562   0.782 124.991  0.00  0.00    -0.002 C 
ATOM      2  C   LIG A   1      -9.121   0.577 124.842  0.00  0.00    +0.005 C 
ATOM      3  C   LIG A   1      -9.404  -0.751 125.480  0.00  0.00    +0.008 C 
ATOM      4  C   LIG A   1      -8.081  -1.585 125.507  0.00  0.00    -0.023 C 
ATOM      5  C   LIG A   1      -8.351  -2.797 124.679  0.00  0.00    +0.012 C 
ATOM      6  C   LIG A   1      -7.638  -2.111 127.080  0.00  0.00    +0.002 C 
ATOM      7  C   LIG A   1      -8.325  -3.268 127.761  0.00  0.00    +0.005 C 
ATOM      8  C   LIG A   1      -8.026  -3.273 129.309  0.00  0.00    +0.005 C 
ATOM      9  C   LIG A   1      -6.542  -3.493 129.798  0.00  0.00    +0.005 C 
ATOM     10  C   LIG A   1      -5.506  -2.897 128.871  0.00  0.00    -0.019 C 
ATOM     11  C   LIG A   1      -6.087  -2.307 127.401  0.00  0.00    -0.019 C 
ATOM     12  C   LIG A   1      -5.330  -2.290 126.143  0.00  0.00    +0.008 C 
ATOM     13  C   LIG A   1      -5.678  -1.029 125.368  0.00  0.00    +0.008 C 
ATOM     14  C   LIG A   1      -7.026  -0.680 124.757  0.00  0.00    -0.023 C 
ATOM     15  C   LIG A   1      -6.938  -0.681 123.146  0.00  0.00    +0.012 C 
ATOM     16  C   LIG A   1      -5.681  -1.516 128.573  0.00  0.00    +0.015 C 
ATOM     17  C   LIG A   1      -4.046  -2.922 129.458  0.00  0.00    +0.011 C 
ATOM     18  C   LIG A   1      -3.907  -2.133 130.829  0.00  0.00    +0.046 C 
ATOM     19  C   LIG A   1      -5.176  -2.031 131.707  0.00  0.00    +0.182 C 
ATOM     20  C   LIG A   1      -6.200  -3.217 131.361  0.00  0.00    +0.005 C 
ATOM     21  C   LIG A   1      -5.442  -4.511 131.841  0.00  0.00    +0.015 C 
ATOM     22  C   LIG A   1      -7.448  -3.131 132.250  0.00  0.00    +0.015 C 
ENDROOT
BRANCH   1  23
ATOM     23  C   LIG A   1      -6.611   1.955 126.063  0.00  0.00    -0.010 C 
ATOM     24  C   LIG A   1      -6.506   1.955 127.811  0.00  0.00    +0.008 C 
BRANCH  23  25
ATOM     25  C   LIG A   1      -5.599   3.448 125.815  0.00  0.00    +0.008 C 
BRANCH  25  26
ATOM     26  C   LIG A   1      -4.097   3.639 125.967  0.00  0.00    +0.030 C 
BRANCH  26  28
ATOM     27  C   LIG A   1      -2.069   3.490 127.058  0.00  0.00    +0.008 C 
ATOM     28  C   LIG A   1      -3.200   4.124 127.158  0.00  0.00    -0.074 C 
BRANCH  28  29
ATOM     29  C   LIG A   1      -3.241   5.106 128.340  0.00  0.00    +0.008 C 
ATOM     30  C   LIG A   1      -3.059   4.346 129.651  0.00  0.00    +0.012 C 
ATOM     31  C   LIG A   1      -2.287   6.331 128.355  0.00  0.00    +0.012 C 
ENDBRANCH  28  29
ENDBRANCH  26  28
ENDBRANCH  25  26
ENDBRANCH  23  25
ENDBRANCH   1  23
BRANCH  19  32
ATOM     32  O   LIG A   1      -5.572  -0.604 131.913  0.00  0.00    -0.461 OA
BRANCH  32  33
ATOM     33  C   LIG A   1      -6.689  -0.093 132.044  0.00  0.00    +0.307 C 
ATOM     34  O   LIG A   1      -7.127   0.151 133.505  0.00  0.00    -0.251 OA
BRANCH  33  35
ATOM     35  C   LIG A   1      -7.751   0.349 131.176  0.00  0.00    +0.120 C 
BRANCH  35  36
ATOM     36  C   LIG A   1      -9.011   0.813 131.923  0.00  0.00    +0.011 C 
BRANCH  36  37
ATOM     37  C   LIG A   1      -9.545   2.248 132.207  0.00  0.00    +0.000 C 
BRANCH  37  38
ATOM     38  C   LIG A   1      -9.071   2.987 133.416  0.00  0.00    +0.000 C 
BRANCH  38  39
ATOM     39  C   LIG A   1      -9.351   4.508 133.415  0.00  0.00    -0.000 C 
BRANCH  39  40
ATOM     40  C   LIG A   1      -8.175   5.192 134.007  0.00  0.00    -0.000 C 
BRANCH  40  41
ATOM     41  C   LIG A   1      -7.252   4.652 135.034  0.00  0.00    -0.000 C 
BRANCH  41  42
ATOM     42  C   LIG A   1      -5.685   3.938 134.719  0.00  0.00    -0.000 C 
BRANCH  42  43
ATOM     43  C   LIG A   1      -4.057   4.577 134.227  0.00  0.00    -0.000 C 
BRANCH  43  44
ATOM     44  C   LIG A   1      -3.568   6.346 133.715  0.00  0.00    -0.000 C 
BRANCH  44  45
ATOM     45  C   LIG A   1      -3.549   7.216 132.209  0.00  0.00    -0.000 C 
BRANCH  45  46
ATOM     46  C   LIG A   1      -4.816   7.279 130.996  0.00  0.00    -0.000 C 
BRANCH  46  47
ATOM     47  C   LIG A   1      -6.579   6.485 130.900  0.00  0.00    -0.000 C 
BRANCH  47  48
ATOM     48  C   LIG A   1      -7.122   4.748 130.468  0.00  0.00    -0.003 C 
ATOM     49  C   LIG A   1      -6.254   3.712 131.077  0.00  0.00    +0.004 C 
ENDBRANCH  47  48
ENDBRANCH  46  47
ENDBRANCH  45  46
ENDBRANCH  44  45
ENDBRANCH  43  44
ENDBRANCH  42  43
ENDBRANCH  41  42
ENDBRANCH  40  41
ENDBRANCH  39  40
ENDBRANCH  38  39
ENDBRANCH  37  38
ENDBRANCH  36  37
ENDBRANCH  35  36
ENDBRANCH  33  35
ENDBRANCH  32  33
ENDBRANCH  19  32
TORSDOF 21
ENDMDL
MODEL 7
REMARK VINA RESULT:     -10.3      2.377      6.937
REMARK  Name = NuBBE_1295
REMARK  29 active torsions:
REMARK  status: ('A' for Active; 'I' for Inactive)
REMARK    1  A    between atoms: C_2  and  C_3
REMARK    2  A    between atoms: C_2  and  C_6
REMARK    3  A    between atoms: C_3  and  C_4
REMARK    4  A    between atoms: C_3  and  C_5
REMARK    5  A    between atoms: C_6  and  C_7
REMARK    6  A    between atoms: C_7  and  C_8
REMARK    7  A    between atoms: C_8  and  C_10
REMARK    8  A    between atoms: C_8  and  C_52
REMARK    9  A    between atoms: C_14  and  C_15
REMARK   10  A    between atoms: C_24  and  C_25
REMARK   11  A    between atoms: C_29  and  O_34
REMARK   12  A    between atoms: C_31  and  C_32
REMARK   13  A    between atoms: C_31  and  C_33
REMARK   14  A    between atoms: O_34  and  C_35
REMARK   15  A    between atoms: C_35  and  C_36
REMARK   16  A    between atoms: C_36  and  C_37
REMARK   17  A    between atoms: C_37  and  C_38
REMARK   18  A    between atoms: C_38  and  C_39
REMARK   19  A    between atoms: C_39  and  C_40
REMARK   20  A    between atoms: C_40  and  C_41
REMARK   21  A    between atoms: C_41  and  C_42
REMARK   22  A    between atoms: C_42  and  C_43
REMARK   23  A    between atoms: C_43  and  C_44
REMARK   24  A    between atoms: C_44  and  C_45
REMARK   25  A    between atoms: C_45  and  C_46
REMARK   26  A    between atoms: C_46  and  C_47
REMARK   27  A    between atoms: C_47  and  C_48
REMARK   28  A    between atoms: C_48  and  C_49
REMARK   29  A    between atoms: C_49  and  C_50
REMARK                            x       y       z     vdW  Elec       q    Type
REMARK                         _______ _______ _______ _____ _____    ______ ____
ROOT
ATOM      1  C   LIG A   1      -6.974   1.942 131.012  0.00  0.00    -0.002 C 
ATOM      2  C   LIG A   1      -5.443   2.311 131.132  0.00  0.00    +0.005 C 
ATOM      3  C   LIG A   1      -4.712   1.145 130.535  0.00  0.00    +0.008 C 
ATOM      4  C   LIG A   1      -5.652  -0.106 130.568  0.00  0.00    -0.023 C 
ATOM      5  C   LIG A   1      -4.960  -1.108 131.433  0.00  0.00    +0.012 C 
ATOM      6  C   LIG A   1      -5.892  -0.819 129.026  0.00  0.00    +0.002 C 
ATOM      7  C   LIG A   1      -4.845  -1.684 128.371  0.00  0.00    +0.005 C 
ATOM      8  C   LIG A   1      -5.137  -1.859 126.832  0.00  0.00    +0.005 C 
ATOM      9  C   LIG A   1      -6.449  -2.613 126.386  0.00  0.00    +0.005 C 
ATOM     10  C   LIG A   1      -7.621  -2.385 127.314  0.00  0.00    -0.019 C 
ATOM     11  C   LIG A   1      -7.275  -1.566 128.749  0.00  0.00    -0.019 C 
ATOM     12  C   LIG A   1      -7.977  -1.767 130.022  0.00  0.00    +0.008 C 
ATOM     13  C   LIG A   1      -8.094  -0.434 130.743  0.00  0.00    +0.008 C 
ATOM     14  C   LIG A   1      -6.953   0.396 131.310  0.00  0.00    -0.023 C 
ATOM     15  C   LIG A   1      -7.020   0.430 132.922  0.00  0.00    +0.012 C 
ATOM     16  C   LIG A   1      -7.946  -1.021 127.559  0.00  0.00    +0.015 C 
ATOM     17  C   LIG A   1      -8.982  -2.952 126.763  0.00  0.00    +0.011 C 
ATOM     18  C   LIG A   1      -9.405  -2.321 125.368  0.00  0.00    +0.046 C 
ATOM     19  C   LIG A   1      -8.263  -1.811 124.457  0.00  0.00    +0.182 C 
ATOM     20  C   LIG A   1      -6.881  -2.541 124.822  0.00  0.00    +0.005 C 
ATOM     21  C   LIG A   1      -7.134  -4.039 124.406  0.00  0.00    +0.015 C 
ATOM     22  C   LIG A   1      -5.753  -2.054 123.901  0.00  0.00    +0.015 C 
ENDROOT
BRANCH   1  23
ATOM     23  C   LIG A   1      -8.289   2.655 129.922  0.00  0.00    -0.010 C 
ATOM     24  C   LIG A   1      -8.536   2.356 128.213  0.00  0.00    +0.008 C 
BRANCH  23  25
ATOM     25  C   LIG A   1      -9.639   3.863 130.096  0.00  0.00    +0.008 C 
BRANCH  25  26
ATOM     26  C   LIG A   1      -9.683   5.335 129.706  0.00  0.00    +0.030 C 
BRANCH  26  28
ATOM     27  C   LIG A   1     -10.243   7.573 129.686  0.00  0.00    +0.008 C 
ATOM     28  C   LIG A   1     -10.823   6.411 129.737  0.00  0.00    -0.074 C 
BRANCH  28  29
ATOM     29  C   LIG A   1     -12.358   6.501 129.774  0.00  0.00    +0.008 C 
ATOM     30  C   LIG A   1     -12.799   7.316 130.987  0.00  0.00    +0.012 C 
ATOM     31  C   LIG A   1     -13.127   7.026 128.532  0.00  0.00    +0.012 C 
ENDBRANCH  28  29
ENDBRANCH  26  28
ENDBRANCH  25  26
ENDBRANCH  23  25
ENDBRANCH   1  23
BRANCH  19  32
ATOM     32  O   LIG A   1      -8.403  -0.347 124.192  0.00  0.00    -0.461 OA
BRANCH  32  33
ATOM     33  C   LIG A   1      -9.334   0.292 123.691  0.00  0.00    +0.307 C 
ATOM     34  O   LIG A   1     -10.138  -0.465 122.612  0.00  0.00    -0.251 OA
BRANCH  33  35
ATOM     35  C   LIG A   1      -9.898   1.610 123.831  0.00  0.00    +0.120 C 
BRANCH  35  36
ATOM     36  C   LIG A   1      -8.936   2.636 124.450  0.00  0.00    +0.011 C 
BRANCH  36  37
ATOM     37  C   LIG A   1      -7.496   3.052 124.029  0.00  0.00    +0.000 C 
BRANCH  37  38
ATOM     38  C   LIG A   1      -6.398   3.049 125.043  0.00  0.00    +0.000 C 
BRANCH  38  39
ATOM     39  C   LIG A   1      -6.015   1.659 125.600  0.00  0.00    -0.000 C 
BRANCH  39  40
ATOM     40  C   LIG A   1      -5.086   1.860 126.739  0.00  0.00    -0.000 C 
BRANCH  40  41
ATOM     41  C   LIG A   1      -3.708   2.403 126.682  0.00  0.00    -0.000 C 
BRANCH  41  42
ATOM     42  C   LIG A   1      -3.264   4.080 126.913  0.00  0.00    -0.000 C 
BRANCH  42  43
ATOM     43  C   LIG A   1      -2.717   5.083 128.325  0.00  0.00    -0.000 C 
BRANCH  43  44
ATOM     44  C   LIG A   1      -3.057   4.824 130.182  0.00  0.00    -0.000 C 
BRANCH  44  45
ATOM     45  C   LIG A   1      -3.864   5.753 131.413  0.00  0.00    -0.000 C 
BRANCH  45  46
ATOM     46  C   LIG A   1      -5.486   6.422 131.355  0.00  0.00    -0.000 C 
BRANCH  46  47
ATOM     47  C   LIG A   1      -7.147   5.906 132.203  0.00  0.00    -0.000 C 
BRANCH  47  48
ATOM     48  C   LIG A   1      -7.500   5.268 133.926  0.00  0.00    -0.003 C 
ATOM     49  C   LIG A   1      -8.151   3.936 133.918  0.00  0.00    +0.004 C 
ENDBRANCH  47  48
ENDBRANCH  46  47
ENDBRANCH  45  46
ENDBRANCH  44  45
ENDBRANCH  43  44
ENDBRANCH  42  43
ENDBRANCH  41  42
ENDBRANCH  40  41
ENDBRANCH  39  40
ENDBRANCH  38  39
ENDBRANCH  37  38
ENDBRANCH  36  37
ENDBRANCH  35  36
ENDBRANCH  33  35
ENDBRANCH  32  33
ENDBRANCH  19  32
TORSDOF 21
ENDMDL
MODEL 8
REMARK VINA RESULT:     -10.2      1.835      7.927
REMARK  Name = NuBBE_1295
REMARK  29 active torsions:
REMARK  status: ('A' for Active; 'I' for Inactive)
REMARK    1  A    between atoms: C_2  and  C_3
REMARK    2  A    between atoms: C_2  and  C_6
REMARK    3  A    between atoms: C_3  and  C_4
REMARK    4  A    between atoms: C_3  and  C_5
REMARK    5  A    between atoms: C_6  and  C_7
REMARK    6  A    between atoms: C_7  and  C_8
REMARK    7  A    between atoms: C_8  and  C_10
REMARK    8  A    between atoms: C_8  and  C_52
REMARK    9  A    between atoms: C_14  and  C_15
REMARK   10  A    between atoms: C_24  and  C_25
REMARK   11  A    between atoms: C_29  and  O_34
REMARK   12  A    between atoms: C_31  and  C_32
REMARK   13  A    between atoms: C_31  and  C_33
REMARK   14  A    between atoms: O_34  and  C_35
REMARK   15  A    between atoms: C_35  and  C_36
REMARK   16  A    between atoms: C_36  and  C_37
REMARK   17  A    between atoms: C_37  and  C_38
REMARK   18  A    between atoms: C_38  and  C_39
REMARK   19  A    between atoms: C_39  and  C_40
REMARK   20  A    between atoms: C_40  and  C_41
REMARK   21  A    between atoms: C_41  and  C_42
REMARK   22  A    between atoms: C_42  and  C_43
REMARK   23  A    between atoms: C_43  and  C_44
REMARK   24  A    between atoms: C_44  and  C_45
REMARK   25  A    between atoms: C_45  and  C_46
REMARK   26  A    between atoms: C_46  and  C_47
REMARK   27  A    between atoms: C_47  and  C_48
REMARK   28  A    between atoms: C_48  and  C_49
REMARK   29  A    between atoms: C_49  and  C_50
REMARK                            x       y       z     vdW  Elec       q    Type
REMARK                         _______ _______ _______ _____ _____    ______ ____
ROOT
ATOM      1  C   LIG A   1      -3.554   6.151 128.697  0.00  0.00    -0.002 C 
ATOM      2  C   LIG A   1      -2.078   6.648 128.958  0.00  0.00    +0.005 C 
ATOM      3  C   LIG A   1      -1.762   6.214 130.359  0.00  0.00    +0.008 C 
ATOM      4  C   LIG A   1      -3.105   5.986 131.128  0.00  0.00    -0.023 C 
ATOM      5  C   LIG A   1      -3.097   6.964 132.255  0.00  0.00    +0.012 C 
ATOM      6  C   LIG A   1      -3.248   4.412 131.799  0.00  0.00    +0.002 C 
ATOM      7  C   LIG A   1      -2.517   4.007 133.053  0.00  0.00    +0.005 C 
ATOM      8  C   LIG A   1      -2.489   2.439 133.212  0.00  0.00    +0.005 C 
ATOM      9  C   LIG A   1      -3.851   1.668 133.413  0.00  0.00    +0.005 C 
ATOM     10  C   LIG A   1      -5.012   2.292 132.672  0.00  0.00    -0.019 C 
ATOM     11  C   LIG A   1      -4.708   3.789 131.954  0.00  0.00    -0.019 C 
ATOM     12  C   LIG A   1      -5.707   4.849 131.766  0.00  0.00    +0.008 C 
ATOM     13  C   LIG A   1      -5.441   5.556 130.447  0.00  0.00    +0.008 C 
ATOM     14  C   LIG A   1      -4.227   6.404 130.098  0.00  0.00    -0.023 C 
ATOM     15  C   LIG A   1      -4.647   7.952 129.921  0.00  0.00    +0.012 C 
ATOM     16  C   LIG A   1      -4.807   2.487 131.277  0.00  0.00    +0.015 C 
ATOM     17  C   LIG A   1      -6.317   1.413 132.691  0.00  0.00    +0.011 C 
ATOM     18  C   LIG A   1      -6.115  -0.026 132.048  0.00  0.00    +0.046 C 
ATOM     19  C   LIG A   1      -4.688  -0.619 132.101  0.00  0.00    +0.182 C 
ATOM     20  C   LIG A   1      -3.842   0.049 133.291  0.00  0.00    +0.005 C 
ATOM     21  C   LIG A   1      -4.572  -0.456 134.592  0.00  0.00    +0.015 C 
ATOM     22  C   LIG A   1      -2.434  -0.558 133.361  0.00  0.00    +0.015 C 
ENDROOT
BRANCH   1  23
ATOM     23  C   LIG A   1      -4.179   4.795 127.603  0.00  0.00    -0.010 C 
ATOM     24  C   LIG A   1      -3.343   3.327 127.140  0.00  0.00    +0.008 C 
BRANCH  23  25
ATOM     25  C   LIG A   1      -5.670   4.481 126.607  0.00  0.00    +0.008 C 
BRANCH  25  26
ATOM     26  C   LIG A   1      -6.954   3.754 126.982  0.00  0.00    +0.030 C 
BRANCH  26  28
ATOM     27  C   LIG A   1      -8.302   4.508 128.696  0.00  0.00    +0.008 C 
ATOM     28  C   LIG A   1      -7.638   3.443 128.358  0.00  0.00    -0.074 C 
BRANCH  28  29
ATOM     29  C   LIG A   1      -7.781   2.293 129.369  0.00  0.00    +0.008 C 
ATOM     30  C   LIG A   1      -8.980   2.549 130.278  0.00  0.00    +0.012 C 
ATOM     31  C   LIG A   1      -7.863   0.829 128.861  0.00  0.00    +0.012 C 
ENDBRANCH  28  29
ENDBRANCH  26  28
ENDBRANCH  25  26
ENDBRANCH  23  25
ENDBRANCH   1  23
BRANCH  19  32
ATOM     32  O   LIG A   1      -4.160  -0.871 130.726  0.00  0.00    -0.461 OA
BRANCH  32  33
ATOM     33  C   LIG A   1      -3.949  -1.932 130.130  0.00  0.00    +0.307 C 
ATOM     34  O   LIG A   1      -2.466  -2.360 130.066  0.00  0.00    -0.251 OA
BRANCH  33  35
ATOM     35  C   LIG A   1      -4.733  -2.922 129.437  0.00  0.00    +0.120 C 
BRANCH  35  36
ATOM     36  C   LIG A   1      -6.247  -2.664 129.489  0.00  0.00    +0.011 C 
BRANCH  36  37
ATOM     37  C   LIG A   1      -7.445  -3.627 129.235  0.00  0.00    +0.000 C 
BRANCH  37  38
ATOM     38  C   LIG A   1      -8.604  -3.165 128.414  0.00  0.00    +0.000 C 
BRANCH  38  39
ATOM     39  C   LIG A   1      -8.251  -2.648 127.000  0.00  0.00    -0.000 C 
BRANCH  39  40
ATOM     40  C   LIG A   1      -8.787  -3.613 126.010  0.00  0.00    -0.000 C 
BRANCH  40  41
ATOM     41  C   LIG A   1      -8.490  -3.660 124.558  0.00  0.00    -0.000 C 
BRANCH  41  42
ATOM     42  C   LIG A   1      -9.001  -2.475 123.375  0.00  0.00    -0.000 C 
BRANCH  42  43
ATOM     43  C   LIG A   1      -8.876  -0.670 123.228  0.00  0.00    -0.000 C 
BRANCH  43  44
ATOM     44  C   LIG A   1      -7.907   0.558 124.317  0.00  0.00    -0.000 C 
BRANCH  44  45
ATOM     45  C   LIG A   1      -6.650   0.398 125.510  0.00  0.00    -0.000 C 
BRANCH  45  46
ATOM     46  C   LIG A   1      -5.387  -0.819 125.575  0.00  0.00    -0.000 C 
BRANCH  46  47
ATOM     47  C   LIG A   1      -5.312  -2.661 124.986  0.00  0.00    -0.000 C 
BRANCH  47  48
ATOM     48  C   LIG A   1      -4.797  -3.408 123.349  0.00  0.00    -0.003 C 
ATOM     49  C   LIG A   1      -4.214  -4.763 123.500  0.00  0.00    +0.004 C 
ENDBRANCH  47  48
ENDBRANCH  46  47
ENDBRANCH  45  46
ENDBRANCH  44  45
ENDBRANCH  43  44
ENDBRANCH  42  43
ENDBRANCH  41  42
ENDBRANCH  40  41
ENDBRANCH  39  40
ENDBRANCH  38  39
ENDBRANCH  37  38
ENDBRANCH  36  37
ENDBRANCH  35  36
ENDBRANCH  33  35
ENDBRANCH  32  33
ENDBRANCH  19  32
TORSDOF 21
ENDMDL
MODEL 9
REMARK VINA RESULT:     -10.2      2.041      3.891
REMARK  Name = NuBBE_1295
REMARK  29 active torsions:
REMARK  status: ('A' for Active; 'I' for Inactive)
REMARK    1  A    between atoms: C_2  and  C_3
REMARK    2  A    between atoms: C_2  and  C_6
REMARK    3  A    between atoms: C_3  and  C_4
REMARK    4  A    between atoms: C_3  and  C_5
REMARK    5  A    between atoms: C_6  and  C_7
REMARK    6  A    between atoms: C_7  and  C_8
REMARK    7  A    between atoms: C_8  and  C_10
REMARK    8  A    between atoms: C_8  and  C_52
REMARK    9  A    between atoms: C_14  and  C_15
REMARK   10  A    between atoms: C_24  and  C_25
REMARK   11  A    between atoms: C_29  and  O_34
REMARK   12  A    between atoms: C_31  and  C_32
REMARK   13  A    between atoms: C_31  and  C_33
REMARK   14  A    between atoms: O_34  and  C_35
REMARK   15  A    between atoms: C_35  and  C_36
REMARK   16  A    between atoms: C_36  and  C_37
REMARK   17  A    between atoms: C_37  and  C_38
REMARK   18  A    between atoms: C_38  and  C_39
REMARK   19  A    between atoms: C_39  and  C_40
REMARK   20  A    between atoms: C_40  and  C_41
REMARK   21  A    between atoms: C_41  and  C_42
REMARK   22  A    between atoms: C_42  and  C_43
REMARK   23  A    between atoms: C_43  and  C_44
REMARK   24  A    between atoms: C_44  and  C_45
REMARK   25  A    between atoms: C_45  and  C_46
REMARK   26  A    between atoms: C_46  and  C_47
REMARK   27  A    between atoms: C_47  and  C_48
REMARK   28  A    between atoms: C_48  and  C_49
REMARK   29  A    between atoms: C_49  and  C_50
REMARK                            x       y       z     vdW  Elec       q    Type
REMARK                         _______ _______ _______ _____ _____    ______ ____
ROOT
ATOM      1  C   LIG A   1      -7.663   0.488 124.835  0.00  0.00    -0.002 C 
ATOM      2  C   LIG A   1      -9.190   0.146 124.621  0.00  0.00    +0.005 C 
ATOM      3  C   LIG A   1      -9.406  -1.148 125.348  0.00  0.00    +0.008 C 
ATOM      4  C   LIG A   1      -8.026  -1.868 125.511  0.00  0.00    -0.023 C 
ATOM      5  C   LIG A   1      -8.152  -3.157 124.770  0.00  0.00    +0.012 C 
ATOM      6  C   LIG A   1      -7.637  -2.235 127.143  0.00  0.00    +0.002 C 
ATOM      7  C   LIG A   1      -8.271  -3.389 127.877  0.00  0.00    +0.005 C 
ATOM      8  C   LIG A   1      -8.064  -3.253 129.433  0.00  0.00    +0.005 C 
ATOM      9  C   LIG A   1      -6.599  -3.314 130.015  0.00  0.00    +0.005 C 
ATOM     10  C   LIG A   1      -5.560  -2.707 129.100  0.00  0.00    -0.019 C 
ATOM     11  C   LIG A   1      -6.098  -2.279 127.559  0.00  0.00    -0.019 C 
ATOM     12  C   LIG A   1      -5.271  -2.295 126.345  0.00  0.00    +0.008 C 
ATOM     13  C   LIG A   1      -5.669  -1.129 125.454  0.00  0.00    +0.008 C 
ATOM     14  C   LIG A   1      -7.002  -0.939 124.747  0.00  0.00    -0.023 C 
ATOM     15  C   LIG A   1      -6.820  -1.054 123.149  0.00  0.00    +0.012 C 
ATOM     16  C   LIG A   1      -5.824  -1.371 128.683  0.00  0.00    +0.015 C 
ATOM     17  C   LIG A   1      -4.139  -2.568 129.763  0.00  0.00    +0.011 C 
ATOM     18  C   LIG A   1      -4.142  -1.668 131.072  0.00  0.00    +0.046 C 
ATOM     19  C   LIG A   1      -5.465  -1.604 131.871  0.00  0.00    +0.182 C 
ATOM     20  C   LIG A   1      -6.372  -2.893 131.567  0.00  0.00    +0.005 C 
ATOM     21  C   LIG A   1      -5.545  -4.081 132.189  0.00  0.00    +0.015 C 
ATOM     22  C   LIG A   1      -7.673  -2.842 132.381  0.00  0.00    +0.015 C 
ENDROOT
BRANCH   1  23
ATOM     23  C   LIG A   1      -6.870   1.812 125.858  0.00  0.00    -0.010 C 
ATOM     24  C   LIG A   1      -7.286   2.291 127.491  0.00  0.00    +0.008 C 
BRANCH  23  25
ATOM     25  C   LIG A   1      -5.573   3.067 125.621  0.00  0.00    +0.008 C 
BRANCH  25  26
ATOM     26  C   LIG A   1      -4.101   3.028 126.009  0.00  0.00    +0.030 C 
BRANCH  26  28
ATOM     27  C   LIG A   1      -2.090   3.125 127.136  0.00  0.00    +0.008 C 
ATOM     28  C   LIG A   1      -3.363   3.049 127.392  0.00  0.00    -0.074 C 
BRANCH  28  29
ATOM     29  C   LIG A   1      -3.679   3.040 128.896  0.00  0.00    +0.008 C 
ATOM     30  C   LIG A   1      -4.686   4.139 129.220  0.00  0.00    +0.012 C 
ATOM     31  C   LIG A   1      -4.162   1.728 129.571  0.00  0.00    +0.012 C 
ENDBRANCH  28  29
ENDBRANCH  26  28
ENDBRANCH  25  26
ENDBRANCH  23  25
ENDBRANCH   1  23
BRANCH  19  32
ATOM     32  O   LIG A   1      -5.982  -0.203 131.941  0.00  0.00    -0.461 OA
BRANCH  32  33
ATOM     33  C   LIG A   1      -6.102   0.559 132.905  0.00  0.00    +0.307 C 
ATOM     34  O   LIG A   1      -6.551  -0.116 134.219  0.00  0.00    -0.251 OA
BRANCH  33  35
ATOM     35  C   LIG A   1      -5.946   1.970 133.155  0.00  0.00    +0.120 C 
BRANCH  35  36
ATOM     36  C   LIG A   1      -4.614   2.337 133.829  0.00  0.00    +0.011 C 
BRANCH  36  37
ATOM     37  C   LIG A   1      -3.193   2.525 133.220  0.00  0.00    +0.000 C 
BRANCH  37  38
ATOM     38  C   LIG A   1      -2.874   3.766 132.452  0.00  0.00    +0.000 C 
BRANCH  38  39
ATOM     39  C   LIG A   1      -1.418   4.268 132.579  0.00  0.00    -0.000 C 
BRANCH  39  40
ATOM     40  C   LIG A   1      -1.393   5.705 132.212  0.00  0.00    -0.000 C 
BRANCH  40  41
ATOM     41  C   LIG A   1      -1.637   6.288 130.871  0.00  0.00    -0.000 C 
BRANCH  41  42
ATOM     42  C   LIG A   1      -3.049   7.210 130.403  0.00  0.00    -0.000 C 
BRANCH  42  43
ATOM     43  C   LIG A   1      -4.779   7.281 130.953  0.00  0.00    -0.000 C 
BRANCH  43  44
ATOM     44  C   LIG A   1      -5.665   6.216 132.263  0.00  0.00    -0.000 C 
BRANCH  44  45
ATOM     45  C   LIG A   1      -5.438   5.944 133.966  0.00  0.00    -0.000 C 
BRANCH  45  46
ATOM     46  C   LIG A   1      -4.146   6.557 134.983  0.00  0.00    -0.000 C 
BRANCH  46  47
ATOM     47  C   LIG A   1      -2.667   7.757 134.641  0.00  0.00    -0.000 C 
BRANCH  47  48
ATOM     48  C   LIG A   1      -2.473   9.148 133.405  0.00  0.00    -0.003 C 
ATOM     49  C   LIG A   1      -1.062   9.573 133.242  0.00  0.00    +0.004 C 
ENDBRANCH  47  48
ENDBRANCH  46  47
ENDBRANCH  45  46
ENDBRANCH  44  45
ENDBRANCH  43  44
ENDBRANCH  42  43
ENDBRANCH  41  42
ENDBRANCH  40  41
ENDBRANCH  39  40
ENDBRANCH  38  39
ENDBRANCH  37  38
ENDBRANCH  36  37
ENDBRANCH  35  36
ENDBRANCH  33  35
ENDBRANCH  32  33
ENDBRANCH  19  32
TORSDOF 21
ENDMDL
