MODEL 1
REMARK VINA RESULT:      -8.1      0.000      0.000
REMARK  Name = NuBBE_2519
REMARK  7 active torsions:
REMARK  status: ('A' for Active; 'I' for Inactive)
REMARK    1  A    between atoms: C_1  and  C_2
REMARK    2  A    between atoms: C_1  and  C_4
REMARK    3  A    between atoms: C_5  and  O_6
REMARK    4  A    between atoms: C_9  and  C_14
REMARK    5  A    between atoms: C_11  and  C_13
REMARK    6  A    between atoms: C_23  and  O_28
REMARK    7  A    between atoms: O_28  and  C_29
REMARK                            x       y       z     vdW  Elec       q    Type
REMARK                         _______ _______ _______ _____ _____    ______ ____
ROOT
ATOM      1  C   LIG A   1      -6.801  -2.123 123.942  0.00  0.00    +0.010 C 
ATOM      2  C   LIG A   1      -6.480  -0.920 124.850  0.00  0.00    +0.128 C 
ATOM      3  C   LIG A   1      -7.783  -0.795 125.640  0.00  0.00    +0.062 C 
ATOM      4  C   LIG A   1      -7.992  -2.247 126.143  0.00  0.00    +0.031 C 
ATOM      5  C   LIG A   1      -7.406  -3.133 124.982  0.00  0.00    +0.003 C 
ATOM      6  C   LIG A   1      -8.450  -4.109 124.431  0.00  0.00    +0.009 C 
ATOM      7  C   LIG A   1      -8.954  -0.285 124.755  0.00  0.00    +0.190 C 
ATOM      8  C   LIG A   1      -9.046  -1.054 123.442  0.00  0.00    +0.163 C 
ATOM      9  O   LIG A   1     -10.108  -1.110 122.819  0.00  0.00    -0.295 OA
ATOM     10  C   LIG A   1      -7.804  -1.658 122.859  0.00  0.00    +0.087 C 
ENDROOT
BRANCH   4  11
ATOM     11  C   LIG A   1      -7.329  -2.557 127.494  0.00  0.00    -0.040 A 
ATOM     12  C   LIG A   1      -5.952  -2.377 127.727  0.00  0.00    +0.053 A 
ATOM     13  C   LIG A   1      -5.433  -2.669 128.971  0.00  0.00    +0.167 A 
ATOM     14  C   LIG A   1      -6.217  -3.129 129.994  0.00  0.00    +0.166 A 
ATOM     15  C   LIG A   1      -7.571  -3.314 129.827  0.00  0.00    +0.050 A 
ATOM     16  C   LIG A   1      -8.126  -3.020 128.571  0.00  0.00    +0.008 A 
ATOM     17  O   LIG A   1      -5.501  -3.357 131.126  0.00  0.00    -0.453 OA
ATOM     18  C   LIG A   1      -4.170  -3.012 130.682  0.00  0.00    +0.466 C 
ATOM     19  O   LIG A   1      -4.126  -2.542 129.320  0.00  0.00    -0.453 OA
ENDBRANCH   4  11
BRANCH   2  20
ATOM     20  O   LIG A   1      -6.133   0.232 124.115  0.00  0.00    -0.391 OA
ATOM     21  H   LIG A   1      -5.530   0.767 124.667  0.00  0.00    +0.210 HD
ENDBRANCH   2  20
BRANCH   7  22
ATOM     22  O   LIG A   1      -8.805   1.126 124.654  0.00  0.00    -0.372 OA
ATOM     23  C   LIG A   1      -8.728   1.764 125.923  0.00  0.00    +0.195 C 
ENDBRANCH   7  22
BRANCH   1  24
ATOM     24  C   LIG A   1      -5.492  -2.638 123.285  0.00  0.00    +0.036 C 
BRANCH  24  25
ATOM     25  C   LIG A   1      -4.765  -3.717 124.041  0.00  0.00    -0.034 C 
ATOM     26  C   LIG A   1      -4.323  -4.854 123.492  0.00  0.00    +0.004 C 
ENDBRANCH  24  25
ENDBRANCH   1  24
TORSDOF 5
ENDMDL
MODEL 2
REMARK VINA RESULT:      -8.0      1.377      1.468
REMARK  Name = NuBBE_2519
REMARK  7 active torsions:
REMARK  status: ('A' for Active; 'I' for Inactive)
REMARK    1  A    between atoms: C_1  and  C_2
REMARK    2  A    between atoms: C_1  and  C_4
REMARK    3  A    between atoms: C_5  and  O_6
REMARK    4  A    between atoms: C_9  and  C_14
REMARK    5  A    between atoms: C_11  and  C_13
REMARK    6  A    between atoms: C_23  and  O_28
REMARK    7  A    between atoms: O_28  and  C_29
REMARK                            x       y       z     vdW  Elec       q    Type
REMARK                         _______ _______ _______ _____ _____    ______ ____
ROOT
ATOM      1  C   LIG A   1      -7.406  -1.738 123.706  0.00  0.00    +0.010 C 
ATOM      2  C   LIG A   1      -7.021  -0.628 124.702  0.00  0.00    +0.128 C 
ATOM      3  C   LIG A   1      -8.374  -0.336 125.352  0.00  0.00    +0.062 C 
ATOM      4  C   LIG A   1      -8.847  -1.756 125.756  0.00  0.00    +0.031 C 
ATOM      5  C   LIG A   1      -8.266  -2.681 124.623  0.00  0.00    +0.003 C 
ATOM      6  C   LIG A   1      -9.370  -3.471 123.913  0.00  0.00    +0.009 C 
ATOM      7  C   LIG A   1      -9.349   0.373 124.373  0.00  0.00    +0.190 C 
ATOM      8  C   LIG A   1      -9.400  -0.329 123.020  0.00  0.00    +0.163 C 
ATOM      9  O   LIG A   1     -10.381  -0.205 122.283  0.00  0.00    -0.295 OA
ATOM     10  C   LIG A   1      -8.200  -1.092 122.545  0.00  0.00    +0.087 C 
ENDROOT
BRANCH   4  11
ATOM     11  C   LIG A   1      -8.395  -2.207 127.154  0.00  0.00    -0.040 A 
ATOM     12  C   LIG A   1      -7.701  -1.363 128.041  0.00  0.00    +0.053 A 
ATOM     13  C   LIG A   1      -7.338  -1.838 129.283  0.00  0.00    +0.167 A 
ATOM     14  C   LIG A   1      -7.633  -3.113 129.686  0.00  0.00    +0.166 A 
ATOM     15  C   LIG A   1      -8.318  -3.979 128.865  0.00  0.00    +0.050 A 
ATOM     16  C   LIG A   1      -8.703  -3.519 127.596  0.00  0.00    +0.008 A 
ATOM     17  O   LIG A   1      -7.177  -3.373 130.940  0.00  0.00    -0.453 OA
ATOM     18  C   LIG A   1      -6.538  -2.118 131.264  0.00  0.00    +0.466 C 
ATOM     19  O   LIG A   1      -6.665  -1.127 130.225  0.00  0.00    -0.453 OA
ENDBRANCH   4  11
BRANCH   2  20
ATOM     20  O   LIG A   1      -6.429   0.484 124.069  0.00  0.00    -0.391 OA
ATOM     21  H   LIG A   1      -7.135   0.976 123.608  0.00  0.00    +0.210 HD
ENDBRANCH   2  20
BRANCH   7  22
ATOM     22  O   LIG A   1      -8.987   1.748 124.359  0.00  0.00    -0.372 OA
ATOM     23  C   LIG A   1      -9.154   2.349 123.081  0.00  0.00    +0.195 C 
ENDBRANCH   7  22
BRANCH   1  24
ATOM     24  C   LIG A   1      -6.119  -2.421 123.170  0.00  0.00    +0.036 C 
BRANCH  24  25
ATOM     25  C   LIG A   1      -5.518  -3.471 124.065  0.00  0.00    -0.034 C 
ATOM     26  C   LIG A   1      -4.454  -4.215 123.742  0.00  0.00    +0.004 C 
ENDBRANCH  24  25
ENDBRANCH   1  24
TORSDOF 5
ENDMDL
MODEL 3
REMARK VINA RESULT:      -7.1      8.160     10.847
REMARK  Name = NuBBE_2519
REMARK  7 active torsions:
REMARK  status: ('A' for Active; 'I' for Inactive)
REMARK    1  A    between atoms: C_1  and  C_2
REMARK    2  A    between atoms: C_1  and  C_4
REMARK    3  A    between atoms: C_5  and  O_6
REMARK    4  A    between atoms: C_9  and  C_14
REMARK    5  A    between atoms: C_11  and  C_13
REMARK    6  A    between atoms: C_23  and  O_28
REMARK    7  A    between atoms: O_28  and  C_29
REMARK                            x       y       z     vdW  Elec       q    Type
REMARK                         _______ _______ _______ _____ _____    ______ ____
ROOT
ATOM      1  C   LIG A   1      -3.918   5.446 130.048  0.00  0.00    +0.010 C 
ATOM      2  C   LIG A   1      -4.507   4.401 131.015  0.00  0.00    +0.128 C 
ATOM      3  C   LIG A   1      -4.604   5.219 132.304  0.00  0.00    +0.062 C 
ATOM      4  C   LIG A   1      -5.349   6.490 131.820  0.00  0.00    +0.031 C 
ATOM      5  C   LIG A   1      -4.838   6.684 130.344  0.00  0.00    +0.003 C 
ATOM      6  C   LIG A   1      -4.189   8.057 130.144  0.00  0.00    +0.009 C 
ATOM      7  C   LIG A   1      -3.205   5.527 132.904  0.00  0.00    +0.190 C 
ATOM      8  C   LIG A   1      -2.243   6.063 131.849  0.00  0.00    +0.163 C 
ATOM      9  O   LIG A   1      -1.271   6.748 132.174  0.00  0.00    -0.295 OA
ATOM     10  C   LIG A   1      -2.431   5.663 130.417  0.00  0.00    +0.087 C 
ENDROOT
BRANCH   4  11
ATOM     11  C   LIG A   1      -6.882   6.399 131.890  0.00  0.00    -0.040 A 
ATOM     12  C   LIG A   1      -7.723   6.905 130.882  0.00  0.00    +0.053 A 
ATOM     13  C   LIG A   1      -9.089   6.775 131.012  0.00  0.00    +0.167 A 
ATOM     14  C   LIG A   1      -9.659   6.165 132.097  0.00  0.00    +0.166 A 
ATOM     15  C   LIG A   1      -8.886   5.642 133.108  0.00  0.00    +0.050 A 
ATOM     16  C   LIG A   1      -7.491   5.757 132.998  0.00  0.00    +0.008 A 
ATOM     17  O   LIG A   1     -11.016   6.154 132.024  0.00  0.00    -0.453 OA
ATOM     18  C   LIG A   1     -11.230   6.854 130.778  0.00  0.00    +0.466 C 
ATOM     19  O   LIG A   1     -10.005   7.223 130.114  0.00  0.00    -0.453 OA
ENDBRANCH   4  11
BRANCH   2  20
ATOM     20  O   LIG A   1      -3.703   3.248 131.118  0.00  0.00    -0.391 OA
ATOM     21  H   LIG A   1      -3.259   3.270 131.988  0.00  0.00    +0.210 HD
ENDBRANCH   2  20
BRANCH   7  22
ATOM     22  O   LIG A   1      -2.793   4.358 133.602  0.00  0.00    -0.372 OA
ATOM     23  C   LIG A   1      -3.667   4.018 134.671  0.00  0.00    +0.195 C 
ENDBRANCH   7  22
BRANCH   1  24
ATOM     24  C   LIG A   1      -4.046   4.929 128.589  0.00  0.00    +0.036 C 
BRANCH  24  25
ATOM     25  C   LIG A   1      -2.751   4.767 127.840  0.00  0.00    -0.034 C 
ATOM     26  C   LIG A   1      -2.321   3.611 127.321  0.00  0.00    +0.004 C 
ENDBRANCH  24  25
ENDBRANCH   1  24
TORSDOF 5
ENDMDL
MODEL 4
REMARK VINA RESULT:      -7.0      1.581      2.220
REMARK  Name = NuBBE_2519
REMARK  7 active torsions:
REMARK  status: ('A' for Active; 'I' for Inactive)
REMARK    1  A    between atoms: C_1  and  C_2
REMARK    2  A    between atoms: C_1  and  C_4
REMARK    3  A    between atoms: C_5  and  O_6
REMARK    4  A    between atoms: C_9  and  C_14
REMARK    5  A    between atoms: C_11  and  C_13
REMARK    6  A    between atoms: C_23  and  O_28
REMARK    7  A    between atoms: O_28  and  C_29
REMARK                            x       y       z     vdW  Elec       q    Type
REMARK                         _______ _______ _______ _____ _____    ______ ____
ROOT
ATOM      1  C   LIG A   1      -6.539  -1.395 125.519  0.00  0.00    +0.010 C 
ATOM      2  C   LIG A   1      -6.195  -0.400 126.643  0.00  0.00    +0.128 C 
ATOM      3  C   LIG A   1      -7.514  -0.366 127.417  0.00  0.00    +0.062 C 
ATOM      4  C   LIG A   1      -7.796  -1.876 127.632  0.00  0.00    +0.031 C 
ATOM      5  C   LIG A   1      -7.213  -2.554 126.337  0.00  0.00    +0.003 C 
ATOM      6  C   LIG A   1      -8.279  -3.362 125.591  0.00  0.00    +0.009 C 
ATOM      7  C   LIG A   1      -8.637   0.352 126.621  0.00  0.00    +0.190 C 
ATOM      8  C   LIG A   1      -8.723  -0.151 125.184  0.00  0.00    +0.163 C 
ATOM      9  O   LIG A   1      -9.769  -0.041 124.540  0.00  0.00    -0.295 OA
ATOM     10  C   LIG A   1      -7.491  -0.690 124.523  0.00  0.00    +0.087 C 
ENDROOT
BRANCH   4  11
ATOM     11  C   LIG A   1      -7.184  -2.464 128.914  0.00  0.00    -0.040 A 
ATOM     12  C   LIG A   1      -7.826  -2.402 130.164  0.00  0.00    +0.053 A 
ATOM     13  C   LIG A   1      -7.217  -2.962 131.267  0.00  0.00    +0.167 A 
ATOM     14  C   LIG A   1      -6.000  -3.584 131.185  0.00  0.00    +0.166 A 
ATOM     15  C   LIG A   1      -5.330  -3.684 129.987  0.00  0.00    +0.050 A 
ATOM     16  C   LIG A   1      -5.931  -3.124 128.847  0.00  0.00    +0.008 A 
ATOM     17  O   LIG A   1      -5.584  -4.057 132.389  0.00  0.00    -0.453 OA
ATOM     18  C   LIG A   1      -6.673  -3.634 133.240  0.00  0.00    +0.466 C 
ATOM     19  O   LIG A   1      -7.730  -2.965 132.525  0.00  0.00    -0.453 OA
ENDBRANCH   4  11
BRANCH   2  20
ATOM     20  O   LIG A   1      -5.781   0.853 126.147  0.00  0.00    -0.391 OA
ATOM     21  H   LIG A   1      -6.065   0.913 125.215  0.00  0.00    +0.210 HD
ENDBRANCH   2  20
BRANCH   7  22
ATOM     22  O   LIG A   1      -8.429   1.749 126.791  0.00  0.00    -0.372 OA
ATOM     23  C   LIG A   1      -8.403   2.140 128.158  0.00  0.00    +0.195 C 
ENDBRANCH   7  22
BRANCH   1  24
ATOM     24  C   LIG A   1      -5.233  -1.836 124.803  0.00  0.00    +0.036 C 
BRANCH  24  25
ATOM     25  C   LIG A   1      -5.401  -2.871 123.724  0.00  0.00    -0.034 C 
ATOM     26  C   LIG A   1      -4.586  -3.919 123.553  0.00  0.00    +0.004 C 
ENDBRANCH  24  25
ENDBRANCH   1  24
TORSDOF 5
ENDMDL
MODEL 5
REMARK VINA RESULT:      -7.0      7.582      9.948
REMARK  Name = NuBBE_2519
REMARK  7 active torsions:
REMARK  status: ('A' for Active; 'I' for Inactive)
REMARK    1  A    between atoms: C_1  and  C_2
REMARK    2  A    between atoms: C_1  and  C_4
REMARK    3  A    between atoms: C_5  and  O_6
REMARK    4  A    between atoms: C_9  and  C_14
REMARK    5  A    between atoms: C_11  and  C_13
REMARK    6  A    between atoms: C_23  and  O_28
REMARK    7  A    between atoms: O_28  and  C_29
REMARK                            x       y       z     vdW  Elec       q    Type
REMARK                         _______ _______ _______ _____ _____    ______ ____
ROOT
ATOM      1  C   LIG A   1      -9.372   4.307 130.615  0.00  0.00    +0.010 C 
ATOM      2  C   LIG A   1      -8.710   5.292 129.633  0.00  0.00    +0.128 C 
ATOM      3  C   LIG A   1      -8.817   6.602 130.416  0.00  0.00    +0.062 C 
ATOM      4  C   LIG A   1      -8.226   6.199 131.792  0.00  0.00    +0.031 C 
ATOM      5  C   LIG A   1      -8.657   4.694 131.959  0.00  0.00    +0.003 C 
ATOM      6  C   LIG A   1      -9.477   4.476 133.234  0.00  0.00    +0.009 C 
ATOM      7  C   LIG A   1     -10.283   7.105 130.510  0.00  0.00    +0.190 C 
ATOM      8  C   LIG A   1     -11.236   5.995 130.939  0.00  0.00    +0.163 C 
ATOM      9  O   LIG A   1     -12.314   6.263 131.473  0.00  0.00    -0.295 OA
ATOM     10  C   LIG A   1     -10.897   4.572 130.612  0.00  0.00    +0.087 C 
ENDROOT
BRANCH   4  11
ATOM     11  C   LIG A   1      -6.704   6.377 131.911  0.00  0.00    -0.040 A 
ATOM     12  C   LIG A   1      -5.952   5.824 132.964  0.00  0.00    +0.053 A 
ATOM     13  C   LIG A   1      -4.588   6.020 132.996  0.00  0.00    +0.167 A 
ATOM     14  C   LIG A   1      -3.935   6.738 132.030  0.00  0.00    +0.166 A 
ATOM     15  C   LIG A   1      -4.618   7.292 130.972  0.00  0.00    +0.050 A 
ATOM     16  C   LIG A   1      -6.008   7.105 130.913  0.00  0.00    +0.008 A 
ATOM     17  O   LIG A   1      -2.598   6.811 132.261  0.00  0.00    -0.453 OA
ATOM     18  C   LIG A   1      -2.494   6.077 133.501  0.00  0.00    +0.466 C 
ATOM     19  O   LIG A   1      -3.752   5.544 133.957  0.00  0.00    -0.453 OA
ENDBRANCH   4  11
BRANCH   2  20
ATOM     20  O   LIG A   1      -9.350   5.314 128.376  0.00  0.00    -0.391 OA
ATOM     21  H   LIG A   1      -8.731   5.709 127.733  0.00  0.00    +0.210 HD
ENDBRANCH   2  20
BRANCH   7  22
ATOM     22  O   LIG A   1     -10.574   7.747 129.274  0.00  0.00    -0.372 OA
ATOM     23  C   LIG A   1     -11.785   8.493 129.312  0.00  0.00    +0.195 C 
ENDBRANCH   7  22
BRANCH   1  24
ATOM     24  C   LIG A   1      -9.073   2.851 130.165  0.00  0.00    +0.036 C 
BRANCH  24  25
ATOM     25  C   LIG A   1      -8.624   1.913 131.252  0.00  0.00    -0.034 C 
ATOM     26  C   LIG A   1      -9.377   0.927 131.755  0.00  0.00    +0.004 C 
ENDBRANCH  24  25
ENDBRANCH   1  24
TORSDOF 5
ENDMDL
MODEL 6
REMARK VINA RESULT:      -6.9      7.882     10.258
REMARK  Name = NuBBE_2519
REMARK  7 active torsions:
REMARK  status: ('A' for Active; 'I' for Inactive)
REMARK    1  A    between atoms: C_1  and  C_2
REMARK    2  A    between atoms: C_1  and  C_4
REMARK    3  A    between atoms: C_5  and  O_6
REMARK    4  A    between atoms: C_9  and  C_14
REMARK    5  A    between atoms: C_11  and  C_13
REMARK    6  A    between atoms: C_23  and  O_28
REMARK    7  A    between atoms: O_28  and  C_29
REMARK                            x       y       z     vdW  Elec       q    Type
REMARK                         _______ _______ _______ _____ _____    ______ ____
ROOT
ATOM      1  C   LIG A   1      -8.197   4.292 132.005  0.00  0.00    +0.010 C 
ATOM      2  C   LIG A   1      -7.696   4.651 130.594  0.00  0.00    +0.128 C 
ATOM      3  C   LIG A   1      -7.664   6.178 130.675  0.00  0.00    +0.062 C 
ATOM      4  C   LIG A   1      -6.861   6.411 131.981  0.00  0.00    +0.031 C 
ATOM      5  C   LIG A   1      -7.271   5.197 132.894  0.00  0.00    +0.003 C 
ATOM      6  C   LIG A   1      -7.875   5.664 134.222  0.00  0.00    +0.009 C 
ATOM      7  C   LIG A   1      -9.092   6.788 130.723  0.00  0.00    +0.190 C 
ATOM      8  C   LIG A   1      -9.971   6.087 131.753  0.00  0.00    +0.163 C 
ATOM      9  O   LIG A   1     -10.946   6.660 132.242  0.00  0.00    -0.295 OA
ATOM     10  C   LIG A   1      -9.700   4.652 132.090  0.00  0.00    +0.087 C 
ENDROOT
BRANCH   4  11
ATOM     11  C   LIG A   1      -5.339   6.497 131.789  0.00  0.00    -0.040 A 
ATOM     12  C   LIG A   1      -4.426   5.812 132.612  0.00  0.00    +0.053 A 
ATOM     13  C   LIG A   1      -3.074   5.931 132.370  0.00  0.00    +0.167 A 
ATOM     14  C   LIG A   1      -2.586   6.699 131.347  0.00  0.00    +0.166 A 
ATOM     15  C   LIG A   1      -3.432   7.383 130.503  0.00  0.00    +0.050 A 
ATOM     16  C   LIG A   1      -4.814   7.275 130.726  0.00  0.00    +0.008 A 
ATOM     17  O   LIG A   1      -1.228   6.680 131.294  0.00  0.00    -0.453 OA
ATOM     18  C   LIG A   1      -0.923   5.831 132.423  0.00  0.00    +0.466 C 
ATOM     19  O   LIG A   1      -2.095   5.326 133.092  0.00  0.00    -0.453 OA
ENDBRANCH   4  11
BRANCH   2  20
ATOM     20  O   LIG A   1      -8.530   4.141 129.578  0.00  0.00    -0.391 OA
ATOM     21  H   LIG A   1      -8.878   3.280 129.882  0.00  0.00    +0.210 HD
ENDBRANCH   2  20
BRANCH   7  22
ATOM     22  O   LIG A   1      -9.574   6.806 129.385  0.00  0.00    -0.372 OA
ATOM     23  C   LIG A   1     -10.350   7.961 129.095  0.00  0.00    +0.195 C 
ENDBRANCH   7  22
BRANCH   1  24
ATOM     24  C   LIG A   1      -7.987   2.774 132.257  0.00  0.00    +0.036 C 
BRANCH  24  25
ATOM     25  C   LIG A   1      -9.241   1.943 132.307  0.00  0.00    -0.034 C 
ATOM     26  C   LIG A   1      -9.343   0.704 131.813  0.00  0.00    +0.004 C 
ENDBRANCH  24  25
ENDBRANCH   1  24
TORSDOF 5
ENDMDL
MODEL 7
REMARK VINA RESULT:      -6.8      2.961      5.517
REMARK  Name = NuBBE_2519
REMARK  7 active torsions:
REMARK  status: ('A' for Active; 'I' for Inactive)
REMARK    1  A    between atoms: C_1  and  C_2
REMARK    2  A    between atoms: C_1  and  C_4
REMARK    3  A    between atoms: C_5  and  O_6
REMARK    4  A    between atoms: C_9  and  C_14
REMARK    5  A    between atoms: C_11  and  C_13
REMARK    6  A    between atoms: C_23  and  O_28
REMARK    7  A    between atoms: O_28  and  C_29
REMARK                            x       y       z     vdW  Elec       q    Type
REMARK                         _______ _______ _______ _____ _____    ______ ____
ROOT
ATOM      1  C   LIG A   1      -6.954   3.323 126.318  0.00  0.00    +0.010 C 
ATOM      2  C   LIG A   1      -8.291   2.910 125.673  0.00  0.00    +0.128 C 
ATOM      3  C   LIG A   1      -7.799   2.079 124.487  0.00  0.00    +0.062 C 
ATOM      4  C   LIG A   1      -6.812   1.099 125.173  0.00  0.00    +0.031 C 
ATOM      5  C   LIG A   1      -6.195   1.948 126.346  0.00  0.00    +0.003 C 
ATOM      6  C   LIG A   1      -4.669   2.029 126.245  0.00  0.00    +0.009 C 
ATOM      7  C   LIG A   1      -7.124   2.959 123.401  0.00  0.00    +0.190 C 
ATOM      8  C   LIG A   1      -6.106   3.921 124.004  0.00  0.00    +0.163 C 
ATOM      9  O   LIG A   1      -5.189   4.377 123.319  0.00  0.00    -0.295 OA
ATOM     10  C   LIG A   1      -6.292   4.391 125.415  0.00  0.00    +0.087 C 
ENDROOT
BRANCH   4  11
ATOM     11  C   LIG A   1      -7.452  -0.203 125.681  0.00  0.00    -0.040 A 
ATOM     12  C   LIG A   1      -7.279  -0.675 126.995  0.00  0.00    +0.053 A 
ATOM     13  C   LIG A   1      -7.895  -1.847 127.379  0.00  0.00    +0.167 A 
ATOM     14  C   LIG A   1      -8.677  -2.571 126.519  0.00  0.00    +0.166 A 
ATOM     15  C   LIG A   1      -8.890  -2.152 125.226  0.00  0.00    +0.050 A 
ATOM     16  C   LIG A   1      -8.277  -0.959 124.810  0.00  0.00    +0.008 A 
ATOM     17  O   LIG A   1      -9.178  -3.692 127.102  0.00  0.00    -0.453 OA
ATOM     18  C   LIG A   1      -8.595  -3.599 128.421  0.00  0.00    +0.466 C 
ATOM     19  O   LIG A   1      -7.804  -2.410 128.613  0.00  0.00    -0.453 OA
ENDBRANCH   4  11
BRANCH   2  20
ATOM     20  O   LIG A   1      -9.083   4.020 125.315  0.00  0.00    -0.391 OA
ATOM     21  H   LIG A   1      -9.159   4.598 126.099  0.00  0.00    +0.210 HD
ENDBRANCH   2  20
BRANCH   7  22
ATOM     22  O   LIG A   1      -8.173   3.543 122.638  0.00  0.00    -0.372 OA
ATOM     23  C   LIG A   1      -9.049   2.575 122.075  0.00  0.00    +0.195 C 
ENDBRANCH   7  22
BRANCH   1  24
ATOM     24  C   LIG A   1      -7.221   3.899 127.735  0.00  0.00    +0.036 C 
BRANCH  24  25
ATOM     25  C   LIG A   1      -7.472   2.881 128.815  0.00  0.00    -0.034 C 
ATOM     26  C   LIG A   1      -8.686   2.543 129.263  0.00  0.00    +0.004 C 
ENDBRANCH  24  25
ENDBRANCH   1  24
TORSDOF 5
ENDMDL
MODEL 8
REMARK VINA RESULT:      -6.7      3.567      5.929
REMARK  Name = NuBBE_2519
REMARK  7 active torsions:
REMARK  status: ('A' for Active; 'I' for Inactive)
REMARK    1  A    between atoms: C_1  and  C_2
REMARK    2  A    between atoms: C_1  and  C_4
REMARK    3  A    between atoms: C_5  and  O_6
REMARK    4  A    between atoms: C_9  and  C_14
REMARK    5  A    between atoms: C_11  and  C_13
REMARK    6  A    between atoms: C_23  and  O_28
REMARK    7  A    between atoms: O_28  and  C_29
REMARK                            x       y       z     vdW  Elec       q    Type
REMARK                         _______ _______ _______ _____ _____    ______ ____
ROOT
ATOM      1  C   LIG A   1      -7.909   1.830 124.571  0.00  0.00    +0.010 C 
ATOM      2  C   LIG A   1      -9.258   1.511 125.243  0.00  0.00    +0.128 C 
ATOM      3  C   LIG A   1      -8.817   0.536 126.336  0.00  0.00    +0.062 C 
ATOM      4  C   LIG A   1      -7.659   1.316 127.010  0.00  0.00    +0.031 C 
ATOM      5  C   LIG A   1      -7.008   2.121 125.824  0.00  0.00    +0.003 C 
ATOM      6  C   LIG A   1      -5.520   1.792 125.664  0.00  0.00    +0.009 C 
ATOM      7  C   LIG A   1      -8.367  -0.830 125.750  0.00  0.00    +0.190 C 
ATOM      8  C   LIG A   1      -7.398  -0.654 124.586  0.00  0.00    +0.163 C 
ATOM      9  O   LIG A   1      -6.618  -1.557 124.276  0.00  0.00    -0.295 OA
ATOM     10  C   LIG A   1      -7.471   0.590 123.754  0.00  0.00    +0.087 C 
ENDROOT
BRANCH   4  11
ATOM     11  C   LIG A   1      -8.094   2.239 128.160  0.00  0.00    -0.040 A 
ATOM     12  C   LIG A   1      -8.012   3.642 128.083  0.00  0.00    +0.053 A 
ATOM     13  C   LIG A   1      -8.432   4.403 129.154  0.00  0.00    +0.167 A 
ATOM     14  C   LIG A   1      -8.931   3.836 130.296  0.00  0.00    +0.166 A 
ATOM     15  C   LIG A   1      -9.043   2.471 130.422  0.00  0.00    +0.050 A 
ATOM     16  C   LIG A   1      -8.626   1.672 129.345  0.00  0.00    +0.008 A 
ATOM     17  O   LIG A   1      -9.276   4.768 131.222  0.00  0.00    -0.453 OA
ATOM     18  C   LIG A   1      -8.910   5.986 130.536  0.00  0.00    +0.466 C 
ATOM     19  O   LIG A   1      -8.402   5.761 129.206  0.00  0.00    -0.453 OA
ENDBRANCH   4  11
BRANCH   2  20
ATOM     20  O   LIG A   1     -10.200   0.981 124.338  0.00  0.00    -0.391 OA
ATOM     21  H   LIG A   1     -11.091   1.202 124.672  0.00  0.00    +0.210 HD
ENDBRANCH   2  20
BRANCH   7  22
ATOM     22  O   LIG A   1      -9.553  -1.569 125.481  0.00  0.00    -0.372 OA
ATOM     23  C   LIG A   1      -9.464  -2.924 125.901  0.00  0.00    +0.195 C 
ENDBRANCH   7  22
BRANCH   1  24
ATOM     24  C   LIG A   1      -8.073   3.062 123.641  0.00  0.00    +0.036 C 
BRANCH  24  25
ATOM     25  C   LIG A   1      -7.146   3.113 122.457  0.00  0.00    -0.034 C 
ATOM     26  C   LIG A   1      -6.021   3.836 122.412  0.00  0.00    +0.004 C 
ENDBRANCH  24  25
ENDBRANCH   1  24
TORSDOF 5
ENDMDL
MODEL 9
REMARK VINA RESULT:      -6.7      6.855     10.698
REMARK  Name = NuBBE_2519
REMARK  7 active torsions:
REMARK  status: ('A' for Active; 'I' for Inactive)
REMARK    1  A    between atoms: C_1  and  C_2
REMARK    2  A    between atoms: C_1  and  C_4
REMARK    3  A    between atoms: C_5  and  O_6
REMARK    4  A    between atoms: C_9  and  C_14
REMARK    5  A    between atoms: C_11  and  C_13
REMARK    6  A    between atoms: C_23  and  O_28
REMARK    7  A    between atoms: O_28  and  C_29
REMARK                            x       y       z     vdW  Elec       q    Type
REMARK                         _______ _______ _______ _____ _____    ______ ____
ROOT
ATOM      1  C   LIG A   1      -6.625   4.586 131.802  0.00  0.00    +0.010 C 
ATOM      2  C   LIG A   1      -7.141   4.039 130.457  0.00  0.00    +0.128 C 
ATOM      3  C   LIG A   1      -8.519   3.514 130.863  0.00  0.00    +0.062 C 
ATOM      4  C   LIG A   1      -9.119   4.736 131.606  0.00  0.00    +0.031 C 
ATOM      5  C   LIG A   1      -7.871   5.408 132.291  0.00  0.00    +0.003 C 
ATOM      6  C   LIG A   1      -8.045   5.512 133.809  0.00  0.00    +0.009 C 
ATOM      7  C   LIG A   1      -8.418   2.250 131.760  0.00  0.00    +0.190 C 
ATOM      8  C   LIG A   1      -7.418   2.439 132.895  0.00  0.00    +0.163 C 
ATOM      9  O   LIG A   1      -7.499   1.766 133.924  0.00  0.00    -0.295 OA
ATOM     10  C   LIG A   1      -6.269   3.383 132.708  0.00  0.00    +0.087 C 
ENDROOT
BRANCH   4  11
ATOM     11  C   LIG A   1      -9.880   5.721 130.705  0.00  0.00    -0.040 A 
ATOM     12  C   LIG A   1     -11.205   5.503 130.285  0.00  0.00    +0.053 A 
ATOM     13  C   LIG A   1     -11.824   6.440 129.485  0.00  0.00    +0.167 A 
ATOM     14  C   LIG A   1     -11.189   7.584 129.084  0.00  0.00    +0.166 A 
ATOM     15  C   LIG A   1      -9.896   7.855 129.472  0.00  0.00    +0.050 A 
ATOM     16  C   LIG A   1      -9.244   6.919 130.290  0.00  0.00    +0.008 A 
ATOM     17  O   LIG A   1     -11.979   8.361 128.296  0.00  0.00    -0.453 OA
ATOM     18  C   LIG A   1     -13.176   7.554 128.230  0.00  0.00    +0.466 C 
ATOM     19  O   LIG A   1     -13.095   6.346 129.012  0.00  0.00    -0.453 OA
ENDBRANCH   4  11
BRANCH   2  20
ATOM     20  O   LIG A   1      -6.286   3.062 129.908  0.00  0.00    -0.391 OA
ATOM     21  H   LIG A   1      -6.598   2.866 129.004  0.00  0.00    +0.210 HD
ENDBRANCH   2  20
BRANCH   7  22
ATOM     22  O   LIG A   1      -8.186   1.149 130.888  0.00  0.00    -0.372 OA
ATOM     23  C   LIG A   1      -8.789  -0.054 131.348  0.00  0.00    +0.195 C 
ENDBRANCH   7  22
BRANCH   1  24
ATOM     24  C   LIG A   1      -5.373   5.469 131.554  0.00  0.00    +0.036 C 
BRANCH  24  25
ATOM     25  C   LIG A   1      -5.650   6.902 131.187  0.00  0.00    -0.034 C 
ATOM     26  C   LIG A   1      -4.872   7.638 130.384  0.00  0.00    +0.004 C 
ENDBRANCH  24  25
ENDBRANCH   1  24
TORSDOF 5
ENDMDL
