MODEL 1
REMARK VINA RESULT:      -7.6      0.000      0.000
REMARK  Name = NuBBE_536
REMARK  11 active torsions:
REMARK  status: ('A' for Active; 'I' for Inactive)
REMARK    1  A    between atoms: O_1  and  C_2
REMARK    2  A    between atoms: C_2  and  C_4
REMARK    3  A    between atoms: C_2  and  C_12
REMARK    4  A    between atoms: C_5  and  C_6
REMARK    5  A    between atoms: C_12  and  C_13
REMARK    6  A    between atoms: C_13  and  C_15
REMARK    7  A    between atoms: C_13  and  O_28
REMARK    8  A    between atoms: C_15  and  C_16
REMARK    9  A    between atoms: C_16  and  C_18
REMARK   10  A    between atoms: C_16  and  O_27
REMARK   11  A    between atoms: C_18  and  C_19
REMARK                            x       y       z     vdW  Elec       q    Type
REMARK                         _______ _______ _______ _____ _____    ______ ____
ROOT
ATOM      1  C   LIG A   1      -8.567   1.528 124.772  0.00  0.00    +0.120 C 
ENDROOT
BRANCH   1   2
ATOM      2  O   LIG A   1      -9.585   2.530 124.841  0.00  0.00    -0.392 OA
ATOM      3  H   LIG A   1     -10.445   2.054 124.803  0.00  0.00    +0.210 HD
ENDBRANCH   1   2
BRANCH   1   4
ATOM      4  C   LIG A   1      -8.785   0.633 123.530  0.00  0.00    +0.067 C 
BRANCH   4   5
ATOM      5  C   LIG A   1      -8.968  -0.854 123.897  0.00  0.00    +0.140 C 
BRANCH   5   6
ATOM      6  O   LIG A   1      -9.888  -1.411 122.953  0.00  0.00    -0.388 OA
ATOM      7  H   LIG A   1     -10.572  -0.740 122.779  0.00  0.00    +0.210 HD
ENDBRANCH   5   6
BRANCH   5   8
ATOM      8  C   LIG A   1      -7.657  -1.597 123.814  0.00  0.00    +0.004 C 
ATOM      9  C   LIG A   1      -7.040  -2.350 124.744  0.00  0.00    +0.006 C 
BRANCH   9  10
ATOM     10  C   LIG A   1      -7.516  -2.686 126.090  0.00  0.00    -0.025 A 
ATOM     11  C   LIG A   1      -6.865  -2.183 127.222  0.00  0.00    +0.008 A 
ATOM     12  C   LIG A   1      -7.321  -2.510 128.504  0.00  0.00    +0.001 A 
ATOM     13  C   LIG A   1      -8.429  -3.341 128.661  0.00  0.00    +0.000 A 
ATOM     14  C   LIG A   1      -9.059  -3.876 127.539  0.00  0.00    +0.001 A 
ATOM     15  C   LIG A   1      -8.596  -3.560 126.258  0.00  0.00    +0.008 A 
ENDBRANCH   9  10
ENDBRANCH   5   8
ENDBRANCH   4   5
ENDBRANCH   1   4
BRANCH   1  16
ATOM     16  C   LIG A   1      -7.182   2.216 124.735  0.00  0.00    +0.062 C 
BRANCH  16  17
ATOM     17  C   LIG A   1      -6.960   3.171 123.539  0.00  0.00    +0.120 C 
BRANCH  17  18
ATOM     18  O   LIG A   1      -8.101   3.982 123.284  0.00  0.00    -0.392 OA
ATOM     19  H   LIG A   1      -7.888   4.558 122.517  0.00  0.00    +0.210 HD
ENDBRANCH  17  18
BRANCH  17  20
ATOM     20  C   LIG A   1      -6.566   2.449 122.228  0.00  0.00    +0.076 C 
BRANCH  20  21
ATOM     21  C   LIG A   1      -6.096   3.339 121.059  0.00  0.00    +0.183 C 
ATOM     22  O   LIG A   1      -5.411   4.497 121.595  0.00  0.00    -0.458 OA
ATOM     23  C   LIG A   1      -4.947   5.449 120.728  0.00  0.00    +0.332 C 
ATOM     24  C   LIG A   1      -5.563   5.452 119.375  0.00  0.00    +0.087 C 
ATOM     25  C   LIG A   1      -6.653   4.728 119.109  0.00  0.00    -0.016 C 
ATOM     26  C   LIG A   1      -7.224   3.802 120.135  0.00  0.00    +0.072 C 
ATOM     27  O   LIG A   1      -4.103   6.268 121.028  0.00  0.00    -0.246 OA
ENDBRANCH  20  21
ENDBRANCH  17  20
ENDBRANCH  16  17
ENDBRANCH   1  16
TORSDOF 11
ENDMDL
MODEL 2
REMARK VINA RESULT:      -7.6      7.603     10.181
REMARK  Name = NuBBE_536
REMARK  11 active torsions:
REMARK  status: ('A' for Active; 'I' for Inactive)
REMARK    1  A    between atoms: O_1  and  C_2
REMARK    2  A    between atoms: C_2  and  C_4
REMARK    3  A    between atoms: C_2  and  C_12
REMARK    4  A    between atoms: C_5  and  C_6
REMARK    5  A    between atoms: C_12  and  C_13
REMARK    6  A    between atoms: C_13  and  C_15
REMARK    7  A    between atoms: C_13  and  O_28
REMARK    8  A    between atoms: C_15  and  C_16
REMARK    9  A    between atoms: C_16  and  C_18
REMARK   10  A    between atoms: C_16  and  O_27
REMARK   11  A    between atoms: C_18  and  C_19
REMARK                            x       y       z     vdW  Elec       q    Type
REMARK                         _______ _______ _______ _____ _____    ______ ____
ROOT
ATOM      1  C   LIG A   1      -6.684   6.494 130.990  0.00  0.00    +0.120 C 
ENDROOT
BRANCH   1   2
ATOM      2  O   LIG A   1      -7.425   7.556 130.383  0.00  0.00    -0.392 OA
ATOM      3  H   LIG A   1      -8.365   7.265 130.370  0.00  0.00    +0.210 HD
ENDBRANCH   1   2
BRANCH   1   4
ATOM      4  C   LIG A   1      -5.235   6.951 131.275  0.00  0.00    +0.067 C 
BRANCH   4   5
ATOM      5  C   LIG A   1      -4.475   7.342 129.990  0.00  0.00    +0.140 C 
BRANCH   5   6
ATOM      6  O   LIG A   1      -4.683   8.743 129.788  0.00  0.00    -0.388 OA
ATOM      7  H   LIG A   1      -5.541   8.852 129.339  0.00  0.00    +0.210 HD
ENDBRANCH   5   6
BRANCH   5   8
ATOM      8  C   LIG A   1      -2.998   7.072 130.132  0.00  0.00    +0.004 C 
ATOM      9  C   LIG A   1      -2.280   6.004 129.734  0.00  0.00    +0.006 C 
BRANCH   9  10
ATOM     10  C   LIG A   1      -2.755   4.824 129.004  0.00  0.00    -0.025 A 
ATOM     11  C   LIG A   1      -2.485   4.674 127.639  0.00  0.00    +0.008 A 
ATOM     12  C   LIG A   1      -2.944   3.547 126.947  0.00  0.00    +0.001 A 
ATOM     13  C   LIG A   1      -3.676   2.567 127.614  0.00  0.00    +0.000 A 
ATOM     14  C   LIG A   1      -3.982   2.728 128.964  0.00  0.00    +0.001 A 
ATOM     15  C   LIG A   1      -3.535   3.859 129.654  0.00  0.00    +0.008 A 
ENDBRANCH   9  10
ENDBRANCH   5   8
ENDBRANCH   4   5
ENDBRANCH   1   4
BRANCH   1  16
ATOM     16  C   LIG A   1      -7.403   6.057 132.290  0.00  0.00    +0.062 C 
BRANCH  16  17
ATOM     17  C   LIG A   1      -8.708   5.257 132.075  0.00  0.00    +0.120 C 
BRANCH  17  18
ATOM     18  O   LIG A   1      -8.788   4.705 130.766  0.00  0.00    -0.392 OA
ATOM     19  H   LIG A   1      -9.689   4.327 130.659  0.00  0.00    +0.210 HD
ENDBRANCH  17  18
BRANCH  17  20
ATOM     20  C   LIG A   1      -9.994   6.074 132.344  0.00  0.00    +0.076 C 
BRANCH  20  21
ATOM     21  C   LIG A   1     -10.862   6.429 131.120  0.00  0.00    +0.183 C 
ATOM     22  O   LIG A   1     -10.140   7.370 130.288  0.00  0.00    -0.458 OA
ATOM     23  C   LIG A   1     -10.747   7.857 129.163  0.00  0.00    +0.332 C 
ATOM     24  C   LIG A   1     -12.228   7.743 129.121  0.00  0.00    +0.087 C 
ATOM     25  C   LIG A   1     -12.927   7.401 130.208  0.00  0.00    -0.016 C 
ATOM     26  C   LIG A   1     -12.231   7.014 131.473  0.00  0.00    +0.072 C 
ATOM     27  O   LIG A   1     -10.139   8.378 128.251  0.00  0.00    -0.246 OA
ENDBRANCH  20  21
ENDBRANCH  17  20
ENDBRANCH  16  17
ENDBRANCH   1  16
TORSDOF 11
ENDMDL
MODEL 3
REMARK VINA RESULT:      -7.5      7.186      9.150
REMARK  Name = NuBBE_536
REMARK  11 active torsions:
REMARK  status: ('A' for Active; 'I' for Inactive)
REMARK    1  A    between atoms: O_1  and  C_2
REMARK    2  A    between atoms: C_2  and  C_4
REMARK    3  A    between atoms: C_2  and  C_12
REMARK    4  A    between atoms: C_5  and  C_6
REMARK    5  A    between atoms: C_12  and  C_13
REMARK    6  A    between atoms: C_13  and  C_15
REMARK    7  A    between atoms: C_13  and  O_28
REMARK    8  A    between atoms: C_15  and  C_16
REMARK    9  A    between atoms: C_16  and  C_18
REMARK   10  A    between atoms: C_16  and  O_27
REMARK   11  A    between atoms: C_18  and  C_19
REMARK                            x       y       z     vdW  Elec       q    Type
REMARK                         _______ _______ _______ _____ _____    ______ ____
ROOT
ATOM      1  C   LIG A   1      -9.217   4.887 129.631  0.00  0.00    +0.120 C 
ENDROOT
BRANCH   1   2
ATOM      2  O   LIG A   1      -9.100   5.695 128.457  0.00  0.00    -0.392 OA
ATOM      3  H   LIG A   1      -8.612   6.506 128.728  0.00  0.00    +0.210 HD
ENDBRANCH   1   2
BRANCH   1   4
ATOM      4  C   LIG A   1      -8.205   3.718 129.574  0.00  0.00    +0.067 C 
BRANCH   4   5
ATOM      5  C   LIG A   1      -8.896   2.344 129.455  0.00  0.00    +0.140 C 
BRANCH   5   6
ATOM      6  O   LIG A   1      -8.962   2.025 128.061  0.00  0.00    -0.388 OA
ATOM      7  H   LIG A   1      -8.573   2.771 127.571  0.00  0.00    +0.210 HD
ENDBRANCH   5   6
BRANCH   5   8
ATOM      8  C   LIG A   1      -8.106   1.278 130.174  0.00  0.00    +0.004 C 
ATOM      9  C   LIG A   1      -7.653   1.258 131.442  0.00  0.00    +0.006 C 
BRANCH   9  10
ATOM     10  C   LIG A   1      -7.854   2.269 132.485  0.00  0.00    -0.025 A 
ATOM     11  C   LIG A   1      -9.142   2.581 132.937  0.00  0.00    +0.008 A 
ATOM     12  C   LIG A   1      -9.328   3.550 133.929  0.00  0.00    +0.001 A 
ATOM     13  C   LIG A   1      -8.230   4.213 134.474  0.00  0.00    +0.000 A 
ATOM     14  C   LIG A   1      -6.948   3.936 134.002  0.00  0.00    +0.001 A 
ATOM     15  C   LIG A   1      -6.762   2.976 133.001  0.00  0.00    +0.008 A 
ENDBRANCH   9  10
ENDBRANCH   5   8
ENDBRANCH   4   5
ENDBRANCH   1   4
BRANCH   1  16
ATOM     16  C   LIG A   1      -8.985   5.772 130.879  0.00  0.00    +0.062 C 
BRANCH  16  17
ATOM     17  C   LIG A   1     -10.250   6.477 131.421  0.00  0.00    +0.120 C 
BRANCH  17  18
ATOM     18  O   LIG A   1     -10.279   6.505 132.844  0.00  0.00    -0.392 OA
ATOM     19  H   LIG A   1     -10.626   7.384 133.115  0.00  0.00    +0.210 HD
ENDBRANCH  17  18
BRANCH  17  20
ATOM     20  C   LIG A   1     -11.576   5.861 130.914  0.00  0.00    +0.076 C 
BRANCH  20  21
ATOM     21  C   LIG A   1     -12.410   6.712 129.936  0.00  0.00    +0.183 C 
ATOM     22  O   LIG A   1     -12.008   6.400 128.580  0.00  0.00    -0.458 OA
ATOM     23  C   LIG A   1     -12.594   7.079 127.546  0.00  0.00    +0.332 C 
ATOM     24  C   LIG A   1     -13.245   8.367 127.899  0.00  0.00    +0.087 C 
ATOM     25  C   LIG A   1     -13.066   8.928 129.098  0.00  0.00    -0.016 C 
ATOM     26  C   LIG A   1     -12.292   8.220 130.164  0.00  0.00    +0.072 C 
ATOM     27  O   LIG A   1     -12.574   6.687 126.397  0.00  0.00    -0.246 OA
ENDBRANCH  20  21
ENDBRANCH  17  20
ENDBRANCH  16  17
ENDBRANCH   1  16
TORSDOF 11
ENDMDL
MODEL 4
REMARK VINA RESULT:      -7.5      1.542      2.224
REMARK  Name = NuBBE_536
REMARK  11 active torsions:
REMARK  status: ('A' for Active; 'I' for Inactive)
REMARK    1  A    between atoms: O_1  and  C_2
REMARK    2  A    between atoms: C_2  and  C_4
REMARK    3  A    between atoms: C_2  and  C_12
REMARK    4  A    between atoms: C_5  and  C_6
REMARK    5  A    between atoms: C_12  and  C_13
REMARK    6  A    between atoms: C_13  and  C_15
REMARK    7  A    between atoms: C_13  and  O_28
REMARK    8  A    between atoms: C_15  and  C_16
REMARK    9  A    between atoms: C_16  and  C_18
REMARK   10  A    between atoms: C_16  and  O_27
REMARK   11  A    between atoms: C_18  and  C_19
REMARK                            x       y       z     vdW  Elec       q    Type
REMARK                         _______ _______ _______ _____ _____    ______ ____
ROOT
ATOM      1  C   LIG A   1     -10.115   1.052 123.657  0.00  0.00    +0.120 C 
ENDROOT
BRANCH   1   2
ATOM      2  O   LIG A   1     -11.272   0.624 122.933  0.00  0.00    -0.392 OA
ATOM      3  H   LIG A   1     -11.207  -0.356 122.863  0.00  0.00    +0.210 HD
ENDBRANCH   1   2
BRANCH   1   4
ATOM      4  C   LIG A   1      -9.306  -0.174 124.140  0.00  0.00    +0.067 C 
BRANCH   4   5
ATOM      5  C   LIG A   1      -8.856  -1.081 122.975  0.00  0.00    +0.140 C 
BRANCH   5   6
ATOM      6  O   LIG A   1      -7.434  -0.960 122.871  0.00  0.00    -0.388 OA
ATOM      7  H   LIG A   1      -7.039  -1.598 123.492  0.00  0.00    +0.210 HD
ENDBRANCH   5   6
BRANCH   5   8
ATOM      8  C   LIG A   1      -9.217  -2.522 123.242  0.00  0.00    +0.004 C 
ATOM      9  C   LIG A   1      -8.882  -3.310 124.282  0.00  0.00    +0.006 C 
BRANCH   9  10
ATOM     10  C   LIG A   1      -8.101  -2.947 125.469  0.00  0.00    -0.025 A 
ATOM     11  C   LIG A   1      -8.725  -2.794 126.712  0.00  0.00    +0.008 A 
ATOM     12  C   LIG A   1      -7.975  -2.444 127.842  0.00  0.00    +0.001 A 
ATOM     13  C   LIG A   1      -6.600  -2.245 127.734  0.00  0.00    +0.000 A 
ATOM     14  C   LIG A   1      -5.978  -2.358 126.492  0.00  0.00    +0.001 A 
ATOM     15  C   LIG A   1      -6.728  -2.696 125.360  0.00  0.00    +0.008 A 
ENDBRANCH   9  10
ENDBRANCH   5   8
ENDBRANCH   4   5
ENDBRANCH   1   4
BRANCH   1  16
ATOM     16  C   LIG A   1      -9.262   1.968 122.748  0.00  0.00    +0.062 C 
BRANCH  16  17
ATOM     17  C   LIG A   1      -8.037   2.612 123.438  0.00  0.00    +0.120 C 
BRANCH  17  18
ATOM     18  O   LIG A   1      -8.277   3.968 123.800  0.00  0.00    -0.392 OA
ATOM     19  H   LIG A   1      -8.994   4.305 123.218  0.00  0.00    +0.210 HD
ENDBRANCH  17  18
BRANCH  17  20
ATOM     20  C   LIG A   1      -6.740   2.551 122.596  0.00  0.00    +0.076 C 
BRANCH  20  21
ATOM     21  C   LIG A   1      -6.479   3.728 121.634  0.00  0.00    +0.183 C 
ATOM     22  O   LIG A   1      -7.208   3.501 120.404  0.00  0.00    -0.458 OA
ATOM     23  C   LIG A   1      -7.083   4.408 119.386  0.00  0.00    +0.332 C 
ATOM     24  C   LIG A   1      -5.888   5.290 119.444  0.00  0.00    +0.087 C 
ATOM     25  C   LIG A   1      -4.893   5.052 120.303  0.00  0.00    -0.016 C 
ATOM     26  C   LIG A   1      -5.001   3.953 121.311  0.00  0.00    +0.072 C 
ATOM     27  O   LIG A   1      -7.871   4.490 118.467  0.00  0.00    -0.246 OA
ENDBRANCH  20  21
ENDBRANCH  17  20
ENDBRANCH  16  17
ENDBRANCH   1  16
TORSDOF 11
ENDMDL
MODEL 5
REMARK VINA RESULT:      -7.5      7.364      9.345
REMARK  Name = NuBBE_536
REMARK  11 active torsions:
REMARK  status: ('A' for Active; 'I' for Inactive)
REMARK    1  A    between atoms: O_1  and  C_2
REMARK    2  A    between atoms: C_2  and  C_4
REMARK    3  A    between atoms: C_2  and  C_12
REMARK    4  A    between atoms: C_5  and  C_6
REMARK    5  A    between atoms: C_12  and  C_13
REMARK    6  A    between atoms: C_13  and  C_15
REMARK    7  A    between atoms: C_13  and  O_28
REMARK    8  A    between atoms: C_15  and  C_16
REMARK    9  A    between atoms: C_16  and  C_18
REMARK   10  A    between atoms: C_16  and  O_27
REMARK   11  A    between atoms: C_18  and  C_19
REMARK                            x       y       z     vdW  Elec       q    Type
REMARK                         _______ _______ _______ _____ _____    ______ ____
ROOT
ATOM      1  C   LIG A   1      -8.567   5.835 131.076  0.00  0.00    +0.120 C 
ENDROOT
BRANCH   1   2
ATOM      2  O   LIG A   1      -8.618   6.409 129.767  0.00  0.00    -0.392 OA
ATOM      3  H   LIG A   1      -9.059   5.744 129.191  0.00  0.00    +0.210 HD
ENDBRANCH   1   2
BRANCH   1   4
ATOM      4  C   LIG A   1      -7.314   6.340 131.829  0.00  0.00    +0.067 C 
BRANCH   4   5
ATOM      5  C   LIG A   1      -6.521   5.194 132.492  0.00  0.00    +0.140 C 
BRANCH   5   6
ATOM      6  O   LIG A   1      -5.176   5.654 132.657  0.00  0.00    -0.388 OA
ATOM      7  H   LIG A   1      -4.585   4.968 132.298  0.00  0.00    +0.210 HD
ENDBRANCH   5   6
BRANCH   5   8
ATOM      8  C   LIG A   1      -7.099   4.847 133.841  0.00  0.00    +0.004 C 
ATOM      9  C   LIG A   1      -7.839   3.782 134.207  0.00  0.00    +0.006 C 
BRANCH   9  10
ATOM     10  C   LIG A   1      -8.243   2.640 133.379  0.00  0.00    -0.025 A 
ATOM     11  C   LIG A   1      -7.350   1.592 133.128  0.00  0.00    +0.008 A 
ATOM     12  C   LIG A   1      -7.739   0.507 132.334  0.00  0.00    +0.001 A 
ATOM     13  C   LIG A   1      -9.020   0.465 131.787  0.00  0.00    +0.000 A 
ATOM     14  C   LIG A   1      -9.901   1.523 132.001  0.00  0.00    +0.001 A 
ATOM     15  C   LIG A   1      -9.509   2.614 132.784  0.00  0.00    +0.008 A 
ENDBRANCH   9  10
ENDBRANCH   5   8
ENDBRANCH   4   5
ENDBRANCH   1   4
BRANCH   1  16
ATOM     16  C   LIG A   1      -9.865   6.196 131.836  0.00  0.00    +0.062 C 
BRANCH  16  17
ATOM     17  C   LIG A   1     -11.162   5.618 131.224  0.00  0.00    +0.120 C 
BRANCH  17  18
ATOM     18  O   LIG A   1     -10.892   4.650 130.216  0.00  0.00    -0.392 OA
ATOM     19  H   LIG A   1      -9.915   4.573 130.134  0.00  0.00    +0.210 HD
ENDBRANCH  17  18
BRANCH  17  20
ATOM     20  C   LIG A   1     -12.108   6.691 130.633  0.00  0.00    +0.076 C 
BRANCH  20  21
ATOM     21  C   LIG A   1     -12.419   6.592 129.126  0.00  0.00    +0.183 C 
ATOM     22  O   LIG A   1     -11.209   6.860 128.377  0.00  0.00    -0.458 OA
ATOM     23  C   LIG A   1     -11.267   6.868 127.010  0.00  0.00    +0.332 C 
ATOM     24  C   LIG A   1     -12.617   7.049 126.418  0.00  0.00    +0.087 C 
ATOM     25  C   LIG A   1     -13.661   7.411 127.170  0.00  0.00    -0.016 C 
ATOM     26  C   LIG A   1     -13.525   7.536 128.654  0.00  0.00    +0.072 C 
ATOM     27  O   LIG A   1     -10.288   6.761 126.301  0.00  0.00    -0.246 OA
ENDBRANCH  20  21
ENDBRANCH  17  20
ENDBRANCH  16  17
ENDBRANCH   1  16
TORSDOF 11
ENDMDL
MODEL 6
REMARK VINA RESULT:      -7.5      5.277      7.480
REMARK  Name = NuBBE_536
REMARK  11 active torsions:
REMARK  status: ('A' for Active; 'I' for Inactive)
REMARK    1  A    between atoms: O_1  and  C_2
REMARK    2  A    between atoms: C_2  and  C_4
REMARK    3  A    between atoms: C_2  and  C_12
REMARK    4  A    between atoms: C_5  and  C_6
REMARK    5  A    between atoms: C_12  and  C_13
REMARK    6  A    between atoms: C_13  and  C_15
REMARK    7  A    between atoms: C_13  and  O_28
REMARK    8  A    between atoms: C_15  and  C_16
REMARK    9  A    between atoms: C_16  and  C_18
REMARK   10  A    between atoms: C_16  and  O_27
REMARK   11  A    between atoms: C_18  and  C_19
REMARK                            x       y       z     vdW  Elec       q    Type
REMARK                         _______ _______ _______ _____ _____    ______ ____
ROOT
ATOM      1  C   LIG A   1      -7.521   4.114 127.165  0.00  0.00    +0.120 C 
ENDROOT
BRANCH   1   2
ATOM      2  O   LIG A   1      -8.465   5.091 126.717  0.00  0.00    -0.392 OA
ATOM      3  H   LIG A   1      -8.253   5.922 127.200  0.00  0.00    +0.210 HD
ENDBRANCH   1   2
BRANCH   1   4
ATOM      4  C   LIG A   1      -7.757   3.794 128.659  0.00  0.00    +0.067 C 
BRANCH   4   5
ATOM      5  C   LIG A   1      -8.971   4.547 129.241  0.00  0.00    +0.140 C 
BRANCH   5   6
ATOM      6  O   LIG A   1      -9.815   3.572 129.860  0.00  0.00    -0.388 OA
ATOM      7  H   LIG A   1     -10.501   3.324 129.215  0.00  0.00    +0.210 HD
ENDBRANCH   5   6
BRANCH   5   8
ATOM      8  C   LIG A   1      -8.536   5.558 130.273  0.00  0.00    +0.004 C 
ATOM      9  C   LIG A   1      -9.115   6.721 130.630  0.00  0.00    +0.006 C 
BRANCH   9  10
ATOM     10  C   LIG A   1     -10.370   7.292 130.128  0.00  0.00    -0.025 A 
ATOM     11  C   LIG A   1     -11.579   7.047 130.788  0.00  0.00    +0.008 A 
ATOM     12  C   LIG A   1     -12.773   7.591 130.302  0.00  0.00    +0.001 A 
ATOM     13  C   LIG A   1     -12.765   8.381 129.154  0.00  0.00    +0.000 A 
ATOM     14  C   LIG A   1     -11.570   8.598 128.469  0.00  0.00    +0.001 A 
ATOM     15  C   LIG A   1     -10.378   8.045 128.947  0.00  0.00    +0.008 A 
ENDBRANCH   9  10
ENDBRANCH   5   8
ENDBRANCH   4   5
ENDBRANCH   1   4
BRANCH   1  16
ATOM     16  C   LIG A   1      -7.654   2.846 126.289  0.00  0.00    +0.062 C 
BRANCH  16  17
ATOM     17  C   LIG A   1      -8.262   3.082 124.887  0.00  0.00    +0.120 C 
BRANCH  17  18
ATOM     18  O   LIG A   1      -9.603   2.612 124.800  0.00  0.00    -0.392 OA
ATOM     19  H   LIG A   1     -10.002   2.691 125.694  0.00  0.00    +0.210 HD
ENDBRANCH  17  18
BRANCH  17  20
ATOM     20  C   LIG A   1      -7.444   2.451 123.736  0.00  0.00    +0.076 C 
BRANCH  20  21
ATOM     21  C   LIG A   1      -7.250   3.308 122.469  0.00  0.00    +0.183 C 
ATOM     22  O   LIG A   1      -8.428   3.189 121.635  0.00  0.00    -0.458 OA
ATOM     23  C   LIG A   1      -8.452   3.837 120.430  0.00  0.00    +0.332 C 
ATOM     24  C   LIG A   1      -7.130   4.230 119.876  0.00  0.00    +0.087 C 
ATOM     25  C   LIG A   1      -5.992   3.774 120.408  0.00  0.00    -0.016 C 
ATOM     26  C   LIG A   1      -6.011   2.940 121.650  0.00  0.00    +0.072 C 
ATOM     27  O   LIG A   1      -9.474   4.067 119.818  0.00  0.00    -0.246 OA
ENDBRANCH  20  21
ENDBRANCH  17  20
ENDBRANCH  16  17
ENDBRANCH   1  16
TORSDOF 11
ENDMDL
MODEL 7
REMARK VINA RESULT:      -7.4      2.072      8.113
REMARK  Name = NuBBE_536
REMARK  11 active torsions:
REMARK  status: ('A' for Active; 'I' for Inactive)
REMARK    1  A    between atoms: O_1  and  C_2
REMARK    2  A    between atoms: C_2  and  C_4
REMARK    3  A    between atoms: C_2  and  C_12
REMARK    4  A    between atoms: C_5  and  C_6
REMARK    5  A    between atoms: C_12  and  C_13
REMARK    6  A    between atoms: C_13  and  C_15
REMARK    7  A    between atoms: C_13  and  O_28
REMARK    8  A    between atoms: C_15  and  C_16
REMARK    9  A    between atoms: C_16  and  C_18
REMARK   10  A    between atoms: C_16  and  O_27
REMARK   11  A    between atoms: C_18  and  C_19
REMARK                            x       y       z     vdW  Elec       q    Type
REMARK                         _______ _______ _______ _____ _____    ______ ____
ROOT
ATOM      1  C   LIG A   1      -7.998   3.168 124.742  0.00  0.00    +0.120 C 
ENDROOT
BRANCH   1   2
ATOM      2  O   LIG A   1      -9.006   4.128 125.068  0.00  0.00    -0.392 OA
ATOM      3  H   LIG A   1      -9.323   3.900 125.972  0.00  0.00    +0.210 HD
ENDBRANCH   1   2
BRANCH   1   4
ATOM      4  C   LIG A   1      -6.598   3.732 125.079  0.00  0.00    +0.067 C 
BRANCH   4   5
ATOM      5  C   LIG A   1      -6.182   4.881 124.138  0.00  0.00    +0.140 C 
BRANCH   5   6
ATOM      6  O   LIG A   1      -6.054   6.058 124.941  0.00  0.00    -0.388 OA
ATOM      7  H   LIG A   1      -6.802   6.643 124.726  0.00  0.00    +0.210 HD
ENDBRANCH   5   6
BRANCH   5   8
ATOM      8  C   LIG A   1      -4.860   4.584 123.474  0.00  0.00    +0.004 C 
ATOM      9  C   LIG A   1      -4.576   4.415 122.168  0.00  0.00    +0.006 C 
BRANCH   9  10
ATOM     10  C   LIG A   1      -5.493   4.524 121.028  0.00  0.00    -0.025 A 
ATOM     11  C   LIG A   1      -6.695   3.807 121.009  0.00  0.00    +0.008 A 
ATOM     12  C   LIG A   1      -7.564   3.912 119.917  0.00  0.00    +0.001 A 
ATOM     13  C   LIG A   1      -7.235   4.731 118.839  0.00  0.00    +0.000 A 
ATOM     14  C   LIG A   1      -6.023   5.418 118.833  0.00  0.00    +0.001 A 
ATOM     15  C   LIG A   1      -5.148   5.304 119.918  0.00  0.00    +0.008 A 
ENDBRANCH   9  10
ENDBRANCH   5   8
ENDBRANCH   4   5
ENDBRANCH   1   4
BRANCH   1  16
ATOM     16  C   LIG A   1      -8.279   1.858 125.517  0.00  0.00    +0.062 C 
BRANCH  16  17
ATOM     17  C   LIG A   1      -9.310   0.916 124.853  0.00  0.00    +0.120 C 
BRANCH  17  18
ATOM     18  O   LIG A   1     -10.562   1.559 124.640  0.00  0.00    -0.392 OA
ATOM     19  H   LIG A   1     -10.378   2.500 124.423  0.00  0.00    +0.210 HD
ENDBRANCH  17  18
BRANCH  17  20
ATOM     20  C   LIG A   1      -9.558  -0.394 125.639  0.00  0.00    +0.076 C 
BRANCH  20  21
ATOM     21  C   LIG A   1      -8.593  -1.564 125.361  0.00  0.00    +0.183 C 
ATOM     22  O   LIG A   1      -7.946  -1.348 124.083  0.00  0.00    -0.458 OA
ATOM     23  C   LIG A   1      -7.076  -2.295 123.616  0.00  0.00    +0.332 C 
ATOM     24  C   LIG A   1      -7.202  -3.648 124.216  0.00  0.00    +0.087 C 
ATOM     25  C   LIG A   1      -8.246  -3.969 124.987  0.00  0.00    -0.016 C 
ATOM     26  C   LIG A   1      -9.263  -2.939 125.361  0.00  0.00    +0.072 C 
ATOM     27  O   LIG A   1      -6.258  -2.076 122.746  0.00  0.00    -0.246 OA
ENDBRANCH  20  21
ENDBRANCH  17  20
ENDBRANCH  16  17
ENDBRANCH   1  16
TORSDOF 11
ENDMDL
MODEL 8
REMARK VINA RESULT:      -7.4      7.145      9.550
REMARK  Name = NuBBE_536
REMARK  11 active torsions:
REMARK  status: ('A' for Active; 'I' for Inactive)
REMARK    1  A    between atoms: O_1  and  C_2
REMARK    2  A    between atoms: C_2  and  C_4
REMARK    3  A    between atoms: C_2  and  C_12
REMARK    4  A    between atoms: C_5  and  C_6
REMARK    5  A    between atoms: C_12  and  C_13
REMARK    6  A    between atoms: C_13  and  C_15
REMARK    7  A    between atoms: C_13  and  O_28
REMARK    8  A    between atoms: C_15  and  C_16
REMARK    9  A    between atoms: C_16  and  C_18
REMARK   10  A    between atoms: C_16  and  O_27
REMARK   11  A    between atoms: C_18  and  C_19
REMARK                            x       y       z     vdW  Elec       q    Type
REMARK                         _______ _______ _______ _____ _____    ______ ____
ROOT
ATOM      1  C   LIG A   1      -9.882   3.681 130.782  0.00  0.00    +0.120 C 
ENDROOT
BRANCH   1   2
ATOM      2  O   LIG A   1      -9.110   3.906 131.964  0.00  0.00    -0.392 OA
ATOM      3  H   LIG A   1      -8.270   3.406 131.845  0.00  0.00    +0.210 HD
ENDBRANCH   1   2
BRANCH   1   4
ATOM      4  C   LIG A   1     -10.852   4.862 130.548  0.00  0.00    +0.067 C 
BRANCH   4   5
ATOM      5  C   LIG A   1     -10.732   5.950 131.635  0.00  0.00    +0.140 C 
BRANCH   5   6
ATOM      6  O   LIG A   1      -9.633   6.791 131.270  0.00  0.00    -0.388 OA
ATOM      7  H   LIG A   1      -8.827   6.404 131.653  0.00  0.00    +0.210 HD
ENDBRANCH   5   6
BRANCH   5   8
ATOM      8  C   LIG A   1     -11.991   6.779 131.712  0.00  0.00    +0.004 C 
ATOM      9  C   LIG A   1     -12.629   7.459 130.740  0.00  0.00    +0.006 C 
BRANCH   9  10
ATOM     10  C   LIG A   1     -12.281   7.532 129.317  0.00  0.00    -0.025 A 
ATOM     11  C   LIG A   1     -13.077   6.901 128.355  0.00  0.00    +0.008 A 
ATOM     12  C   LIG A   1     -12.738   6.971 126.999  0.00  0.00    +0.001 A 
ATOM     13  C   LIG A   1     -11.602   7.671 126.598  0.00  0.00    +0.000 A 
ATOM     14  C   LIG A   1     -10.783   8.270 127.553  0.00  0.00    +0.001 A 
ATOM     15  C   LIG A   1     -11.114   8.190 128.910  0.00  0.00    +0.008 A 
ENDBRANCH   9  10
ENDBRANCH   5   8
ENDBRANCH   4   5
ENDBRANCH   1   4
BRANCH   1  16
ATOM     16  C   LIG A   1      -8.924   3.493 129.581  0.00  0.00    +0.062 C 
BRANCH  16  17
ATOM     17  C   LIG A   1      -7.510   4.088 129.777  0.00  0.00    +0.120 C 
BRANCH  17  18
ATOM     18  O   LIG A   1      -7.530   5.510 129.829  0.00  0.00    -0.392 OA
ATOM     19  H   LIG A   1      -7.405   5.841 128.912  0.00  0.00    +0.210 HD
ENDBRANCH  17  18
BRANCH  17  20
ATOM     20  C   LIG A   1      -6.493   3.650 128.696  0.00  0.00    +0.076 C 
BRANCH  20  21
ATOM     21  C   LIG A   1      -5.063   4.216 128.816  0.00  0.00    +0.183 C 
ATOM     22  O   LIG A   1      -5.077   5.613 128.435  0.00  0.00    -0.458 OA
ATOM     23  C   LIG A   1      -3.897   6.306 128.425  0.00  0.00    +0.332 C 
ATOM     24  C   LIG A   1      -2.660   5.485 128.364  0.00  0.00    +0.087 C 
ATOM     25  C   LIG A   1      -2.711   4.175 128.103  0.00  0.00    -0.016 C 
ATOM     26  C   LIG A   1      -4.025   3.473 127.973  0.00  0.00    +0.072 C 
ATOM     27  O   LIG A   1      -3.837   7.518 128.439  0.00  0.00    -0.246 OA
ENDBRANCH  20  21
ENDBRANCH  17  20
ENDBRANCH  16  17
ENDBRANCH   1  16
TORSDOF 11
ENDMDL
MODEL 9
REMARK VINA RESULT:      -7.3      3.061      4.242
REMARK  Name = NuBBE_536
REMARK  11 active torsions:
REMARK  status: ('A' for Active; 'I' for Inactive)
REMARK    1  A    between atoms: O_1  and  C_2
REMARK    2  A    between atoms: C_2  and  C_4
REMARK    3  A    between atoms: C_2  and  C_12
REMARK    4  A    between atoms: C_5  and  C_6
REMARK    5  A    between atoms: C_12  and  C_13
REMARK    6  A    between atoms: C_13  and  C_15
REMARK    7  A    between atoms: C_13  and  O_28
REMARK    8  A    between atoms: C_15  and  C_16
REMARK    9  A    between atoms: C_16  and  C_18
REMARK   10  A    between atoms: C_16  and  O_27
REMARK   11  A    between atoms: C_18  and  C_19
REMARK                            x       y       z     vdW  Elec       q    Type
REMARK                         _______ _______ _______ _____ _____    ______ ____
ROOT
ATOM      1  C   LIG A   1      -8.208   1.400 123.763  0.00  0.00    +0.120 C 
ENDROOT
BRANCH   1   2
ATOM      2  O   LIG A   1      -8.908   2.067 122.709  0.00  0.00    -0.392 OA
ATOM      3  H   LIG A   1      -9.566   2.656 123.144  0.00  0.00    +0.210 HD
ENDBRANCH   1   2
BRANCH   1   4
ATOM      4  C   LIG A   1      -7.899  -0.059 123.355  0.00  0.00    +0.067 C 
BRANCH   4   5
ATOM      5  C   LIG A   1      -9.108  -0.997 123.555  0.00  0.00    +0.140 C 
BRANCH   5   6
ATOM      6  O   LIG A   1     -10.095  -0.624 122.589  0.00  0.00    -0.388 OA
ATOM      7  H   LIG A   1     -10.962  -0.646 123.032  0.00  0.00    +0.210 HD
ENDBRANCH   5   6
BRANCH   5   8
ATOM      8  C   LIG A   1      -8.715  -2.438 123.337  0.00  0.00    +0.004 C 
ATOM      9  C   LIG A   1      -8.216  -3.331 124.212  0.00  0.00    +0.006 C 
BRANCH   9  10
ATOM     10  C   LIG A   1      -7.963  -3.141 125.644  0.00  0.00    -0.025 A 
ATOM     11  C   LIG A   1      -8.876  -3.607 126.597  0.00  0.00    +0.008 A 
ATOM     12  C   LIG A   1      -8.631  -3.420 127.962  0.00  0.00    +0.001 A 
ATOM     13  C   LIG A   1      -7.474  -2.766 128.382  0.00  0.00    +0.000 A 
ATOM     14  C   LIG A   1      -6.579  -2.265 127.438  0.00  0.00    +0.001 A 
ATOM     15  C   LIG A   1      -6.829  -2.441 126.073  0.00  0.00    +0.008 A 
ENDBRANCH   9  10
ENDBRANCH   5   8
ENDBRANCH   4   5
ENDBRANCH   1   4
BRANCH   1  16
ATOM     16  C   LIG A   1      -6.912   2.183 124.082  0.00  0.00    +0.062 C 
BRANCH  16  17
ATOM     17  C   LIG A   1      -7.111   3.449 124.946  0.00  0.00    +0.120 C 
BRANCH  17  18
ATOM     18  O   LIG A   1      -8.250   4.200 124.541  0.00  0.00    -0.392 OA
ATOM     19  H   LIG A   1      -9.038   3.791 124.962  0.00  0.00    +0.210 HD
ENDBRANCH  17  18
BRANCH  17  20
ATOM     20  C   LIG A   1      -5.883   4.392 124.966  0.00  0.00    +0.076 C 
BRANCH  20  21
ATOM     21  C   LIG A   1      -4.985   4.337 126.218  0.00  0.00    +0.183 C 
ATOM     22  O   LIG A   1      -4.853   5.673 126.762  0.00  0.00    -0.458 OA
ATOM     23  C   LIG A   1      -4.056   5.863 127.858  0.00  0.00    +0.332 C 
ATOM     24  C   LIG A   1      -3.052   4.801 128.126  0.00  0.00    +0.087 C 
ATOM     25  C   LIG A   1      -2.796   3.847 127.225  0.00  0.00    -0.016 C 
ATOM     26  C   LIG A   1      -3.593   3.756 125.963  0.00  0.00    +0.072 C 
ATOM     27  O   LIG A   1      -4.126   6.844 128.570  0.00  0.00    -0.246 OA
ENDBRANCH  20  21
ENDBRANCH  17  20
ENDBRANCH  16  17
ENDBRANCH   1  16
TORSDOF 11
ENDMDL
