MODEL 1
REMARK VINA RESULT:      -7.4      0.000      0.000
REMARK  Name = NuBBE_113
REMARK  8 active torsions:
REMARK  status: ('A' for Active; 'I' for Inactive)
REMARK    1  A    between atoms: C_6  and  O_8
REMARK    2  A    between atoms: O_8  and  C_9
REMARK    3  A    between atoms: C_11  and  O_13
REMARK    4  A    between atoms: C_15  and  C_17
REMARK    5  A    between atoms: C_17  and  O_18
REMARK    6  A    between atoms: C_19  and  O_21
REMARK    7  A    between atoms: C_22  and  O_24
REMARK    8  A    between atoms: C_25  and  C_27
REMARK                            x       y       z     vdW  Elec       q    Type
REMARK                         _______ _______ _______ _____ _____    ______ ____
ROOT
ATOM      1  C   LIG A   1      -8.286   1.406 125.508  0.00  0.00    +0.286 C 
ATOM      2  C   LIG A   1      -7.161   2.397 125.119  0.00  0.00    +0.201 C 
ATOM      3  O   LIG A   1      -8.867   0.843 124.337  0.00  0.00    -0.340 OA
ATOM      4  C   LIG A   1      -9.424   1.776 123.423  0.00  0.00    +0.178 C 
ATOM      5  C   LIG A   1      -8.312   2.670 122.873  0.00  0.00    +0.177 C 
ATOM      6  C   LIG A   1      -7.630   3.380 124.041  0.00  0.00    +0.179 C 
ENDROOT
BRANCH   2   7
ATOM      7  O   LIG A   1      -6.709   3.158 126.253  0.00  0.00    -0.384 OA
ATOM      8  H   LIG A   1      -5.767   2.914 126.357  0.00  0.00    +0.210 HD
ENDBRANCH   2   7
BRANCH   5   9
ATOM      9  O   LIG A   1      -8.792   3.671 121.968  0.00  0.00    -0.387 OA
ATOM     10  H   LIG A   1      -9.402   3.215 121.346  0.00  0.00    +0.210 HD
ENDBRANCH   5   9
BRANCH   6  11
ATOM     11  O   LIG A   1      -6.500   4.128 123.556  0.00  0.00    -0.386 OA
ATOM     12  H   LIG A   1      -5.879   4.161 124.314  0.00  0.00    +0.210 HD
ENDBRANCH   6  11
BRANCH   1  13
ATOM     13  O   LIG A   1      -7.708   0.350 126.297  0.00  0.00    -0.309 OA
BRANCH  13  19
ATOM     14  O   LIG A   1      -4.297  -2.698 128.773  0.00  0.00    -0.245 OA
ATOM     15  C   LIG A   1      -5.516  -2.754 128.794  0.00  0.00    +0.338 C 
ATOM     16  C   LIG A   1      -6.350  -2.230 127.690  0.00  0.00    +0.075 C 
ATOM     17  C   LIG A   1      -5.734  -1.901 126.546  0.00  0.00    +0.201 C 
ATOM     18  O   LIG A   1      -6.357  -1.430 125.418  0.00  0.00    -0.470 OA
ATOM     19  C   LIG A   1      -7.693  -0.922 125.623  0.00  0.00    +0.316 C 
ATOM     20  C   LIG A   1      -8.531  -1.950 126.442  0.00  0.00    +0.088 C 
ATOM     21  C   LIG A   1      -7.837  -2.139 127.822  0.00  0.00    +0.045 C 
ATOM     22  C   LIG A   1      -8.333  -3.325 128.642  0.00  0.00    +0.050 C 
ATOM     23  C   LIG A   1      -7.605  -3.295 129.973  0.00  0.00    +0.233 C 
ATOM     24  O   LIG A   1      -6.175  -3.346 129.820  0.00  0.00    -0.461 OA
BRANCH  20  25
ATOM     25  C   LIG A   1      -8.721  -3.238 125.651  0.00  0.00    -0.025 C 
ATOM     26  C   LIG A   1      -9.081  -3.293 124.364  0.00  0.00    +0.004 C 
ENDBRANCH  20  25
ENDBRANCH  13  19
ENDBRANCH   1  13
BRANCH   4  27
ATOM     27  C   LIG A   1     -10.096   0.965 122.308  0.00  0.00    +0.190 C 
BRANCH  27  28
ATOM     28  O   LIG A   1     -11.386   0.515 122.709  0.00  0.00    -0.392 OA
ATOM     29  H   LIG A   1     -11.956   1.307 122.730  0.00  0.00    +0.209 HD
ENDBRANCH  27  28
ENDBRANCH   4  27
TORSDOF 8
ENDMDL
MODEL 2
REMARK VINA RESULT:      -7.3      1.661      3.058
REMARK  Name = NuBBE_113
REMARK  8 active torsions:
REMARK  status: ('A' for Active; 'I' for Inactive)
REMARK    1  A    between atoms: C_6  and  O_8
REMARK    2  A    between atoms: O_8  and  C_9
REMARK    3  A    between atoms: C_11  and  O_13
REMARK    4  A    between atoms: C_15  and  C_17
REMARK    5  A    between atoms: C_17  and  O_18
REMARK    6  A    between atoms: C_19  and  O_21
REMARK    7  A    between atoms: C_22  and  O_24
REMARK    8  A    between atoms: C_25  and  C_27
REMARK                            x       y       z     vdW  Elec       q    Type
REMARK                         _______ _______ _______ _____ _____    ______ ____
ROOT
ATOM      1  C   LIG A   1      -7.384   1.728 125.304  0.00  0.00    +0.286 C 
ATOM      2  C   LIG A   1      -8.488   2.787 125.548  0.00  0.00    +0.201 C 
ATOM      3  O   LIG A   1      -6.135   2.205 125.789  0.00  0.00    -0.340 OA
ATOM      4  C   LIG A   1      -5.683   3.424 125.217  0.00  0.00    +0.178 C 
ATOM      5  C   LIG A   1      -6.658   4.546 125.584  0.00  0.00    +0.177 C 
ATOM      6  C   LIG A   1      -8.048   4.175 125.070  0.00  0.00    +0.179 C 
ENDROOT
BRANCH   2   7
ATOM      7  O   LIG A   1      -9.710   2.446 124.869  0.00  0.00    -0.384 OA
ATOM      8  H   LIG A   1      -9.986   3.273 124.424  0.00  0.00    +0.210 HD
ENDBRANCH   2   7
BRANCH   5   9
ATOM      9  O   LIG A   1      -6.299   5.809 125.014  0.00  0.00    -0.387 OA
ATOM     10  H   LIG A   1      -7.123   6.186 124.631  0.00  0.00    +0.210 HD
ENDBRANCH   5   9
BRANCH   6  11
ATOM     11  O   LIG A   1      -9.003   5.156 125.514  0.00  0.00    -0.386 OA
ATOM     12  H   LIG A   1      -9.866   4.828 125.187  0.00  0.00    +0.210 HD
ENDBRANCH   6  11
BRANCH   1  13
ATOM     13  O   LIG A   1      -7.738   0.531 126.021  0.00  0.00    -0.309 OA
BRANCH  13  19
ATOM     14  O   LIG A   1      -4.495  -2.515 128.717  0.00  0.00    -0.245 OA
ATOM     15  C   LIG A   1      -5.698  -2.646 128.555  0.00  0.00    +0.338 C 
ATOM     16  C   LIG A   1      -6.405  -2.077 127.386  0.00  0.00    +0.075 C 
ATOM     17  C   LIG A   1      -5.660  -1.610 126.375  0.00  0.00    +0.201 C 
ATOM     18  O   LIG A   1      -6.151  -1.077 125.209  0.00  0.00    -0.470 OA
ATOM     19  C   LIG A   1      -7.536  -0.672 125.257  0.00  0.00    +0.316 C 
ATOM     20  C   LIG A   1      -8.403  -1.818 125.860  0.00  0.00    +0.088 C 
ATOM     21  C   LIG A   1      -7.899  -2.088 127.306  0.00  0.00    +0.045 C 
ATOM     22  C   LIG A   1      -8.417  -3.371 127.947  0.00  0.00    +0.050 C 
ATOM     23  C   LIG A   1      -7.887  -3.417 129.368  0.00  0.00    +0.233 C 
ATOM     24  O   LIG A   1      -6.450  -3.367 129.423  0.00  0.00    -0.461 OA
BRANCH  20  25
ATOM     25  C   LIG A   1      -8.386  -3.038 124.949  0.00  0.00    -0.025 C 
ATOM     26  C   LIG A   1      -9.235  -3.243 123.934  0.00  0.00    +0.004 C 
ENDBRANCH  20  25
ENDBRANCH  13  19
ENDBRANCH   1  13
BRANCH   4  27
ATOM     27  C   LIG A   1      -4.282   3.693 125.780  0.00  0.00    +0.190 C 
BRANCH  27  28
ATOM     28  O   LIG A   1      -4.304   4.768 126.714  0.00  0.00    -0.392 OA
ATOM     29  H   LIG A   1      -4.399   4.361 127.596  0.00  0.00    +0.209 HD
ENDBRANCH  27  28
ENDBRANCH   4  27
TORSDOF 8
ENDMDL
MODEL 3
REMARK VINA RESULT:      -7.2      7.451      9.309
REMARK  Name = NuBBE_113
REMARK  8 active torsions:
REMARK  status: ('A' for Active; 'I' for Inactive)
REMARK    1  A    between atoms: C_6  and  O_8
REMARK    2  A    between atoms: O_8  and  C_9
REMARK    3  A    between atoms: C_11  and  O_13
REMARK    4  A    between atoms: C_15  and  C_17
REMARK    5  A    between atoms: C_17  and  O_18
REMARK    6  A    between atoms: C_19  and  O_21
REMARK    7  A    between atoms: C_22  and  O_24
REMARK    8  A    between atoms: C_25  and  C_27
REMARK                            x       y       z     vdW  Elec       q    Type
REMARK                         _______ _______ _______ _____ _____    ______ ____
ROOT
ATOM      1  C   LIG A   1      -9.590   6.181 130.683  0.00  0.00    +0.286 C 
ATOM      2  C   LIG A   1     -10.786   6.602 131.573  0.00  0.00    +0.201 C 
ATOM      3  O   LIG A   1      -9.641   6.872 129.439  0.00  0.00    -0.340 OA
ATOM      4  C   LIG A   1     -10.823   6.672 128.679  0.00  0.00    +0.178 C 
ATOM      5  C   LIG A   1     -12.020   7.237 129.448  0.00  0.00    +0.177 C 
ATOM      6  C   LIG A   1     -12.108   6.535 130.802  0.00  0.00    +0.179 C 
ENDROOT
BRANCH   2   7
ATOM      7  O   LIG A   1     -10.902   5.763 132.736  0.00  0.00    -0.384 OA
ATOM      8  H   LIG A   1     -11.116   6.378 133.467  0.00  0.00    +0.210 HD
ENDBRANCH   2   7
BRANCH   5   9
ATOM      9  O   LIG A   1     -13.266   7.044 128.769  0.00  0.00    -0.387 OA
ATOM     10  H   LIG A   1     -13.953   7.485 129.317  0.00  0.00    +0.210 HD
ENDBRANCH   5   9
BRANCH   6  11
ATOM     11  O   LIG A   1     -13.149   7.140 131.591  0.00  0.00    -0.386 OA
ATOM     12  H   LIG A   1     -12.980   8.103 131.530  0.00  0.00    +0.210 HD
ENDBRANCH   6  11
BRANCH   1  13
ATOM     13  O   LIG A   1      -8.372   6.534 131.363  0.00  0.00    -0.309 OA
BRANCH  13  19
ATOM     14  O   LIG A   1      -4.265   6.000 128.216  0.00  0.00    -0.245 OA
ATOM     15  C   LIG A   1      -4.289   6.408 129.366  0.00  0.00    +0.338 C 
ATOM     16  C   LIG A   1      -5.357   6.028 130.317  0.00  0.00    +0.075 C 
ATOM     17  C   LIG A   1      -6.179   5.031 129.965  0.00  0.00    +0.201 C 
ATOM     18  O   LIG A   1      -7.200   4.535 130.736  0.00  0.00    -0.470 OA
ATOM     19  C   LIG A   1      -7.621   5.393 131.818  0.00  0.00    +0.316 C 
ATOM     20  C   LIG A   1      -6.379   5.879 132.624  0.00  0.00    +0.088 C 
ATOM     21  C   LIG A   1      -5.468   6.687 131.656  0.00  0.00    +0.045 C 
ATOM     22  C   LIG A   1      -4.066   6.984 132.178  0.00  0.00    +0.050 C 
ATOM     23  C   LIG A   1      -3.366   7.840 131.139  0.00  0.00    +0.233 C 
ATOM     24  O   LIG A   1      -3.303   7.203 129.850  0.00  0.00    -0.461 OA
BRANCH  20  25
ATOM     25  C   LIG A   1      -5.689   4.704 133.305  0.00  0.00    -0.025 C 
ATOM     26  C   LIG A   1      -6.291   3.849 134.140  0.00  0.00    +0.004 C 
ENDBRANCH  20  25
ENDBRANCH  13  19
ENDBRANCH   1  13
BRANCH   4  27
ATOM     27  C   LIG A   1     -10.624   7.396 127.341  0.00  0.00    +0.190 C 
BRANCH  27  28
ATOM     28  O   LIG A   1     -11.320   6.731 126.292  0.00  0.00    -0.392 OA
ATOM     29  H   LIG A   1     -10.661   6.562 125.592  0.00  0.00    +0.209 HD
ENDBRANCH  27  28
ENDBRANCH   4  27
TORSDOF 8
ENDMDL
MODEL 4
REMARK VINA RESULT:      -6.7      7.367      8.863
REMARK  Name = NuBBE_113
REMARK  8 active torsions:
REMARK  status: ('A' for Active; 'I' for Inactive)
REMARK    1  A    between atoms: C_6  and  O_8
REMARK    2  A    between atoms: O_8  and  C_9
REMARK    3  A    between atoms: C_11  and  O_13
REMARK    4  A    between atoms: C_15  and  C_17
REMARK    5  A    between atoms: C_17  and  O_18
REMARK    6  A    between atoms: C_19  and  O_21
REMARK    7  A    between atoms: C_22  and  O_24
REMARK    8  A    between atoms: C_25  and  C_27
REMARK                            x       y       z     vdW  Elec       q    Type
REMARK                         _______ _______ _______ _____ _____    ______ ____
ROOT
ATOM      1  C   LIG A   1     -10.012   7.096 129.139  0.00  0.00    +0.286 C 
ATOM      2  C   LIG A   1     -10.609   6.520 127.831  0.00  0.00    +0.201 C 
ATOM      3  O   LIG A   1     -11.048   7.328 130.087  0.00  0.00    -0.340 OA
ATOM      4  C   LIG A   1     -12.074   8.215 129.666  0.00  0.00    +0.178 C 
ATOM      5  C   LIG A   1     -12.814   7.602 128.474  0.00  0.00    +0.177 C 
ATOM      6  C   LIG A   1     -11.809   7.345 127.353  0.00  0.00    +0.179 C 
ENDROOT
BRANCH   2   7
ATOM      7  O   LIG A   1      -9.636   6.490 126.772  0.00  0.00    -0.384 OA
ATOM      8  H   LIG A   1      -8.778   6.360 127.226  0.00  0.00    +0.210 HD
ENDBRANCH   2   7
BRANCH   5   9
ATOM      9  O   LIG A   1     -13.845   8.450 127.957  0.00  0.00    -0.387 OA
ATOM     10  H   LIG A   1     -14.483   7.862 127.493  0.00  0.00    +0.210 HD
ENDBRANCH   5   9
BRANCH   6  11
ATOM     11  O   LIG A   1     -12.461   6.653 126.272  0.00  0.00    -0.386 OA
ATOM     12  H   LIG A   1     -12.842   7.363 125.715  0.00  0.00    +0.210 HD
ENDBRANCH   6  11
BRANCH   1  13
ATOM     13  O   LIG A   1      -9.091   6.131 129.680  0.00  0.00    -0.309 OA
BRANCH  13  19
ATOM     14  O   LIG A   1      -9.467   3.497 134.150  0.00  0.00    -0.245 OA
ATOM     15  C   LIG A   1      -8.580   3.445 133.313  0.00  0.00    +0.338 C 
ATOM     16  C   LIG A   1      -8.294   4.568 132.394  0.00  0.00    +0.075 C 
ATOM     17  C   LIG A   1      -8.875   5.748 132.652  0.00  0.00    +0.201 C 
ATOM     18  O   LIG A   1      -8.696   6.896 131.922  0.00  0.00    -0.470 OA
ATOM     19  C   LIG A   1      -8.144   6.702 130.602  0.00  0.00    +0.316 C 
ATOM     20  C   LIG A   1      -6.886   5.786 130.683  0.00  0.00    +0.088 C 
ATOM     21  C   LIG A   1      -7.333   4.411 131.258  0.00  0.00    +0.045 C 
ATOM     22  C   LIG A   1      -6.200   3.489 131.695  0.00  0.00    +0.050 C 
ATOM     23  C   LIG A   1      -6.825   2.181 132.144  0.00  0.00    +0.233 C 
ATOM     24  O   LIG A   1      -7.773   2.361 133.211  0.00  0.00    -0.461 OA
BRANCH  20  25
ATOM     25  C   LIG A   1      -5.777   6.468 131.473  0.00  0.00    -0.025 C 
ATOM     26  C   LIG A   1      -4.837   7.257 130.939  0.00  0.00    +0.004 C 
ENDBRANCH  20  25
ENDBRANCH  13  19
ENDBRANCH   1  13
BRANCH   4  27
ATOM     27  C   LIG A   1     -13.010   8.419 130.862  0.00  0.00    +0.190 C 
BRANCH  27  28
ATOM     28  O   LIG A   1     -13.199   7.203 131.578  0.00  0.00    -0.392 OA
ATOM     29  H   LIG A   1     -12.311   6.910 131.857  0.00  0.00    +0.209 HD
ENDBRANCH  27  28
ENDBRANCH   4  27
TORSDOF 8
ENDMDL
MODEL 5
REMARK VINA RESULT:      -6.6      4.150      5.495
REMARK  Name = NuBBE_113
REMARK  8 active torsions:
REMARK  status: ('A' for Active; 'I' for Inactive)
REMARK    1  A    between atoms: C_6  and  O_8
REMARK    2  A    between atoms: O_8  and  C_9
REMARK    3  A    between atoms: C_11  and  O_13
REMARK    4  A    between atoms: C_15  and  C_17
REMARK    5  A    between atoms: C_17  and  O_18
REMARK    6  A    between atoms: C_19  and  O_21
REMARK    7  A    between atoms: C_22  and  O_24
REMARK    8  A    between atoms: C_25  and  C_27
REMARK                            x       y       z     vdW  Elec       q    Type
REMARK                         _______ _______ _______ _____ _____    ______ ____
ROOT
ATOM      1  C   LIG A   1      -8.206   0.840 130.038  0.00  0.00    +0.286 C 
ATOM      2  C   LIG A   1      -8.787   1.092 131.453  0.00  0.00    +0.201 C 
ATOM      3  O   LIG A   1      -7.662   2.046 129.513  0.00  0.00    -0.340 OA
ATOM      4  C   LIG A   1      -8.572   3.131 129.409  0.00  0.00    +0.178 C 
ATOM      5  C   LIG A   1      -9.042   3.534 130.809  0.00  0.00    +0.177 C 
ATOM      6  C   LIG A   1      -9.697   2.324 131.473  0.00  0.00    +0.179 C 
ENDROOT
BRANCH   2   7
ATOM      7  O   LIG A   1      -9.549  -0.036 131.921  0.00  0.00    -0.384 OA
ATOM      8  H   LIG A   1     -10.107   0.323 132.640  0.00  0.00    +0.210 HD
ENDBRANCH   2   7
BRANCH   5   9
ATOM      9  O   LIG A   1      -9.996   4.601 130.796  0.00  0.00    -0.387 OA
ATOM     10  H   LIG A   1     -10.114   4.858 129.853  0.00  0.00    +0.210 HD
ENDBRANCH   5   9
BRANCH   6  11
ATOM     11  O   LIG A   1     -10.031   2.646 132.835  0.00  0.00    -0.386 OA
ATOM     12  H   LIG A   1     -10.604   3.438 132.771  0.00  0.00    +0.210 HD
ENDBRANCH   6  11
BRANCH   1  13
ATOM     13  O   LIG A   1      -7.156  -0.137 130.147  0.00  0.00    -0.309 OA
BRANCH  13  19
ATOM     14  O   LIG A   1      -2.506  -2.441 129.781  0.00  0.00    -0.245 OA
ATOM     15  C   LIG A   1      -3.514  -2.853 130.334  0.00  0.00    +0.338 C 
ATOM     16  C   LIG A   1      -4.869  -2.411 129.939  0.00  0.00    +0.075 C 
ATOM     17  C   LIG A   1      -4.991  -1.723 128.795  0.00  0.00    +0.201 C 
ATOM     18  O   LIG A   1      -6.173  -1.264 128.269  0.00  0.00    -0.470 OA
ATOM     19  C   LIG A   1      -7.277  -1.212 129.197  0.00  0.00    +0.316 C 
ATOM     20  C   LIG A   1      -7.392  -2.566 129.960  0.00  0.00    +0.088 C 
ATOM     21  C   LIG A   1      -6.070  -2.782 130.750  0.00  0.00    +0.045 C 
ATOM     22  C   LIG A   1      -5.870  -4.186 131.312  0.00  0.00    +0.050 C 
ATOM     23  C   LIG A   1      -4.579  -4.177 132.110  0.00  0.00    +0.233 C 
ATOM     24  O   LIG A   1      -3.445  -3.781 131.320  0.00  0.00    -0.461 OA
BRANCH  20  25
ATOM     25  C   LIG A   1      -7.744  -3.694 129.000  0.00  0.00    -0.025 C 
ATOM     26  C   LIG A   1      -8.758  -3.663 128.128  0.00  0.00    +0.004 C 
ENDBRANCH  20  25
ENDBRANCH  13  19
ENDBRANCH   1  13
BRANCH   4  27
ATOM     27  C   LIG A   1      -7.826   4.278 128.716  0.00  0.00    +0.190 C 
BRANCH  27  28
ATOM     28  O   LIG A   1      -8.730   5.131 128.021  0.00  0.00    -0.392 OA
ATOM     29  H   LIG A   1      -9.617   4.935 128.378  0.00  0.00    +0.209 HD
ENDBRANCH  27  28
ENDBRANCH   4  27
TORSDOF 8
ENDMDL
MODEL 6
REMARK VINA RESULT:      -6.5      4.816      7.384
REMARK  Name = NuBBE_113
REMARK  8 active torsions:
REMARK  status: ('A' for Active; 'I' for Inactive)
REMARK    1  A    between atoms: C_6  and  O_8
REMARK    2  A    between atoms: O_8  and  C_9
REMARK    3  A    between atoms: C_11  and  O_13
REMARK    4  A    between atoms: C_15  and  C_17
REMARK    5  A    between atoms: C_17  and  O_18
REMARK    6  A    between atoms: C_19  and  O_21
REMARK    7  A    between atoms: C_22  and  O_24
REMARK    8  A    between atoms: C_25  and  C_27
REMARK                            x       y       z     vdW  Elec       q    Type
REMARK                         _______ _______ _______ _____ _____    ______ ____
ROOT
ATOM      1  C   LIG A   1      -8.714   4.164 129.697  0.00  0.00    +0.286 C 
ATOM      2  C   LIG A   1      -9.725   5.309 129.436  0.00  0.00    +0.201 C 
ATOM      3  O   LIG A   1      -9.006   3.529 130.936  0.00  0.00    -0.340 OA
ATOM      4  C   LIG A   1      -8.987   4.375 132.076  0.00  0.00    +0.178 C 
ATOM      5  C   LIG A   1     -10.095   5.423 131.945  0.00  0.00    +0.177 C 
ATOM      6  C   LIG A   1      -9.867   6.219 130.661  0.00  0.00    +0.179 C 
ENDROOT
BRANCH   2   7
ATOM      7  O   LIG A   1      -9.327   6.123 128.318  0.00  0.00    -0.384 OA
ATOM      8  H   LIG A   1      -8.704   5.563 127.812  0.00  0.00    +0.210 HD
ENDBRANCH   2   7
BRANCH   5   9
ATOM      9  O   LIG A   1     -10.125   6.348 133.038  0.00  0.00    -0.387 OA
ATOM     10  H   LIG A   1      -9.833   7.215 132.677  0.00  0.00    +0.210 HD
ENDBRANCH   5   9
BRANCH   6  11
ATOM     11  O   LIG A   1     -10.967   7.124 130.455  0.00  0.00    -0.386 OA
ATOM     12  H   LIG A   1     -11.280   7.346 131.356  0.00  0.00    +0.210 HD
ENDBRANCH   6  11
BRANCH   1  13
ATOM     13  O   LIG A   1      -8.837   3.200 128.636  0.00  0.00    -0.309 OA
BRANCH  13  19
ATOM     14  O   LIG A   1      -9.651  -1.109 125.838  0.00  0.00    -0.245 OA
ATOM     15  C   LIG A   1      -9.434   0.024 125.438  0.00  0.00    +0.338 C 
ATOM     16  C   LIG A   1      -8.708   1.024 126.251  0.00  0.00    +0.075 C 
ATOM     17  C   LIG A   1      -8.078   0.593 127.352  0.00  0.00    +0.201 C 
ATOM     18  O   LIG A   1      -7.337   1.377 128.200  0.00  0.00    -0.470 OA
ATOM     19  C   LIG A   1      -7.571   2.796 128.081  0.00  0.00    +0.316 C 
ATOM     20  C   LIG A   1      -7.505   3.222 126.584  0.00  0.00    +0.088 C 
ATOM     21  C   LIG A   1      -8.620   2.454 125.819  0.00  0.00    +0.045 C 
ATOM     22  C   LIG A   1      -8.520   2.505 124.298  0.00  0.00    +0.050 C 
ATOM     23  C   LIG A   1      -9.727   1.776 123.738  0.00  0.00    +0.233 C 
ATOM     24  O   LIG A   1      -9.812   0.415 124.196  0.00  0.00    -0.461 OA
BRANCH  20  25
ATOM     25  C   LIG A   1      -6.101   3.012 126.029  0.00  0.00    -0.025 C 
ATOM     26  C   LIG A   1      -5.147   3.949 125.998  0.00  0.00    +0.004 C 
ENDBRANCH  20  25
ENDBRANCH  13  19
ENDBRANCH   1  13
BRANCH   4  27
ATOM     27  C   LIG A   1      -9.204   3.481 133.303  0.00  0.00    +0.190 C 
BRANCH  27  28
ATOM     28  O   LIG A   1      -9.073   4.227 134.509  0.00  0.00    -0.392 OA
ATOM     29  H   LIG A   1      -9.899   4.083 135.008  0.00  0.00    +0.209 HD
ENDBRANCH  27  28
ENDBRANCH   4  27
TORSDOF 8
ENDMDL
MODEL 7
REMARK VINA RESULT:      -6.4      2.078      4.264
REMARK  Name = NuBBE_113
REMARK  8 active torsions:
REMARK  status: ('A' for Active; 'I' for Inactive)
REMARK    1  A    between atoms: C_6  and  O_8
REMARK    2  A    between atoms: O_8  and  C_9
REMARK    3  A    between atoms: C_11  and  O_13
REMARK    4  A    between atoms: C_15  and  C_17
REMARK    5  A    between atoms: C_17  and  O_18
REMARK    6  A    between atoms: C_19  and  O_21
REMARK    7  A    between atoms: C_22  and  O_24
REMARK    8  A    between atoms: C_25  and  C_27
REMARK                            x       y       z     vdW  Elec       q    Type
REMARK                         _______ _______ _______ _____ _____    ______ ____
ROOT
ATOM      1  C   LIG A   1      -7.025  -1.971 125.121  0.00  0.00    +0.286 C 
ATOM      2  C   LIG A   1      -8.162  -2.959 124.758  0.00  0.00    +0.201 C 
ATOM      3  O   LIG A   1      -7.529  -0.641 125.159  0.00  0.00    -0.340 OA
ATOM      4  C   LIG A   1      -8.121  -0.178 123.955  0.00  0.00    +0.178 C 
ATOM      5  C   LIG A   1      -9.362  -1.019 123.646  0.00  0.00    +0.177 C 
ATOM      6  C   LIG A   1      -8.945  -2.484 123.531  0.00  0.00    +0.179 C 
ENDROOT
BRANCH   2   7
ATOM      7  O   LIG A   1      -7.652  -4.276 124.482  0.00  0.00    -0.384 OA
ATOM      8  H   LIG A   1      -7.626  -4.721 125.353  0.00  0.00    +0.210 HD
ENDBRANCH   2   7
BRANCH   5   9
ATOM      9  O   LIG A   1     -10.004  -0.644 122.422  0.00  0.00    -0.387 OA
ATOM     10  H   LIG A   1     -10.953  -0.503 122.637  0.00  0.00    +0.210 HD
ENDBRANCH   5   9
BRANCH   6  11
ATOM     11  O   LIG A   1     -10.116  -3.305 123.366  0.00  0.00    -0.386 OA
ATOM     12  H   LIG A   1     -10.554  -3.294 124.242  0.00  0.00    +0.210 HD
ENDBRANCH   6  11
BRANCH   1  13
ATOM     13  O   LIG A   1      -6.522  -2.318 126.424  0.00  0.00    -0.309 OA
BRANCH  13  19
ATOM     14  O   LIG A   1      -5.674  -5.146 130.707  0.00  0.00    -0.245 OA
ATOM     15  C   LIG A   1      -5.227  -4.045 130.425  0.00  0.00    +0.338 C 
ATOM     16  C   LIG A   1      -5.916  -3.126 129.493  0.00  0.00    +0.075 C 
ATOM     17  C   LIG A   1      -7.173  -3.426 129.139  0.00  0.00    +0.201 C 
ATOM     18  O   LIG A   1      -7.965  -2.671 128.310  0.00  0.00    -0.470 OA
ATOM     19  C   LIG A   1      -7.258  -1.708 127.501  0.00  0.00    +0.316 C 
ATOM     20  C   LIG A   1      -6.282  -0.881 128.390  0.00  0.00    +0.088 C 
ATOM     21  C   LIG A   1      -5.258  -1.869 129.020  0.00  0.00    +0.045 C 
ATOM     22  C   LIG A   1      -4.415  -1.296 130.155  0.00  0.00    +0.050 C 
ATOM     23  C   LIG A   1      -3.432  -2.372 130.579  0.00  0.00    +0.233 C 
ATOM     24  O   LIG A   1      -4.085  -3.584 130.994  0.00  0.00    -0.461 OA
BRANCH  20  25
ATOM     25  C   LIG A   1      -7.056  -0.047 129.403  0.00  0.00    -0.025 C 
ATOM     26  C   LIG A   1      -7.997   0.851 129.087  0.00  0.00    +0.004 C 
ENDBRANCH  20  25
ENDBRANCH  13  19
ENDBRANCH   1  13
BRANCH   4  27
ATOM     27  C   LIG A   1      -8.482   1.297 124.170  0.00  0.00    +0.190 C 
BRANCH  27  28
ATOM     28  O   LIG A   1      -9.853   1.440 124.530  0.00  0.00    -0.392 OA
ATOM     29  H   LIG A   1     -10.314   0.662 124.162  0.00  0.00    +0.209 HD
ENDBRANCH  27  28
ENDBRANCH   4  27
TORSDOF 8
ENDMDL
MODEL 8
REMARK VINA RESULT:      -6.4      4.460      6.290
REMARK  Name = NuBBE_113
REMARK  8 active torsions:
REMARK  status: ('A' for Active; 'I' for Inactive)
REMARK    1  A    between atoms: C_6  and  O_8
REMARK    2  A    between atoms: O_8  and  C_9
REMARK    3  A    between atoms: C_11  and  O_13
REMARK    4  A    between atoms: C_15  and  C_17
REMARK    5  A    between atoms: C_17  and  O_18
REMARK    6  A    between atoms: C_19  and  O_21
REMARK    7  A    between atoms: C_22  and  O_24
REMARK    8  A    between atoms: C_25  and  C_27
REMARK                            x       y       z     vdW  Elec       q    Type
REMARK                         _______ _______ _______ _____ _____    ______ ____
ROOT
ATOM      1  C   LIG A   1      -6.280   3.897 125.672  0.00  0.00    +0.286 C 
ATOM      2  C   LIG A   1      -7.793   3.614 125.848  0.00  0.00    +0.201 C 
ATOM      3  O   LIG A   1      -6.015   4.319 124.339  0.00  0.00    -0.340 OA
ATOM      4  C   LIG A   1      -6.394   3.403 123.322  0.00  0.00    +0.178 C 
ATOM      5  C   LIG A   1      -7.914   3.226 123.343  0.00  0.00    +0.177 C 
ATOM      6  C   LIG A   1      -8.330   2.723 124.724  0.00  0.00    +0.179 C 
ENDROOT
BRANCH   2   7
ATOM      7  O   LIG A   1      -8.069   2.967 127.103  0.00  0.00    -0.384 OA
ATOM      8  H   LIG A   1      -8.747   3.529 127.530  0.00  0.00    +0.210 HD
ENDBRANCH   2   7
BRANCH   5   9
ATOM      9  O   LIG A   1      -8.383   2.286 122.370  0.00  0.00    -0.387 OA
ATOM     10  H   LIG A   1      -8.542   1.443 122.852  0.00  0.00    +0.210 HD
ENDBRANCH   5   9
BRANCH   6  11
ATOM     11  O   LIG A   1      -9.766   2.671 124.804  0.00  0.00    -0.386 OA
ATOM     12  H   LIG A   1     -10.078   3.083 123.971  0.00  0.00    +0.210 HD
ENDBRANCH   6  11
BRANCH   1  13
ATOM     13  O   LIG A   1      -5.906   4.950 126.578  0.00  0.00    -0.309 OA
BRANCH  13  19
ATOM     14  O   LIG A   1      -5.219   5.801 131.664  0.00  0.00    -0.245 OA
ATOM     15  C   LIG A   1      -5.035   4.770 131.037  0.00  0.00    +0.338 C 
ATOM     16  C   LIG A   1      -4.742   4.768 129.587  0.00  0.00    +0.075 C 
ATOM     17  C   LIG A   1      -4.446   5.940 129.010  0.00  0.00    +0.201 C 
ATOM     18  O   LIG A   1      -4.123   6.113 127.687  0.00  0.00    -0.470 OA
ATOM     19  C   LIG A   1      -4.489   5.019 126.820  0.00  0.00    +0.316 C 
ATOM     20  C   LIG A   1      -4.003   3.671 127.432  0.00  0.00    +0.088 C 
ATOM     21  C   LIG A   1      -4.707   3.491 128.808  0.00  0.00    +0.045 C 
ATOM     22  C   LIG A   1      -4.134   2.389 129.693  0.00  0.00    +0.050 C 
ATOM     23  C   LIG A   1      -4.994   2.313 130.940  0.00  0.00    +0.233 C 
ATOM     24  O   LIG A   1      -5.044   3.562 131.653  0.00  0.00    -0.461 OA
BRANCH  20  25
ATOM     25  C   LIG A   1      -2.482   3.628 127.493  0.00  0.00    -0.025 C 
ATOM     26  C   LIG A   1      -1.699   3.069 126.563  0.00  0.00    +0.004 C 
ENDBRANCH  20  25
ENDBRANCH  13  19
ENDBRANCH   1  13
BRANCH   4  27
ATOM     27  C   LIG A   1      -5.916   3.990 121.988  0.00  0.00    +0.190 C 
BRANCH  27  28
ATOM     28  O   LIG A   1      -4.860   4.925 122.190  0.00  0.00    -0.392 OA
ATOM     29  H   LIG A   1      -4.946   5.588 121.479  0.00  0.00    +0.209 HD
ENDBRANCH  27  28
ENDBRANCH   4  27
TORSDOF 8
ENDMDL
MODEL 9
REMARK VINA RESULT:      -6.4      1.968      2.619
REMARK  Name = NuBBE_113
REMARK  8 active torsions:
REMARK  status: ('A' for Active; 'I' for Inactive)
REMARK    1  A    between atoms: C_6  and  O_8
REMARK    2  A    between atoms: O_8  and  C_9
REMARK    3  A    between atoms: C_11  and  O_13
REMARK    4  A    between atoms: C_15  and  C_17
REMARK    5  A    between atoms: C_17  and  O_18
REMARK    6  A    between atoms: C_19  and  O_21
REMARK    7  A    between atoms: C_22  and  O_24
REMARK    8  A    between atoms: C_25  and  C_27
REMARK                            x       y       z     vdW  Elec       q    Type
REMARK                         _______ _______ _______ _____ _____    ______ ____
ROOT
ATOM      1  C   LIG A   1      -7.654   0.881 127.846  0.00  0.00    +0.286 C 
ATOM      2  C   LIG A   1      -6.891   2.226 127.751  0.00  0.00    +0.201 C 
ATOM      3  O   LIG A   1      -8.141   0.505 126.564  0.00  0.00    -0.340 OA
ATOM      4  C   LIG A   1      -9.012   1.440 125.943  0.00  0.00    +0.178 C 
ATOM      5  C   LIG A   1      -8.247   2.736 125.666  0.00  0.00    +0.177 C 
ATOM      6  C   LIG A   1      -7.704   3.277 126.987  0.00  0.00    +0.179 C 
ENDROOT
BRANCH   2   7
ATOM      7  O   LIG A   1      -6.586   2.756 129.054  0.00  0.00    -0.384 OA
ATOM      8  H   LIG A   1      -5.748   2.319 129.310  0.00  0.00    +0.210 HD
ENDBRANCH   2   7
BRANCH   5   9
ATOM      9  O   LIG A   1      -9.061   3.753 125.073  0.00  0.00    -0.387 OA
ATOM     10  H   LIG A   1      -9.827   3.883 125.677  0.00  0.00    +0.210 HD
ENDBRANCH   5   9
BRANCH   6  11
ATOM     11  O   LIG A   1      -6.876   4.426 126.733  0.00  0.00    -0.386 OA
ATOM     12  H   LIG A   1      -7.187   5.104 127.368  0.00  0.00    +0.210 HD
ENDBRANCH   6  11
BRANCH   1  13
ATOM     13  O   LIG A   1      -6.738  -0.127 128.312  0.00  0.00    -0.309 OA
BRANCH  13  19
ATOM     14  O   LIG A   1      -2.826  -3.282 129.653  0.00  0.00    -0.245 OA
ATOM     15  C   LIG A   1      -3.933  -3.191 130.160  0.00  0.00    +0.338 C 
ATOM     16  C   LIG A   1      -5.106  -2.690 129.412  0.00  0.00    +0.075 C 
ATOM     17  C   LIG A   1      -4.988  -2.558 128.083  0.00  0.00    +0.201 C 
ATOM     18  O   LIG A   1      -5.983  -2.136 127.237  0.00  0.00    -0.470 OA
ATOM     19  C   LIG A   1      -7.083  -1.456 127.877  0.00  0.00    +0.316 C 
ATOM     20  C   LIG A   1      -7.582  -2.285 129.098  0.00  0.00    +0.088 C 
ATOM     21  C   LIG A   1      -6.402  -2.410 130.105  0.00  0.00    +0.045 C 
ATOM     22  C   LIG A   1      -6.600  -3.438 131.214  0.00  0.00    +0.050 C 
ATOM     23  C   LIG A   1      -5.393  -3.355 132.131  0.00  0.00    +0.233 C 
ATOM     24  O   LIG A   1      -4.156  -3.590 131.436  0.00  0.00    -0.461 OA
BRANCH  20  25
ATOM     25  C   LIG A   1      -8.162  -3.617 128.640  0.00  0.00    -0.025 C 
ATOM     26  C   LIG A   1      -8.976  -3.770 127.588  0.00  0.00    +0.004 C 
ENDBRANCH  20  25
ENDBRANCH  13  19
ENDBRANCH   1  13
BRANCH   4  27
ATOM     27  C   LIG A   1      -9.511   0.795 124.645  0.00  0.00    +0.190 C 
BRANCH  27  28
ATOM     28  O   LIG A   1     -10.713   1.413 124.196  0.00  0.00    -0.392 OA
ATOM     29  H   LIG A   1     -10.492   1.862 123.358  0.00  0.00    +0.209 HD
ENDBRANCH  27  28
ENDBRANCH   4  27
TORSDOF 8
ENDMDL
