MODEL 1
REMARK VINA RESULT:      -4.4      0.000      0.000
REMARK  Name = NuBBE_1383
REMARK  7 active torsions:
REMARK  status: ('A' for Active; 'I' for Inactive)
REMARK    1  A    between atoms: C_1  and  C_2
REMARK    2  A    between atoms: C_2  and  C_3
REMARK    3  A    between atoms: C_3  and  C_4
REMARK    4  A    between atoms: C_4  and  C_5
REMARK    5  A    between atoms: C_5  and  C_6
REMARK    6  A    between atoms: C_6  and  C_7
REMARK    7  A    between atoms: C_7  and  C_8
REMARK                            x       y       z     vdW  Elec       q    Type
REMARK                         _______ _______ _______ _____ _____    ______ ____
ROOT
ATOM      1  C   LIG A   1      -6.846  -1.905 123.412  0.00  0.00    +0.000 C 
ENDROOT
BRANCH   1   2
ATOM      2  C   LIG A   1      -8.141  -2.125 122.622  0.00  0.00    -0.000 C 
BRANCH   2   3
ATOM      3  C   LIG A   1      -9.116  -3.048 123.363  0.00  0.00    -0.000 C 
BRANCH   3   5
ATOM      4  C   LIG A   1      -9.446  -2.970 125.889  0.00  0.00    +0.004 C 
ATOM      5  C   LIG A   1      -8.608  -3.502 124.737  0.00  0.00    -0.003 C 
ENDBRANCH   3   5
ENDBRANCH   2   3
ENDBRANCH   1   2
BRANCH   1   6
ATOM      6  C   LIG A   1      -5.656  -2.621 122.760  0.00  0.00    +0.007 C 
BRANCH   6   7
ATOM      7  C   LIG A   1      -4.716  -3.226 123.801  0.00  0.00    +0.071 C 
BRANCH   7   8
ATOM      8  C   LIG A   1      -4.652  -4.738 123.743  0.00  0.00    +0.223 C 
ATOM      9  O   LIG A   1      -4.094  -5.383 122.865  0.00  0.00    -0.301 OA
ENDBRANCH   7   8
ENDBRANCH   6   7
ENDBRANCH   1   6
TORSDOF 6
ENDMDL
MODEL 2
REMARK VINA RESULT:      -4.4      2.513      4.382
REMARK  Name = NuBBE_1383
REMARK  7 active torsions:
REMARK  status: ('A' for Active; 'I' for Inactive)
REMARK    1  A    between atoms: C_1  and  C_2
REMARK    2  A    between atoms: C_2  and  C_3
REMARK    3  A    between atoms: C_3  and  C_4
REMARK    4  A    between atoms: C_4  and  C_5
REMARK    5  A    between atoms: C_5  and  C_6
REMARK    6  A    between atoms: C_6  and  C_7
REMARK    7  A    between atoms: C_7  and  C_8
REMARK                            x       y       z     vdW  Elec       q    Type
REMARK                         _______ _______ _______ _____ _____    ______ ____
ROOT
ATOM      1  C   LIG A   1      -7.557  -1.427 123.320  0.00  0.00    +0.000 C 
ENDROOT
BRANCH   1   2
ATOM      2  C   LIG A   1      -6.281  -1.940 122.643  0.00  0.00    -0.000 C 
BRANCH   2   3
ATOM      3  C   LIG A   1      -5.253  -2.443 123.664  0.00  0.00    -0.000 C 
BRANCH   3   5
ATOM      4  C   LIG A   1      -4.276  -4.791 123.509  0.00  0.00    +0.004 C 
ATOM      5  C   LIG A   1      -5.416  -3.924 124.023  0.00  0.00    -0.003 C 
ENDBRANCH   3   5
ENDBRANCH   2   3
ENDBRANCH   1   2
BRANCH   1   6
ATOM      6  C   LIG A   1      -8.802  -2.171 122.820  0.00  0.00    +0.007 C 
BRANCH   6   7
ATOM      7  C   LIG A   1      -9.146  -3.366 123.707  0.00  0.00    +0.071 C 
BRANCH   7   8
ATOM      8  C   LIG A   1      -9.135  -3.036 125.185  0.00  0.00    +0.223 C 
ATOM      9  O   LIG A   1      -9.911  -2.269 125.738  0.00  0.00    -0.301 OA
ENDBRANCH   7   8
ENDBRANCH   6   7
ENDBRANCH   1   6
TORSDOF 6
ENDMDL
MODEL 3
REMARK VINA RESULT:      -4.3     12.008     13.183
REMARK  Name = NuBBE_1383
REMARK  7 active torsions:
REMARK  status: ('A' for Active; 'I' for Inactive)
REMARK    1  A    between atoms: C_1  and  C_2
REMARK    2  A    between atoms: C_2  and  C_3
REMARK    3  A    between atoms: C_3  and  C_4
REMARK    4  A    between atoms: C_4  and  C_5
REMARK    5  A    between atoms: C_5  and  C_6
REMARK    6  A    between atoms: C_6  and  C_7
REMARK    7  A    between atoms: C_7  and  C_8
REMARK                            x       y       z     vdW  Elec       q    Type
REMARK                         _______ _______ _______ _____ _____    ______ ____
ROOT
ATOM      1  C   LIG A   1     -12.624   8.649 129.887  0.00  0.00    +0.000 C 
ENDROOT
BRANCH   1   2
ATOM      2  C   LIG A   1     -12.853   7.173 130.233  0.00  0.00    -0.000 C 
BRANCH   2   3
ATOM      3  C   LIG A   1     -12.032   6.737 131.453  0.00  0.00    -0.000 C 
BRANCH   3   5
ATOM      4  C   LIG A   1      -9.506   6.650 131.123  0.00  0.00    +0.004 C 
ATOM      5  C   LIG A   1     -10.814   5.875 131.098  0.00  0.00    -0.003 C 
ENDBRANCH   3   5
ENDBRANCH   2   3
ENDBRANCH   1   2
BRANCH   1   6
ATOM      6  C   LIG A   1     -12.325   8.841 128.394  0.00  0.00    +0.007 C 
BRANCH   6   7
ATOM      7  C   LIG A   1     -10.984   8.226 128.000  0.00  0.00    +0.071 C 
BRANCH   7   8
ATOM      8  C   LIG A   1     -11.033   7.480 126.682  0.00  0.00    +0.223 C 
ATOM      9  O   LIG A   1     -10.248   6.605 126.343  0.00  0.00    -0.301 OA
ENDBRANCH   7   8
ENDBRANCH   6   7
ENDBRANCH   1   6
TORSDOF 6
ENDMDL
MODEL 4
REMARK VINA RESULT:      -4.2      2.757      4.740
REMARK  Name = NuBBE_1383
REMARK  7 active torsions:
REMARK  status: ('A' for Active; 'I' for Inactive)
REMARK    1  A    between atoms: C_1  and  C_2
REMARK    2  A    between atoms: C_2  and  C_3
REMARK    3  A    between atoms: C_3  and  C_4
REMARK    4  A    between atoms: C_4  and  C_5
REMARK    5  A    between atoms: C_5  and  C_6
REMARK    6  A    between atoms: C_6  and  C_7
REMARK    7  A    between atoms: C_7  and  C_8
REMARK                            x       y       z     vdW  Elec       q    Type
REMARK                         _______ _______ _______ _____ _____    ______ ____
ROOT
ATOM      1  C   LIG A   1      -7.725  -3.827 124.502  0.00  0.00    +0.000 C 
ENDROOT
BRANCH   1   2
ATOM      2  C   LIG A   1      -6.956  -2.767 125.298  0.00  0.00    -0.000 C 
BRANCH   2   3
ATOM      3  C   LIG A   1      -5.465  -2.751 124.939  0.00  0.00    -0.000 C 
BRANCH   3   5
ATOM      4  C   LIG A   1      -4.216  -4.510 123.582  0.00  0.00    +0.004 C 
ATOM      5  C   LIG A   1      -5.161  -3.318 123.548  0.00  0.00    -0.003 C 
ENDBRANCH   3   5
ENDBRANCH   2   3
ENDBRANCH   1   2
BRANCH   1   6
ATOM      6  C   LIG A   1      -9.044  -3.273 123.947  0.00  0.00    +0.007 C 
BRANCH   6   7
ATOM      7  C   LIG A   1      -8.814  -2.332 122.767  0.00  0.00    +0.071 C 
BRANCH   7   8
ATOM      8  C   LIG A   1      -9.074  -0.878 123.103  0.00  0.00    +0.223 C 
ATOM      9  O   LIG A   1      -9.650  -0.482 124.106  0.00  0.00    -0.301 OA
ENDBRANCH   7   8
ENDBRANCH   6   7
ENDBRANCH   1   6
TORSDOF 6
ENDMDL
MODEL 5
REMARK VINA RESULT:      -4.1     12.019     13.322
REMARK  Name = NuBBE_1383
REMARK  7 active torsions:
REMARK  status: ('A' for Active; 'I' for Inactive)
REMARK    1  A    between atoms: C_1  and  C_2
REMARK    2  A    between atoms: C_2  and  C_3
REMARK    3  A    between atoms: C_3  and  C_4
REMARK    4  A    between atoms: C_4  and  C_5
REMARK    5  A    between atoms: C_5  and  C_6
REMARK    6  A    between atoms: C_6  and  C_7
REMARK    7  A    between atoms: C_7  and  C_8
REMARK                            x       y       z     vdW  Elec       q    Type
REMARK                         _______ _______ _______ _____ _____    ______ ____
ROOT
ATOM      1  C   LIG A   1     -12.954   7.362 130.564  0.00  0.00    +0.000 C 
ENDROOT
BRANCH   1   2
ATOM      2  C   LIG A   1     -12.636   8.713 129.911  0.00  0.00    -0.000 C 
BRANCH   2   3
ATOM      3  C   LIG A   1     -13.277   8.843 128.524  0.00  0.00    -0.000 C 
BRANCH   3   5
ATOM      4  C   LIG A   1     -12.660   7.044 126.828  0.00  0.00    +0.004 C 
ATOM      5  C   LIG A   1     -13.650   7.498 127.890  0.00  0.00    -0.003 C 
ENDBRANCH   3   5
ENDBRANCH   2   3
ENDBRANCH   1   2
BRANCH   1   6
ATOM      6  C   LIG A   1     -11.703   6.722 131.180  0.00  0.00    +0.007 C 
BRANCH   6   7
ATOM      7  C   LIG A   1     -11.017   5.764 130.208  0.00  0.00    +0.071 C 
BRANCH   7   8
ATOM      8  C   LIG A   1      -9.925   6.422 129.389  0.00  0.00    +0.223 C 
ATOM      9  O   LIG A   1      -9.319   7.433 129.714  0.00  0.00    -0.301 OA
ENDBRANCH   7   8
ENDBRANCH   6   7
ENDBRANCH   1   6
TORSDOF 6
ENDMDL
MODEL 6
REMARK VINA RESULT:      -4.1     11.638     13.095
REMARK  Name = NuBBE_1383
REMARK  7 active torsions:
REMARK  status: ('A' for Active; 'I' for Inactive)
REMARK    1  A    between atoms: C_1  and  C_2
REMARK    2  A    between atoms: C_2  and  C_3
REMARK    3  A    between atoms: C_3  and  C_4
REMARK    4  A    between atoms: C_4  and  C_5
REMARK    5  A    between atoms: C_5  and  C_6
REMARK    6  A    between atoms: C_6  and  C_7
REMARK    7  A    between atoms: C_7  and  C_8
REMARK                            x       y       z     vdW  Elec       q    Type
REMARK                         _______ _______ _______ _____ _____    ______ ____
ROOT
ATOM      1  C   LIG A   1     -12.748   7.674 130.860  0.00  0.00    +0.000 C 
ENDROOT
BRANCH   1   2
ATOM      2  C   LIG A   1     -13.111   7.356 129.405  0.00  0.00    -0.000 C 
BRANCH   2   3
ATOM      3  C   LIG A   1     -12.689   8.480 128.450  0.00  0.00    -0.000 C 
BRANCH   3   5
ATOM      4  C   LIG A   1     -10.949   7.629 126.794  0.00  0.00    +0.004 C 
ATOM      5  C   LIG A   1     -11.207   8.431 128.060  0.00  0.00    -0.003 C 
ENDBRANCH   3   5
ENDBRANCH   2   3
ENDBRANCH   1   2
BRANCH   1   6
ATOM      6  C   LIG A   1     -11.928   6.545 131.499  0.00  0.00    +0.007 C 
BRANCH   6   7
ATOM      7  C   LIG A   1     -10.441   6.668 131.175  0.00  0.00    +0.071 C 
BRANCH   7   8
ATOM      8  C   LIG A   1      -9.923   5.540 130.307  0.00  0.00    +0.223 C 
ATOM      9  O   LIG A   1     -10.572   4.964 129.445  0.00  0.00    -0.301 OA
ENDBRANCH   7   8
ENDBRANCH   6   7
ENDBRANCH   1   6
TORSDOF 6
ENDMDL
MODEL 7
REMARK VINA RESULT:      -4.0      3.631      4.559
REMARK  Name = NuBBE_1383
REMARK  7 active torsions:
REMARK  status: ('A' for Active; 'I' for Inactive)
REMARK    1  A    between atoms: C_1  and  C_2
REMARK    2  A    between atoms: C_2  and  C_3
REMARK    3  A    between atoms: C_3  and  C_4
REMARK    4  A    between atoms: C_4  and  C_5
REMARK    5  A    between atoms: C_5  and  C_6
REMARK    6  A    between atoms: C_6  and  C_7
REMARK    7  A    between atoms: C_7  and  C_8
REMARK                            x       y       z     vdW  Elec       q    Type
REMARK                         _______ _______ _______ _____ _____    ______ ____
ROOT
ATOM      1  C   LIG A   1      -9.412  -3.132 123.529  0.00  0.00    +0.000 C 
ENDROOT
BRANCH   1   2
ATOM      2  C   LIG A   1      -8.565  -3.541 124.739  0.00  0.00    -0.000 C 
BRANCH   2   3
ATOM      3  C   LIG A   1      -9.260  -3.204 126.064  0.00  0.00    -0.000 C 
BRANCH   3   5
ATOM      4  C   LIG A   1      -8.604  -3.576 128.499  0.00  0.00    +0.004 C 
ATOM      5  C   LIG A   1      -8.288  -2.854 127.197  0.00  0.00    -0.003 C 
ENDBRANCH   3   5
ENDBRANCH   2   3
ENDBRANCH   1   2
BRANCH   1   6
ATOM      6  C   LIG A   1      -8.687  -2.102 122.652  0.00  0.00    +0.007 C 
BRANCH   6   7
ATOM      7  C   LIG A   1      -8.489  -0.774 123.379  0.00  0.00    +0.071 C 
BRANCH   7   8
ATOM      8  C   LIG A   1      -9.608   0.216 123.132  0.00  0.00    +0.223 C 
ATOM      9  O   LIG A   1     -10.504   0.071 122.312  0.00  0.00    -0.301 OA
ENDBRANCH   7   8
ENDBRANCH   6   7
ENDBRANCH   1   6
TORSDOF 6
ENDMDL
MODEL 8
REMARK VINA RESULT:      -3.8      3.554      5.040
REMARK  Name = NuBBE_1383
REMARK  7 active torsions:
REMARK  status: ('A' for Active; 'I' for Inactive)
REMARK    1  A    between atoms: C_1  and  C_2
REMARK    2  A    between atoms: C_2  and  C_3
REMARK    3  A    between atoms: C_3  and  C_4
REMARK    4  A    between atoms: C_4  and  C_5
REMARK    5  A    between atoms: C_5  and  C_6
REMARK    6  A    between atoms: C_6  and  C_7
REMARK    7  A    between atoms: C_7  and  C_8
REMARK                            x       y       z     vdW  Elec       q    Type
REMARK                         _______ _______ _______ _____ _____    ______ ____
ROOT
ATOM      1  C   LIG A   1      -8.361  -2.862 126.981  0.00  0.00    +0.000 C 
ENDROOT
BRANCH   1   2
ATOM      2  C   LIG A   1      -9.382  -2.994 125.845  0.00  0.00    -0.000 C 
BRANCH   2   3
ATOM      3  C   LIG A   1      -8.765  -3.626 124.591  0.00  0.00    -0.000 C 
BRANCH   3   5
ATOM      4  C   LIG A   1      -9.068  -1.658 123.001  0.00  0.00    +0.004 C 
ATOM      5  C   LIG A   1      -9.380  -3.121 123.281  0.00  0.00    -0.003 C 
ENDBRANCH   3   5
ENDBRANCH   2   3
ENDBRANCH   1   2
BRANCH   1   6
ATOM      6  C   LIG A   1      -8.729  -3.746 128.179  0.00  0.00    +0.007 C 
BRANCH   6   7
ATOM      7  C   LIG A   1      -8.156  -3.201 129.486  0.00  0.00    +0.071 C 
BRANCH   7   8
ATOM      8  C   LIG A   1      -6.776  -3.737 129.803  0.00  0.00    +0.223 C 
ATOM      9  O   LIG A   1      -5.774  -3.051 129.951  0.00  0.00    -0.301 OA
ENDBRANCH   7   8
ENDBRANCH   6   7
ENDBRANCH   1   6
TORSDOF 6
ENDMDL
MODEL 9
REMARK VINA RESULT:      -3.8      3.451      4.965
REMARK  Name = NuBBE_1383
REMARK  7 active torsions:
REMARK  status: ('A' for Active; 'I' for Inactive)
REMARK    1  A    between atoms: C_1  and  C_2
REMARK    2  A    between atoms: C_2  and  C_3
REMARK    3  A    between atoms: C_3  and  C_4
REMARK    4  A    between atoms: C_4  and  C_5
REMARK    5  A    between atoms: C_5  and  C_6
REMARK    6  A    between atoms: C_6  and  C_7
REMARK    7  A    between atoms: C_7  and  C_8
REMARK                            x       y       z     vdW  Elec       q    Type
REMARK                         _______ _______ _______ _____ _____    ______ ____
ROOT
ATOM      1  C   LIG A   1      -8.005  -2.143 122.502  0.00  0.00    +0.000 C 
ENDROOT
BRANCH   1   2
ATOM      2  C   LIG A   1      -6.584  -1.599 122.698  0.00  0.00    -0.000 C 
BRANCH   2   3
ATOM      3  C   LIG A   1      -5.656  -2.639 123.337  0.00  0.00    -0.000 C 
BRANCH   3   5
ATOM      4  C   LIG A   1      -5.527  -1.093 125.359  0.00  0.00    +0.004 C 
ATOM      5  C   LIG A   1      -5.570  -2.531 124.864  0.00  0.00    -0.003 C 
ENDBRANCH   3   5
ENDBRANCH   2   3
ENDBRANCH   1   2
BRANCH   1   6
ATOM      6  C   LIG A   1      -8.968  -1.608 123.570  0.00  0.00    +0.007 C 
BRANCH   6   7
ATOM      7  C   LIG A   1      -8.846  -0.095 123.740  0.00  0.00    +0.071 C 
BRANCH   7   8
ATOM      8  C   LIG A   1      -9.814   0.684 122.873  0.00  0.00    +0.223 C 
ATOM      9  O   LIG A   1     -10.931   0.303 122.554  0.00  0.00    -0.301 OA
ENDBRANCH   7   8
ENDBRANCH   6   7
ENDBRANCH   1   6
TORSDOF 6
ENDMDL
