MODEL 1
REMARK VINA RESULT:      -6.0      0.000      0.000
REMARK  Name = NuBBE_1791
REMARK  12 active torsions:
REMARK  status: ('A' for Active; 'I' for Inactive)
REMARK    1  A    between atoms: C_3  and  C_4
REMARK    2  A    between atoms: C_4  and  C_5
REMARK    3  A    between atoms: C_5  and  O_6
REMARK    4  A    between atoms: C_9  and  C_10
REMARK    5  A    between atoms: C_10  and  C_11
REMARK    6  A    between atoms: C_11  and  C_12
REMARK    7  A    between atoms: C_12  and  C_13
REMARK    8  A    between atoms: C_13  and  C_14
REMARK    9  A    between atoms: C_14  and  C_15
REMARK   10  A    between atoms: C_15  and  C_16
REMARK   11  A    between atoms: C_16  and  C_17
REMARK   12  A    between atoms: C_17  and  C_18
REMARK                            x       y       z     vdW  Elec       q    Type
REMARK                         _______ _______ _______ _____ _____    ______ ____
ROOT
ATOM      1  O   LIG A   1      -9.108   2.625 122.104  0.00  0.00    -0.251 OA
ATOM      2  C   LIG A   1      -8.704   2.165 123.157  0.00  0.00    +0.311 C 
ATOM      3  C   LIG A   1      -7.252   2.009 123.529  0.00  0.00    +0.112 C 
ATOM      4  C   LIG A   1      -7.318   1.202 124.809  0.00  0.00    +0.060 C 
ATOM      5  C   LIG A   1      -8.718   1.458 125.321  0.00  0.00    +0.177 C 
ATOM      6  O   LIG A   1      -9.505   1.676 124.148  0.00  0.00    -0.461 OA
ENDROOT
BRANCH   3   7
ATOM      7  C   LIG A   1      -6.504   3.339 123.613  0.00  0.00    +0.135 C 
BRANCH   7   8
ATOM      8  C   LIG A   1      -5.807   3.798 122.370  0.00  0.00    +0.305 C 
ATOM      9  O   LIG A   1      -5.054   4.789 122.234  0.00  0.00    -0.251 OA
BRANCH   8  10
ATOM     10  O   LIG A   1      -6.059   3.034 121.313  0.00  0.00    -0.481 OA
ATOM     11  H   LIG A   1      -7.021   3.146 121.153  0.00  0.00    +0.295 HD
ENDBRANCH   8  10
ENDBRANCH   7   8
ENDBRANCH   3   7
BRANCH   5  12
ATOM     12  C   LIG A   1      -9.297   0.327 126.153  0.00  0.00    +0.045 C 
BRANCH  12  13
ATOM     13  C   LIG A   1      -8.479  -0.965 126.013  0.00  0.00    +0.003 C 
BRANCH  13  14
ATOM     14  C   LIG A   1      -9.315  -2.233 125.834  0.00  0.00    +0.000 C 
BRANCH  14  15
ATOM     15  C   LIG A   1      -8.638  -3.285 124.960  0.00  0.00    -0.000 C 
BRANCH  15  16
ATOM     16  C   LIG A   1      -8.713  -3.086 123.444  0.00  0.00    +0.000 C 
BRANCH  16  17
ATOM     17  C   LIG A   1      -8.124  -1.827 122.803  0.00  0.00    +0.000 C 
BRANCH  17  18
ATOM     18  C   LIG A   1      -6.601  -1.764 122.609  0.00  0.00    +0.004 C 
BRANCH  18  19
ATOM     19  C   LIG A   1      -5.670  -2.291 123.705  0.00  0.00    +0.026 C 
BRANCH  19  20
ATOM     20  C   LIG A   1      -4.635  -3.318 123.318  0.00  0.00    -0.035 C 
ATOM     21  C   LIG A   1      -4.488  -4.584 123.737  0.00  0.00    +0.004 C 
ENDBRANCH  19  20
ENDBRANCH  18  19
ENDBRANCH  17  18
ENDBRANCH  16  17
ENDBRANCH  15  16
ENDBRANCH  14  15
ENDBRANCH  13  14
ENDBRANCH  12  13
ENDBRANCH   5  12
TORSDOF 12
ENDMDL
MODEL 2
REMARK VINA RESULT:      -5.9      1.167      2.117
REMARK  Name = NuBBE_1791
REMARK  12 active torsions:
REMARK  status: ('A' for Active; 'I' for Inactive)
REMARK    1  A    between atoms: C_3  and  C_4
REMARK    2  A    between atoms: C_4  and  C_5
REMARK    3  A    between atoms: C_5  and  O_6
REMARK    4  A    between atoms: C_9  and  C_10
REMARK    5  A    between atoms: C_10  and  C_11
REMARK    6  A    between atoms: C_11  and  C_12
REMARK    7  A    between atoms: C_12  and  C_13
REMARK    8  A    between atoms: C_13  and  C_14
REMARK    9  A    between atoms: C_14  and  C_15
REMARK   10  A    between atoms: C_15  and  C_16
REMARK   11  A    between atoms: C_16  and  C_17
REMARK   12  A    between atoms: C_17  and  C_18
REMARK                            x       y       z     vdW  Elec       q    Type
REMARK                         _______ _______ _______ _____ _____    ______ ____
ROOT
ATOM      1  O   LIG A   1      -8.000   3.935 120.655  0.00  0.00    -0.251 OA
ATOM      2  C   LIG A   1      -7.887   3.420 121.753  0.00  0.00    +0.311 C 
ATOM      3  C   LIG A   1      -6.581   3.012 122.383  0.00  0.00    +0.112 C 
ATOM      4  C   LIG A   1      -7.025   2.240 123.609  0.00  0.00    +0.060 C 
ATOM      5  C   LIG A   1      -8.429   2.744 123.858  0.00  0.00    +0.177 C 
ATOM      6  O   LIG A   1      -8.933   3.089 122.566  0.00  0.00    -0.461 OA
ENDROOT
BRANCH   3   7
ATOM      7  C   LIG A   1      -5.640   4.189 122.638  0.00  0.00    +0.135 C 
BRANCH   7   8
ATOM      8  C   LIG A   1      -4.907   4.733 121.450  0.00  0.00    +0.305 C 
ATOM      9  O   LIG A   1      -4.345   5.846 121.339  0.00  0.00    -0.251 OA
BRANCH   8  10
ATOM     10  O   LIG A   1      -4.891   3.900 120.416  0.00  0.00    -0.481 OA
ATOM     11  H   LIG A   1      -3.938   3.763 120.226  0.00  0.00    +0.295 HD
ENDBRANCH   8  10
ENDBRANCH   7   8
ENDBRANCH   3   7
BRANCH   5  12
ATOM     12  C   LIG A   1      -9.342   1.741 124.541  0.00  0.00    +0.045 C 
BRANCH  12  13
ATOM     13  C   LIG A   1      -8.576   0.843 125.523  0.00  0.00    +0.003 C 
BRANCH  13  14
ATOM     14  C   LIG A   1      -9.314  -0.433 125.931  0.00  0.00    +0.000 C 
BRANCH  14  15
ATOM     15  C   LIG A   1      -8.400  -1.490 126.545  0.00  0.00    -0.000 C 
BRANCH  15  16
ATOM     16  C   LIG A   1      -8.245  -2.807 125.780  0.00  0.00    +0.000 C 
BRANCH  16  17
ATOM     17  C   LIG A   1      -9.237  -3.176 124.674  0.00  0.00    +0.000 C 
BRANCH  17  18
ATOM     18  C   LIG A   1      -8.795  -2.974 123.216  0.00  0.00    +0.004 C 
BRANCH  18  19
ATOM     19  C   LIG A   1      -8.096  -1.675 122.803  0.00  0.00    +0.026 C 
BRANCH  19  20
ATOM     20  C   LIG A   1      -6.591  -1.688 122.692  0.00  0.00    -0.035 C 
ATOM     21  C   LIG A   1      -5.702  -2.537 123.227  0.00  0.00    +0.004 C 
ENDBRANCH  19  20
ENDBRANCH  18  19
ENDBRANCH  17  18
ENDBRANCH  16  17
ENDBRANCH  15  16
ENDBRANCH  14  15
ENDBRANCH  13  14
ENDBRANCH  12  13
ENDBRANCH   5  12
TORSDOF 12
ENDMDL
MODEL 3
REMARK VINA RESULT:      -5.9      7.828     10.038
REMARK  Name = NuBBE_1791
REMARK  12 active torsions:
REMARK  status: ('A' for Active; 'I' for Inactive)
REMARK    1  A    between atoms: C_3  and  C_4
REMARK    2  A    between atoms: C_4  and  C_5
REMARK    3  A    between atoms: C_5  and  O_6
REMARK    4  A    between atoms: C_9  and  C_10
REMARK    5  A    between atoms: C_10  and  C_11
REMARK    6  A    between atoms: C_11  and  C_12
REMARK    7  A    between atoms: C_12  and  C_13
REMARK    8  A    between atoms: C_13  and  C_14
REMARK    9  A    between atoms: C_14  and  C_15
REMARK   10  A    between atoms: C_15  and  C_16
REMARK   11  A    between atoms: C_16  and  C_17
REMARK   12  A    between atoms: C_17  and  C_18
REMARK                            x       y       z     vdW  Elec       q    Type
REMARK                         _______ _______ _______ _____ _____    ______ ____
ROOT
ATOM      1  O   LIG A   1     -10.782   7.492 125.902  0.00  0.00    -0.251 OA
ATOM      2  C   LIG A   1     -10.605   7.379 127.102  0.00  0.00    +0.311 C 
ATOM      3  C   LIG A   1     -11.017   8.397 128.133  0.00  0.00    +0.112 C 
ATOM      4  C   LIG A   1     -10.373   7.873 129.401  0.00  0.00    +0.060 C 
ATOM      5  C   LIG A   1     -10.159   6.404 129.111  0.00  0.00    +0.177 C 
ATOM      6  O   LIG A   1      -9.963   6.331 127.697  0.00  0.00    -0.461 OA
ENDROOT
BRANCH   3   7
ATOM      7  C   LIG A   1     -12.528   8.618 128.193  0.00  0.00    +0.135 C 
BRANCH   7   8
ATOM      8  C   LIG A   1     -13.021   9.629 129.182  0.00  0.00    +0.305 C 
ATOM      9  O   LIG A   1     -13.128   9.500 130.423  0.00  0.00    -0.251 OA
BRANCH   8  10
ATOM     10  O   LIG A   1     -13.385  10.777 128.623  0.00  0.00    -0.481 OA
ATOM     11  H   LIG A   1     -13.266  10.630 127.660  0.00  0.00    +0.295 HD
ENDBRANCH   8  10
ENDBRANCH   7   8
ENDBRANCH   3   7
BRANCH   5  12
ATOM     12  C   LIG A   1      -8.986   5.784 129.849  0.00  0.00    +0.045 C 
BRANCH  12  13
ATOM     13  C   LIG A   1      -8.735   6.465 131.203  0.00  0.00    +0.003 C 
BRANCH  13  14
ATOM     14  C   LIG A   1      -7.316   6.296 131.749  0.00  0.00    +0.000 C 
BRANCH  14  15
ATOM     15  C   LIG A   1      -7.206   5.216 132.820  0.00  0.00    -0.000 C 
BRANCH  15  16
ATOM     16  C   LIG A   1      -8.279   5.207 133.913  0.00  0.00    +0.000 C 
BRANCH  16  17
ATOM     17  C   LIG A   1      -9.231   4.015 134.048  0.00  0.00    +0.000 C 
BRANCH  17  18
ATOM     18  C   LIG A   1      -8.918   2.750 133.233  0.00  0.00    +0.004 C 
BRANCH  18  19
ATOM     19  C   LIG A   1      -9.658   2.488 131.918  0.00  0.00    +0.026 C 
BRANCH  19  20
ATOM     20  C   LIG A   1      -8.845   2.041 130.728  0.00  0.00    -0.035 C 
ATOM     21  C   LIG A   1      -7.613   2.409 130.348  0.00  0.00    +0.004 C 
ENDBRANCH  19  20
ENDBRANCH  18  19
ENDBRANCH  17  18
ENDBRANCH  16  17
ENDBRANCH  15  16
ENDBRANCH  14  15
ENDBRANCH  13  14
ENDBRANCH  12  13
ENDBRANCH   5  12
TORSDOF 12
ENDMDL
MODEL 4
REMARK VINA RESULT:      -5.8      1.933      3.240
REMARK  Name = NuBBE_1791
REMARK  12 active torsions:
REMARK  status: ('A' for Active; 'I' for Inactive)
REMARK    1  A    between atoms: C_3  and  C_4
REMARK    2  A    between atoms: C_4  and  C_5
REMARK    3  A    between atoms: C_5  and  O_6
REMARK    4  A    between atoms: C_9  and  C_10
REMARK    5  A    between atoms: C_10  and  C_11
REMARK    6  A    between atoms: C_11  and  C_12
REMARK    7  A    between atoms: C_12  and  C_13
REMARK    8  A    between atoms: C_13  and  C_14
REMARK    9  A    between atoms: C_14  and  C_15
REMARK   10  A    between atoms: C_15  and  C_16
REMARK   11  A    between atoms: C_16  and  C_17
REMARK   12  A    between atoms: C_17  and  C_18
REMARK                            x       y       z     vdW  Elec       q    Type
REMARK                         _______ _______ _______ _____ _____    ______ ____
ROOT
ATOM      1  O   LIG A   1     -10.618   0.817 122.153  0.00  0.00    -0.251 OA
ATOM      2  C   LIG A   1      -9.832   0.127 122.778  0.00  0.00    +0.311 C 
ATOM      3  C   LIG A   1      -8.578   0.634 123.441  0.00  0.00    +0.112 C 
ATOM      4  C   LIG A   1      -7.882  -0.643 123.866  0.00  0.00    +0.060 C 
ATOM      5  C   LIG A   1      -9.002  -1.658 123.922  0.00  0.00    +0.177 C 
ATOM      6  O   LIG A   1      -9.943  -1.225 122.937  0.00  0.00    -0.461 OA
ENDROOT
BRANCH   3   7
ATOM      7  C   LIG A   1      -8.850   1.649 124.550  0.00  0.00    +0.135 C 
BRANCH   7   8
ATOM      8  C   LIG A   1      -8.660   3.093 124.201  0.00  0.00    +0.305 C 
ATOM      9  O   LIG A   1      -8.294   3.575 123.105  0.00  0.00    -0.251 OA
BRANCH   8  10
ATOM     10  O   LIG A   1      -8.912   3.916 125.212  0.00  0.00    -0.481 OA
ATOM     11  H   LIG A   1      -8.722   4.810 124.854  0.00  0.00    +0.295 HD
ENDBRANCH   8  10
ENDBRANCH   7   8
ENDBRANCH   3   7
BRANCH   5  12
ATOM     12  C   LIG A   1      -8.565  -3.088 123.655  0.00  0.00    +0.045 C 
BRANCH  12  13
ATOM     13  C   LIG A   1      -8.596  -3.945 124.930  0.00  0.00    +0.003 C 
BRANCH  13  14
ATOM     14  C   LIG A   1      -9.315  -3.299 126.116  0.00  0.00    +0.000 C 
BRANCH  14  15
ATOM     15  C   LIG A   1      -8.748  -3.721 127.468  0.00  0.00    -0.000 C 
BRANCH  15  16
ATOM     16  C   LIG A   1      -7.793  -2.743 128.159  0.00  0.00    +0.000 C 
BRANCH  16  17
ATOM     17  C   LIG A   1      -7.397  -1.436 127.468  0.00  0.00    +0.000 C 
BRANCH  17  18
ATOM     18  C   LIG A   1      -5.997  -1.350 126.841  0.00  0.00    +0.004 C 
BRANCH  18  19
ATOM     19  C   LIG A   1      -5.419  -2.559 126.098  0.00  0.00    +0.026 C 
BRANCH  19  20
ATOM     20  C   LIG A   1      -5.256  -2.456 124.601  0.00  0.00    -0.035 C 
ATOM     21  C   LIG A   1      -4.665  -3.302 123.745  0.00  0.00    +0.004 C 
ENDBRANCH  19  20
ENDBRANCH  18  19
ENDBRANCH  17  18
ENDBRANCH  16  17
ENDBRANCH  15  16
ENDBRANCH  14  15
ENDBRANCH  13  14
ENDBRANCH  12  13
ENDBRANCH   5  12
TORSDOF 12
ENDMDL
MODEL 5
REMARK VINA RESULT:      -5.7      7.686      9.954
REMARK  Name = NuBBE_1791
REMARK  12 active torsions:
REMARK  status: ('A' for Active; 'I' for Inactive)
REMARK    1  A    between atoms: C_3  and  C_4
REMARK    2  A    between atoms: C_4  and  C_5
REMARK    3  A    between atoms: C_5  and  O_6
REMARK    4  A    between atoms: C_9  and  C_10
REMARK    5  A    between atoms: C_10  and  C_11
REMARK    6  A    between atoms: C_11  and  C_12
REMARK    7  A    between atoms: C_12  and  C_13
REMARK    8  A    between atoms: C_13  and  C_14
REMARK    9  A    between atoms: C_14  and  C_15
REMARK   10  A    between atoms: C_15  and  C_16
REMARK   11  A    between atoms: C_16  and  C_17
REMARK   12  A    between atoms: C_17  and  C_18
REMARK                            x       y       z     vdW  Elec       q    Type
REMARK                         _______ _______ _______ _____ _____    ______ ____
ROOT
ATOM      1  O   LIG A   1     -13.050   7.041 131.367  0.00  0.00    -0.251 OA
ATOM      2  C   LIG A   1     -11.995   6.898 130.773  0.00  0.00    +0.311 C 
ATOM      3  C   LIG A   1     -11.856   6.309 129.394  0.00  0.00    +0.112 C 
ATOM      4  C   LIG A   1     -10.355   6.162 129.241  0.00  0.00    +0.060 C 
ATOM      5  C   LIG A   1      -9.796   7.150 130.241  0.00  0.00    +0.177 C 
ATOM      6  O   LIG A   1     -10.768   7.207 131.287  0.00  0.00    -0.461 OA
ENDROOT
BRANCH   3   7
ATOM      7  C   LIG A   1     -12.561   7.129 128.314  0.00  0.00    +0.135 C 
BRANCH   7   8
ATOM      8  C   LIG A   1     -11.746   7.502 127.114  0.00  0.00    +0.305 C 
ATOM      9  O   LIG A   1     -10.947   8.459 126.996  0.00  0.00    -0.251 OA
BRANCH   8  10
ATOM     10  O   LIG A   1     -11.940   6.697 126.076  0.00  0.00    -0.481 OA
ATOM     11  H   LIG A   1     -12.609   6.049 126.389  0.00  0.00    +0.295 HD
ENDBRANCH   8  10
ENDBRANCH   7   8
ENDBRANCH   3   7
BRANCH   5  12
ATOM     12  C   LIG A   1      -8.433   6.777 130.794  0.00  0.00    +0.045 C 
BRANCH  12  13
ATOM     13  C   LIG A   1      -8.530   6.191 132.211  0.00  0.00    +0.003 C 
BRANCH  13  14
ATOM     14  C   LIG A   1      -7.196   5.735 132.806  0.00  0.00    +0.000 C 
BRANCH  14  15
ATOM     15  C   LIG A   1      -7.294   5.342 134.277  0.00  0.00    -0.000 C 
BRANCH  15  16
ATOM     16  C   LIG A   1      -7.421   3.849 134.592  0.00  0.00    +0.000 C 
BRANCH  16  17
ATOM     17  C   LIG A   1      -7.868   2.868 133.506  0.00  0.00    +0.000 C 
BRANCH  17  18
ATOM     18  C   LIG A   1      -9.368   2.791 133.180  0.00  0.00    +0.004 C 
BRANCH  18  19
ATOM     19  C   LIG A   1      -9.834   2.112 131.888  0.00  0.00    +0.026 C 
BRANCH  19  20
ATOM     20  C   LIG A   1      -9.518   2.794 130.579  0.00  0.00    -0.035 C 
ATOM     21  C   LIG A   1      -8.329   3.095 130.038  0.00  0.00    +0.004 C 
ENDBRANCH  19  20
ENDBRANCH  18  19
ENDBRANCH  17  18
ENDBRANCH  16  17
ENDBRANCH  15  16
ENDBRANCH  14  15
ENDBRANCH  13  14
ENDBRANCH  12  13
ENDBRANCH   5  12
TORSDOF 12
ENDMDL
MODEL 6
REMARK VINA RESULT:      -5.7      4.697      6.261
REMARK  Name = NuBBE_1791
REMARK  12 active torsions:
REMARK  status: ('A' for Active; 'I' for Inactive)
REMARK    1  A    between atoms: C_3  and  C_4
REMARK    2  A    between atoms: C_4  and  C_5
REMARK    3  A    between atoms: C_5  and  O_6
REMARK    4  A    between atoms: C_9  and  C_10
REMARK    5  A    between atoms: C_10  and  C_11
REMARK    6  A    between atoms: C_11  and  C_12
REMARK    7  A    between atoms: C_12  and  C_13
REMARK    8  A    between atoms: C_13  and  C_14
REMARK    9  A    between atoms: C_14  and  C_15
REMARK   10  A    between atoms: C_15  and  C_16
REMARK   11  A    between atoms: C_16  and  C_17
REMARK   12  A    between atoms: C_17  and  C_18
REMARK                            x       y       z     vdW  Elec       q    Type
REMARK                         _______ _______ _______ _____ _____    ______ ____
ROOT
ATOM      1  O   LIG A   1      -7.743  -3.079 130.909  0.00  0.00    -0.251 OA
ATOM      2  C   LIG A   1      -7.301  -2.728 129.829  0.00  0.00    +0.311 C 
ATOM      3  C   LIG A   1      -5.844  -2.485 129.532  0.00  0.00    +0.112 C 
ATOM      4  C   LIG A   1      -5.881  -1.868 128.149  0.00  0.00    +0.060 C 
ATOM      5  C   LIG A   1      -7.212  -2.323 127.591  0.00  0.00    +0.177 C 
ATOM      6  O   LIG A   1      -8.064  -2.456 128.730  0.00  0.00    -0.461 OA
ENDROOT
BRANCH   3   7
ATOM      7  C   LIG A   1      -4.981  -3.737 129.683  0.00  0.00    +0.135 C 
BRANCH   7   8
ATOM      8  C   LIG A   1      -3.516  -3.579 129.417  0.00  0.00    +0.305 C 
ATOM      9  O   LIG A   1      -2.841  -4.099 128.499  0.00  0.00    -0.251 OA
BRANCH   8  10
ATOM     10  O   LIG A   1      -2.904  -2.792 130.295  0.00  0.00    -0.481 OA
ATOM     11  H   LIG A   1      -3.566  -2.098 130.506  0.00  0.00    +0.295 HD
ENDBRANCH   8  10
ENDBRANCH   7   8
ENDBRANCH   3   7
BRANCH   5  12
ATOM     12  C   LIG A   1      -7.821  -1.374 126.573  0.00  0.00    +0.045 C 
BRANCH  12  13
ATOM     13  C   LIG A   1      -9.107  -1.944 125.956  0.00  0.00    +0.003 C 
BRANCH  13  14
ATOM     14  C   LIG A   1      -8.998  -3.393 125.479  0.00  0.00    +0.000 C 
BRANCH  14  15
ATOM     15  C   LIG A   1      -9.061  -3.537 123.961  0.00  0.00    -0.000 C 
BRANCH  15  16
ATOM     16  C   LIG A   1      -8.754  -2.288 123.130  0.00  0.00    +0.000 C 
BRANCH  16  17
ATOM     17  C   LIG A   1      -7.430  -2.174 122.371  0.00  0.00    +0.000 C 
BRANCH  17  18
ATOM     18  C   LIG A   1      -6.253  -1.482 123.077  0.00  0.00    +0.004 C 
BRANCH  18  19
ATOM     19  C   LIG A   1      -5.442  -2.242 124.131  0.00  0.00    +0.026 C 
BRANCH  19  20
ATOM     20  C   LIG A   1      -5.245  -3.725 123.935  0.00  0.00    -0.035 C 
ATOM     21  C   LIG A   1      -4.152  -4.398 123.545  0.00  0.00    +0.004 C 
ENDBRANCH  19  20
ENDBRANCH  18  19
ENDBRANCH  17  18
ENDBRANCH  16  17
ENDBRANCH  15  16
ENDBRANCH  14  15
ENDBRANCH  13  14
ENDBRANCH  12  13
ENDBRANCH   5  12
TORSDOF 12
ENDMDL
MODEL 7
REMARK VINA RESULT:      -5.6      1.504      3.008
REMARK  Name = NuBBE_1791
REMARK  12 active torsions:
REMARK  status: ('A' for Active; 'I' for Inactive)
REMARK    1  A    between atoms: C_3  and  C_4
REMARK    2  A    between atoms: C_4  and  C_5
REMARK    3  A    between atoms: C_5  and  O_6
REMARK    4  A    between atoms: C_9  and  C_10
REMARK    5  A    between atoms: C_10  and  C_11
REMARK    6  A    between atoms: C_11  and  C_12
REMARK    7  A    between atoms: C_12  and  C_13
REMARK    8  A    between atoms: C_13  and  C_14
REMARK    9  A    between atoms: C_14  and  C_15
REMARK   10  A    between atoms: C_15  and  C_16
REMARK   11  A    between atoms: C_16  and  C_17
REMARK   12  A    between atoms: C_17  and  C_18
REMARK                            x       y       z     vdW  Elec       q    Type
REMARK                         _______ _______ _______ _____ _____    ______ ____
ROOT
ATOM      1  O   LIG A   1     -10.540   0.937 123.418  0.00  0.00    -0.251 OA
ATOM      2  C   LIG A   1      -9.443   0.972 123.946  0.00  0.00    +0.311 C 
ATOM      3  C   LIG A   1      -8.167   1.378 123.256  0.00  0.00    +0.112 C 
ATOM      4  C   LIG A   1      -7.106   1.032 124.280  0.00  0.00    +0.060 C 
ATOM      5  C   LIG A   1      -7.866   1.009 125.588  0.00  0.00    +0.177 C 
ATOM      6  O   LIG A   1      -9.191   0.605 125.237  0.00  0.00    -0.461 OA
ENDROOT
BRANCH   3   7
ATOM      7  C   LIG A   1      -8.179   2.825 122.767  0.00  0.00    +0.135 C 
BRANCH   7   8
ATOM      8  C   LIG A   1      -6.868   3.394 122.320  0.00  0.00    +0.305 C 
ATOM      9  O   LIG A   1      -6.184   3.057 121.327  0.00  0.00    -0.251 OA
BRANCH   8  10
ATOM     10  O   LIG A   1      -6.416   4.360 123.112  0.00  0.00    -0.481 OA
ATOM     11  H   LIG A   1      -6.578   5.187 122.608  0.00  0.00    +0.295 HD
ENDBRANCH   8  10
ENDBRANCH   7   8
ENDBRANCH   3   7
BRANCH   5  12
ATOM     12  C   LIG A   1      -7.281   0.079 126.636  0.00  0.00    +0.045 C 
BRANCH  12  13
ATOM     13  C   LIG A   1      -5.823  -0.292 126.324  0.00  0.00    +0.003 C 
BRANCH  13  14
ATOM     14  C   LIG A   1      -5.601  -1.762 125.966  0.00  0.00    +0.000 C 
BRANCH  14  15
ATOM     15  C   LIG A   1      -5.283  -1.982 124.490  0.00  0.00    -0.000 C 
BRANCH  15  16
ATOM     16  C   LIG A   1      -6.319  -2.745 123.660  0.00  0.00    +0.000 C 
BRANCH  16  17
ATOM     17  C   LIG A   1      -7.434  -3.530 124.354  0.00  0.00    +0.000 C 
BRANCH  17  18
ATOM     18  C   LIG A   1      -8.801  -2.846 124.517  0.00  0.00    +0.004 C 
BRANCH  18  19
ATOM     19  C   LIG A   1      -9.576  -2.993 125.830  0.00  0.00    +0.026 C 
BRANCH  19  20
ATOM     20  C   LIG A   1      -8.783  -3.172 127.101  0.00  0.00    -0.035 C 
ATOM     21  C   LIG A   1      -8.942  -4.066 128.088  0.00  0.00    +0.004 C 
ENDBRANCH  19  20
ENDBRANCH  18  19
ENDBRANCH  17  18
ENDBRANCH  16  17
ENDBRANCH  15  16
ENDBRANCH  14  15
ENDBRANCH  13  14
ENDBRANCH  12  13
ENDBRANCH   5  12
TORSDOF 12
ENDMDL
MODEL 8
REMARK VINA RESULT:      -5.5      5.598      7.267
REMARK  Name = NuBBE_1791
REMARK  12 active torsions:
REMARK  status: ('A' for Active; 'I' for Inactive)
REMARK    1  A    between atoms: C_3  and  C_4
REMARK    2  A    between atoms: C_4  and  C_5
REMARK    3  A    between atoms: C_5  and  O_6
REMARK    4  A    between atoms: C_9  and  C_10
REMARK    5  A    between atoms: C_10  and  C_11
REMARK    6  A    between atoms: C_11  and  C_12
REMARK    7  A    between atoms: C_12  and  C_13
REMARK    8  A    between atoms: C_13  and  C_14
REMARK    9  A    between atoms: C_14  and  C_15
REMARK   10  A    between atoms: C_15  and  C_16
REMARK   11  A    between atoms: C_16  and  C_17
REMARK   12  A    between atoms: C_17  and  C_18
REMARK                            x       y       z     vdW  Elec       q    Type
REMARK                         _______ _______ _______ _____ _____    ______ ____
ROOT
ATOM      1  O   LIG A   1      -3.373  -3.684 129.208  0.00  0.00    -0.251 OA
ATOM      2  C   LIG A   1      -4.562  -3.478 129.367  0.00  0.00    +0.311 C 
ATOM      3  C   LIG A   1      -5.475  -4.317 130.222  0.00  0.00    +0.112 C 
ATOM      4  C   LIG A   1      -6.848  -3.766 129.891  0.00  0.00    +0.060 C 
ATOM      5  C   LIG A   1      -6.557  -2.380 129.361  0.00  0.00    +0.177 C 
ATOM      6  O   LIG A   1      -5.265  -2.479 128.757  0.00  0.00    -0.461 OA
ENDROOT
BRANCH   3   7
ATOM      7  C   LIG A   1      -5.091  -4.310 131.702  0.00  0.00    +0.135 C 
BRANCH   7   8
ATOM      8  C   LIG A   1      -4.458  -3.058 132.226  0.00  0.00    +0.305 C 
ATOM      9  O   LIG A   1      -5.026  -1.992 132.555  0.00  0.00    -0.251 OA
BRANCH   8  10
ATOM     10  O   LIG A   1      -3.136  -3.137 132.322  0.00  0.00    -0.481 OA
ATOM     11  H   LIG A   1      -2.856  -3.591 131.498  0.00  0.00    +0.295 HD
ENDBRANCH   8  10
ENDBRANCH   7   8
ENDBRANCH   3   7
BRANCH   5  12
ATOM     12  C   LIG A   1      -7.578  -1.865 128.363  0.00  0.00    +0.045 C 
BRANCH  12  13
ATOM     13  C   LIG A   1      -7.456  -2.567 127.002  0.00  0.00    +0.003 C 
BRANCH  13  14
ATOM     14  C   LIG A   1      -8.662  -3.425 126.615  0.00  0.00    +0.000 C 
BRANCH  14  15
ATOM     15  C   LIG A   1      -9.034  -3.314 125.140  0.00  0.00    -0.000 C 
BRANCH  15  16
ATOM     16  C   LIG A   1      -8.565  -2.061 124.395  0.00  0.00    +0.000 C 
BRANCH  16  17
ATOM     17  C   LIG A   1      -7.931  -2.182 123.007  0.00  0.00    +0.000 C 
BRANCH  17  18
ATOM     18  C   LIG A   1      -6.432  -1.875 122.871  0.00  0.00    +0.004 C 
BRANCH  18  19
ATOM     19  C   LIG A   1      -5.435  -2.489 123.859  0.00  0.00    +0.026 C 
BRANCH  19  20
ATOM     20  C   LIG A   1      -4.517  -3.575 123.353  0.00  0.00    -0.035 C 
ATOM     21  C   LIG A   1      -4.471  -4.875 123.677  0.00  0.00    +0.004 C 
ENDBRANCH  19  20
ENDBRANCH  18  19
ENDBRANCH  17  18
ENDBRANCH  16  17
ENDBRANCH  15  16
ENDBRANCH  14  15
ENDBRANCH  13  14
ENDBRANCH  12  13
ENDBRANCH   5  12
TORSDOF 12
ENDMDL
MODEL 9
REMARK VINA RESULT:      -5.4      8.046     10.223
REMARK  Name = NuBBE_1791
REMARK  12 active torsions:
REMARK  status: ('A' for Active; 'I' for Inactive)
REMARK    1  A    between atoms: C_3  and  C_4
REMARK    2  A    between atoms: C_4  and  C_5
REMARK    3  A    between atoms: C_5  and  O_6
REMARK    4  A    between atoms: C_9  and  C_10
REMARK    5  A    between atoms: C_10  and  C_11
REMARK    6  A    between atoms: C_11  and  C_12
REMARK    7  A    between atoms: C_12  and  C_13
REMARK    8  A    between atoms: C_13  and  C_14
REMARK    9  A    between atoms: C_14  and  C_15
REMARK   10  A    between atoms: C_15  and  C_16
REMARK   11  A    between atoms: C_16  and  C_17
REMARK   12  A    between atoms: C_17  and  C_18
REMARK                            x       y       z     vdW  Elec       q    Type
REMARK                         _______ _______ _______ _____ _____    ______ ____
ROOT
ATOM      1  O   LIG A   1     -10.748   6.862 126.952  0.00  0.00    -0.251 OA
ATOM      2  C   LIG A   1     -10.273   6.789 128.071  0.00  0.00    +0.311 C 
ATOM      3  C   LIG A   1     -10.568   7.745 129.197  0.00  0.00    +0.112 C 
ATOM      4  C   LIG A   1      -9.568   7.336 130.258  0.00  0.00    +0.060 C 
ATOM      5  C   LIG A   1      -9.219   5.911 129.888  0.00  0.00    +0.177 C 
ATOM      6  O   LIG A   1      -9.360   5.853 128.467  0.00  0.00    -0.461 OA
ENDROOT
BRANCH   3   7
ATOM      7  C   LIG A   1     -12.036   7.741 129.622  0.00  0.00    +0.135 C 
BRANCH   7   8
ATOM      8  C   LIG A   1     -12.901   8.828 129.064  0.00  0.00    +0.305 C 
ATOM      9  O   LIG A   1     -12.989  10.015 129.454  0.00  0.00    -0.251 OA
BRANCH   8  10
ATOM     10  O   LIG A   1     -13.651   8.431 128.043  0.00  0.00    -0.481 OA
ATOM     11  H   LIG A   1     -13.095   8.595 127.251  0.00  0.00    +0.295 HD
ENDBRANCH   8  10
ENDBRANCH   7   8
ENDBRANCH   3   7
BRANCH   5  12
ATOM     12  C   LIG A   1      -7.824   5.480 130.307  0.00  0.00    +0.045 C 
BRANCH  12  13
ATOM     13  C   LIG A   1      -7.209   6.444 131.332  0.00  0.00    +0.003 C 
BRANCH  13  14
ATOM     14  C   LIG A   1      -5.826   6.978 130.956  0.00  0.00    +0.000 C 
BRANCH  14  15
ATOM     15  C   LIG A   1      -4.743   6.617 131.970  0.00  0.00    -0.000 C 
BRANCH  15  16
ATOM     16  C   LIG A   1      -3.484   7.489 131.984  0.00  0.00    +0.000 C 
BRANCH  16  17
ATOM     17  C   LIG A   1      -2.170   6.952 131.412  0.00  0.00    +0.000 C 
BRANCH  17  18
ATOM     18  C   LIG A   1      -2.249   5.941 130.257  0.00  0.00    +0.004 C 
BRANCH  18  19
ATOM     19  C   LIG A   1      -2.207   6.434 128.807  0.00  0.00    +0.026 C 
BRANCH  19  20
ATOM     20  C   LIG A   1      -3.350   6.053 127.899  0.00  0.00    -0.035 C 
ATOM     21  C   LIG A   1      -4.369   5.209 128.116  0.00  0.00    +0.004 C 
ENDBRANCH  19  20
ENDBRANCH  18  19
ENDBRANCH  17  18
ENDBRANCH  16  17
ENDBRANCH  15  16
ENDBRANCH  14  15
ENDBRANCH  13  14
ENDBRANCH  12  13
ENDBRANCH   5  12
TORSDOF 12
ENDMDL
