MODEL 1
REMARK VINA RESULT:      -9.1      0.000      0.000
REMARK  Name = NuBBE_1244
REMARK  14 active torsions:
REMARK  status: ('A' for Active; 'I' for Inactive)
REMARK    1  A    between atoms: O_1  and  C_2
REMARK    2  A    between atoms: C_3  and  C_37
REMARK    3  A    between atoms: C_6  and  O_24
REMARK    4  A    between atoms: C_7  and  C_8
REMARK    5  A    between atoms: C_11  and  C_13
REMARK    6  A    between atoms: C_13  and  O_14
REMARK    7  A    between atoms: C_15  and  O_23
REMARK    8  A    between atoms: C_17  and  O_22
REMARK    9  A    between atoms: C_19  and  O_21
REMARK   10  A    between atoms: C_28  and  C_30
REMARK   11  A    between atoms: C_33  and  O_36
REMARK   12  A    between atoms: C_39  and  O_41
REMARK   13  A    between atoms: C_42  and  O_44
REMARK   14  A    between atoms: C_45  and  O_49
REMARK                            x       y       z     vdW  Elec       q    Type
REMARK                         _______ _______ _______ _____ _____    ______ ____
ROOT
ATOM      1  C   LIG A   1      -8.548   5.537 130.583  0.00  0.00    +0.135 A 
ATOM      2  C   LIG A   1      -7.461   4.904 131.238  0.00  0.00    +0.069 A 
ATOM      3  C   LIG A   1      -7.681   3.612 131.755  0.00  0.00    +0.152 A 
ATOM      4  C   LIG A   1      -8.930   2.998 131.602  0.00  0.00    +0.106 A 
ATOM      5  C   LIG A   1      -9.997   3.669 130.982  0.00  0.00    +0.140 A 
ATOM      6  C   LIG A   1      -9.837   4.970 130.485  0.00  0.00    +0.068 A 
ATOM      7  C   LIG A   1      -9.099   1.616 132.076  0.00  0.00    +0.197 A 
ATOM      8  O   LIG A   1     -10.172   1.039 131.997  0.00  0.00    -0.287 OA
ATOM      9  C   LIG A   1      -7.918   0.942 132.625  0.00  0.00    +0.098 A 
ATOM     10  C   LIG A   1      -6.780   1.634 132.762  0.00  0.00    +0.139 A 
ATOM     11  O   LIG A   1      -6.645   2.965 132.394  0.00  0.00    -0.454 OA
ENDROOT
BRANCH   6  12
ATOM     12  C   LIG A   1     -11.051   5.720 129.927  0.00  0.00    +0.187 C 
ATOM     13  O   LIG A   1     -10.653   6.339 128.677  0.00  0.00    -0.361 OA
ATOM     14  C   LIG A   1     -11.704   7.091 128.053  0.00  0.00    +0.175 C 
ATOM     15  C   LIG A   1     -12.156   8.244 128.962  0.00  0.00    +0.176 C 
ATOM     16  C   LIG A   1     -12.649   7.659 130.282  0.00  0.00    +0.177 C 
ATOM     17  C   LIG A   1     -11.579   6.779 130.936  0.00  0.00    +0.179 C 
BRANCH  17  18
ATOM     18  O   LIG A   1     -12.164   6.183 132.100  0.00  0.00    -0.386 OA
ATOM     19  H   LIG A   1     -13.123   6.361 132.035  0.00  0.00    +0.210 HD
ENDBRANCH  17  18
BRANCH  16  20
ATOM     20  O   LIG A   1     -13.005   8.723 131.181  0.00  0.00    -0.387 OA
ATOM     21  H   LIG A   1     -12.194   9.270 131.257  0.00  0.00    +0.210 HD
ENDBRANCH  16  20
BRANCH  15  22
ATOM     22  O   LIG A   1     -13.225   9.012 128.400  0.00  0.00    -0.387 OA
ATOM     23  H   LIG A   1     -13.516   8.539 127.590  0.00  0.00    +0.210 HD
ENDBRANCH  15  22
BRANCH  14  24
ATOM     24  C   LIG A   1     -11.174   7.620 126.713  0.00  0.00    +0.190 C 
BRANCH  24  25
ATOM     25  O   LIG A   1     -10.393   6.641 126.036  0.00  0.00    -0.392 OA
ATOM     26  H   LIG A   1      -9.509   6.636 126.449  0.00  0.00    +0.209 HD
ENDBRANCH  24  25
ENDBRANCH  14  24
ENDBRANCH   6  12
BRANCH  10  27
ATOM     27  C   LIG A   1      -5.553   1.010 133.321  0.00  0.00    +0.018 A 
ATOM     28  C   LIG A   1      -5.639  -0.007 134.286  0.00  0.00    +0.015 A 
ATOM     29  C   LIG A   1      -4.488  -0.608 134.814  0.00  0.00    +0.046 A 
ATOM     30  C   LIG A   1      -3.237  -0.192 134.376  0.00  0.00    +0.117 A 
ATOM     31  C   LIG A   1      -3.120   0.806 133.421  0.00  0.00    +0.046 A 
ATOM     32  C   LIG A   1      -4.271   1.401 132.895  0.00  0.00    +0.015 A 
BRANCH  30  33
ATOM     33  O   LIG A   1      -2.087  -0.742 134.861  0.00  0.00    -0.507 OA
ATOM     34  H   LIG A   1      -1.638  -0.084 135.415  0.00  0.00    +0.292 HD
ENDBRANCH  30  33
ENDBRANCH  10  27
BRANCH   2  35
ATOM     35  C   LIG A   1      -6.117   5.643 131.290  0.00  0.00    +0.186 C 
ATOM     36  C   LIG A   1      -4.941   4.794 130.706  0.00  0.00    +0.179 C 
ATOM     37  C   LIG A   1      -4.469   5.368 129.366  0.00  0.00    +0.176 C 
ATOM     38  C   LIG A   1      -4.027   6.832 129.524  0.00  0.00    +0.171 C 
ATOM     39  C   LIG A   1      -4.913   7.572 130.531  0.00  0.00    +0.194 C 
ATOM     40  O   LIG A   1      -6.190   6.935 130.657  0.00  0.00    -0.366 OA
BRANCH  36  41
ATOM     41  O   LIG A   1      -3.830   4.808 131.623  0.00  0.00    -0.386 OA
ATOM     42  H   LIG A   1      -3.593   3.874 131.777  0.00  0.00    +0.210 HD
ENDBRANCH  36  41
BRANCH  37  43
ATOM     43  O   LIG A   1      -5.514   5.292 128.377  0.00  0.00    -0.387 OA
ATOM     44  H   LIG A   1      -6.267   4.824 128.795  0.00  0.00    +0.210 HD
ENDBRANCH  37  43
BRANCH  38  45
ATOM     45  O   LIG A   1      -4.081   7.486 128.246  0.00  0.00    -0.387 OA
ATOM     46  H   LIG A   1      -3.212   7.331 127.822  0.00  0.00    +0.210 HD
ENDBRANCH  38  45
ENDBRANCH   2  35
BRANCH   1  47
ATOM     47  O   LIG A   1      -8.282   6.745 129.978  0.00  0.00    -0.506 OA
ATOM     48  H   LIG A   1      -7.304   6.835 129.993  0.00  0.00    +0.292 HD
ENDBRANCH   1  47
BRANCH   5  49
ATOM     49  O   LIG A   1     -11.219   3.068 130.808  0.00  0.00    -0.505 OA
ATOM     50  H   LIG A   1     -11.341   2.386 131.508  0.00  0.00    +0.292 HD
ENDBRANCH   5  49
TORSDOF 14
ENDMDL
MODEL 2
REMARK VINA RESULT:      -8.7      4.124      6.709
REMARK  Name = NuBBE_1244
REMARK  14 active torsions:
REMARK  status: ('A' for Active; 'I' for Inactive)
REMARK    1  A    between atoms: O_1  and  C_2
REMARK    2  A    between atoms: C_3  and  C_37
REMARK    3  A    between atoms: C_6  and  O_24
REMARK    4  A    between atoms: C_7  and  C_8
REMARK    5  A    between atoms: C_11  and  C_13
REMARK    6  A    between atoms: C_13  and  O_14
REMARK    7  A    between atoms: C_15  and  O_23
REMARK    8  A    between atoms: C_17  and  O_22
REMARK    9  A    between atoms: C_19  and  O_21
REMARK   10  A    between atoms: C_28  and  C_30
REMARK   11  A    between atoms: C_33  and  O_36
REMARK   12  A    between atoms: C_39  and  O_41
REMARK   13  A    between atoms: C_42  and  O_44
REMARK   14  A    between atoms: C_45  and  O_49
REMARK                            x       y       z     vdW  Elec       q    Type
REMARK                         _______ _______ _______ _____ _____    ______ ____
ROOT
ATOM      1  C   LIG A   1      -8.064   3.132 128.703  0.00  0.00    +0.135 A 
ATOM      2  C   LIG A   1      -7.138   3.651 129.643  0.00  0.00    +0.069 A 
ATOM      3  C   LIG A   1      -5.774   3.623 129.290  0.00  0.00    +0.152 A 
ATOM      4  C   LIG A   1      -5.381   3.107 128.049  0.00  0.00    +0.106 A 
ATOM      5  C   LIG A   1      -6.321   2.565 127.158  0.00  0.00    +0.140 A 
ATOM      6  C   LIG A   1      -7.685   2.537 127.480  0.00  0.00    +0.068 A 
ATOM      7  C   LIG A   1      -3.959   3.173 127.678  0.00  0.00    +0.197 A 
ATOM      8  O   LIG A   1      -3.552   2.712 126.622  0.00  0.00    -0.287 OA
ATOM      9  C   LIG A   1      -3.047   3.839 128.613  0.00  0.00    +0.098 A 
ATOM     10  C   LIG A   1      -3.520   4.263 129.791  0.00  0.00    +0.139 A 
ATOM     11  O   LIG A   1      -4.846   4.124 130.178  0.00  0.00    -0.454 OA
ENDROOT
BRANCH   6  12
ATOM     12  C   LIG A   1      -8.669   1.828 126.544  0.00  0.00    +0.187 C 
ATOM     13  O   LIG A   1      -8.310   0.424 126.506  0.00  0.00    -0.361 OA
ATOM     14  C   LIG A   1      -9.153  -0.357 125.646  0.00  0.00    +0.175 C 
ATOM     15  C   LIG A   1      -9.050   0.138 124.195  0.00  0.00    +0.176 C 
ATOM     16  C   LIG A   1      -9.475   1.602 124.149  0.00  0.00    +0.177 C 
ATOM     17  C   LIG A   1      -8.650   2.453 125.120  0.00  0.00    +0.179 C 
BRANCH  17  18
ATOM     18  O   LIG A   1      -9.191   3.780 125.097  0.00  0.00    -0.386 OA
ATOM     19  H   LIG A   1      -8.563   4.330 125.605  0.00  0.00    +0.210 HD
ENDBRANCH  17  18
BRANCH  16  20
ATOM     20  O   LIG A   1      -9.313   2.112 122.815  0.00  0.00    -0.387 OA
ATOM     21  H   LIG A   1      -9.638   3.036 122.858  0.00  0.00    +0.210 HD
ENDBRANCH  16  20
BRANCH  15  22
ATOM     22  O   LIG A   1      -9.894  -0.589 123.296  0.00  0.00    -0.387 OA
ATOM     23  H   LIG A   1     -10.444   0.075 122.826  0.00  0.00    +0.210 HD
ENDBRANCH  15  22
BRANCH  14  24
ATOM     24  C   LIG A   1      -8.715  -1.824 125.761  0.00  0.00    +0.190 C 
BRANCH  24  25
ATOM     25  O   LIG A   1      -9.778  -2.714 125.441  0.00  0.00    -0.392 OA
ATOM     26  H   LIG A   1     -10.158  -2.421 124.592  0.00  0.00    +0.209 HD
ENDBRANCH  24  25
ENDBRANCH  14  24
ENDBRANCH   6  12
BRANCH  10  27
ATOM     27  C   LIG A   1      -2.644   4.935 130.784  0.00  0.00    +0.018 A 
ATOM     28  C   LIG A   1      -2.436   4.374 132.056  0.00  0.00    +0.015 A 
ATOM     29  C   LIG A   1      -1.604   4.996 132.997  0.00  0.00    +0.046 A 
ATOM     30  C   LIG A   1      -0.974   6.190 132.672  0.00  0.00    +0.117 A 
ATOM     31  C   LIG A   1      -1.156   6.765 131.423  0.00  0.00    +0.046 A 
ATOM     32  C   LIG A   1      -1.983   6.140 130.485  0.00  0.00    +0.015 A 
BRANCH  30  33
ATOM     33  O   LIG A   1      -0.159   6.836 133.553  0.00  0.00    -0.507 OA
ATOM     34  H   LIG A   1       0.194   7.632 133.124  0.00  0.00    +0.292 HD
ENDBRANCH  30  33
ENDBRANCH  10  27
BRANCH   2  35
ATOM     35  C   LIG A   1      -7.685   4.253 130.944  0.00  0.00    +0.186 C 
ATOM     36  C   LIG A   1      -7.741   5.815 130.909  0.00  0.00    +0.179 C 
ATOM     37  C   LIG A   1      -9.191   6.306 130.832  0.00  0.00    +0.176 C 
ATOM     38  C   LIG A   1     -10.009   5.782 132.024  0.00  0.00    +0.171 C 
ATOM     39  C   LIG A   1      -9.583   4.360 132.404  0.00  0.00    +0.194 C 
ATOM     40  O   LIG A   1      -8.966   3.695 131.296  0.00  0.00    -0.366 OA
BRANCH  36  41
ATOM     41  O   LIG A   1      -7.143   6.349 132.106  0.00  0.00    -0.386 OA
ATOM     42  H   LIG A   1      -7.462   5.792 132.841  0.00  0.00    +0.210 HD
ENDBRANCH  36  41
BRANCH  37  43
ATOM     43  O   LIG A   1      -9.814   5.880 129.605  0.00  0.00    -0.387 OA
ATOM     44  H   LIG A   1     -10.199   6.680 129.190  0.00  0.00    +0.210 HD
ENDBRANCH  37  43
BRANCH  38  45
ATOM     45  O   LIG A   1     -11.406   5.806 131.689  0.00  0.00    -0.387 OA
ATOM     46  H   LIG A   1     -11.885   5.966 132.528  0.00  0.00    +0.210 HD
ENDBRANCH  38  45
ENDBRANCH   2  35
BRANCH   1  47
ATOM     47  O   LIG A   1      -9.399   3.279 129.010  0.00  0.00    -0.506 OA
ATOM     48  H   LIG A   1      -9.419   3.622 129.931  0.00  0.00    +0.292 HD
ENDBRANCH   1  47
BRANCH   5  49
ATOM     49  O   LIG A   1      -5.948   2.077 125.930  0.00  0.00    -0.505 OA
ATOM     50  H   LIG A   1      -5.003   2.302 125.772  0.00  0.00    +0.292 HD
ENDBRANCH   5  49
TORSDOF 14
ENDMDL
MODEL 3
REMARK VINA RESULT:      -8.5      4.701      6.324
REMARK  Name = NuBBE_1244
REMARK  14 active torsions:
REMARK  status: ('A' for Active; 'I' for Inactive)
REMARK    1  A    between atoms: O_1  and  C_2
REMARK    2  A    between atoms: C_3  and  C_37
REMARK    3  A    between atoms: C_6  and  O_24
REMARK    4  A    between atoms: C_7  and  C_8
REMARK    5  A    between atoms: C_11  and  C_13
REMARK    6  A    between atoms: C_13  and  O_14
REMARK    7  A    between atoms: C_15  and  O_23
REMARK    8  A    between atoms: C_17  and  O_22
REMARK    9  A    between atoms: C_19  and  O_21
REMARK   10  A    between atoms: C_28  and  C_30
REMARK   11  A    between atoms: C_33  and  O_36
REMARK   12  A    between atoms: C_39  and  O_41
REMARK   13  A    between atoms: C_42  and  O_44
REMARK   14  A    between atoms: C_45  and  O_49
REMARK                            x       y       z     vdW  Elec       q    Type
REMARK                         _______ _______ _______ _____ _____    ______ ____
ROOT
ATOM      1  C   LIG A   1      -8.455   1.491 128.681  0.00  0.00    +0.135 A 
ATOM      2  C   LIG A   1      -8.216   0.595 129.754  0.00  0.00    +0.069 A 
ATOM      3  C   LIG A   1      -7.654  -0.658 129.438  0.00  0.00    +0.152 A 
ATOM      4  C   LIG A   1      -7.344  -0.973 128.109  0.00  0.00    +0.106 A 
ATOM      5  C   LIG A   1      -7.631  -0.078 127.066  0.00  0.00    +0.140 A 
ATOM      6  C   LIG A   1      -8.223   1.165 127.326  0.00  0.00    +0.068 A 
ATOM      7  C   LIG A   1      -6.679  -2.254 127.826  0.00  0.00    +0.197 A 
ATOM      8  O   LIG A   1      -6.411  -2.597 126.685  0.00  0.00    -0.287 OA
ATOM      9  C   LIG A   1      -6.322  -3.097 128.972  0.00  0.00    +0.098 A 
ATOM     10  C   LIG A   1      -6.700  -2.719 130.199  0.00  0.00    +0.139 A 
ATOM     11  O   LIG A   1      -7.403  -1.551 130.457  0.00  0.00    -0.454 OA
ENDROOT
BRANCH   6  12
ATOM     12  C   LIG A   1      -8.636   2.066 126.157  0.00  0.00    +0.187 C 
ATOM     13  O   LIG A   1      -9.075   1.209 125.072  0.00  0.00    -0.361 OA
ATOM     14  C   LIG A   1      -9.479   1.934 123.902  0.00  0.00    +0.175 C 
ATOM     15  C   LIG A   1      -8.305   2.750 123.339  0.00  0.00    +0.176 C 
ATOM     16  C   LIG A   1      -7.828   3.722 124.413  0.00  0.00    +0.177 C 
ATOM     17  C   LIG A   1      -7.468   2.988 125.709  0.00  0.00    +0.179 C 
BRANCH  17  18
ATOM     18  O   LIG A   1      -7.146   3.981 126.691  0.00  0.00    -0.386 OA
ATOM     19  H   LIG A   1      -7.993   4.413 126.918  0.00  0.00    +0.210 HD
ENDBRANCH  17  18
BRANCH  16  20
ATOM     20  O   LIG A   1      -6.679   4.443 123.939  0.00  0.00    -0.387 OA
ATOM     21  H   LIG A   1      -7.044   5.142 123.356  0.00  0.00    +0.210 HD
ENDBRANCH  16  20
BRANCH  15  22
ATOM     22  O   LIG A   1      -8.661   3.517 122.184  0.00  0.00    -0.387 OA
ATOM     23  H   LIG A   1      -8.800   4.439 122.491  0.00  0.00    +0.210 HD
ENDBRANCH  15  22
BRANCH  14  24
ATOM     24  C   LIG A   1      -9.990   0.918 122.871  0.00  0.00    +0.190 C 
BRANCH  24  25
ATOM     25  O   LIG A   1     -11.399   0.739 122.965  0.00  0.00    -0.392 OA
ATOM     26  H   LIG A   1     -11.570   0.176 123.743  0.00  0.00    +0.209 HD
ENDBRANCH  24  25
ENDBRANCH  14  24
ENDBRANCH   6  12
BRANCH  10  27
ATOM     27  C   LIG A   1      -6.377  -3.535 131.398  0.00  0.00    +0.018 A 
ATOM     28  C   LIG A   1      -5.434  -4.574 131.328  0.00  0.00    +0.015 A 
ATOM     29  C   LIG A   1      -5.116  -5.344 132.455  0.00  0.00    +0.046 A 
ATOM     30  C   LIG A   1      -5.743  -5.078 133.665  0.00  0.00    +0.117 A 
ATOM     31  C   LIG A   1      -6.675  -4.056 133.767  0.00  0.00    +0.046 A 
ATOM     32  C   LIG A   1      -6.987  -3.287 132.641  0.00  0.00    +0.015 A 
BRANCH  30  33
ATOM     33  O   LIG A   1      -5.473  -5.801 134.789  0.00  0.00    -0.507 OA
ATOM     34  H   LIG A   1      -4.511  -5.828 134.917  0.00  0.00    +0.292 HD
ENDBRANCH  30  33
ENDBRANCH  10  27
BRANCH   2  35
ATOM     35  C   LIG A   1      -8.532   1.070 131.178  0.00  0.00    +0.186 C 
ATOM     36  C   LIG A   1      -7.250   1.471 131.978  0.00  0.00    +0.179 C 
ATOM     37  C   LIG A   1      -7.186   2.989 132.180  0.00  0.00    +0.176 C 
ATOM     38  C   LIG A   1      -8.438   3.495 132.915  0.00  0.00    +0.171 C 
ATOM     39  C   LIG A   1      -9.686   2.719 132.480  0.00  0.00    +0.194 C 
ATOM     40  O   LIG A   1      -9.503   2.135 131.186  0.00  0.00    -0.366 OA
BRANCH  36  41
ATOM     41  O   LIG A   1      -7.269   0.840 133.273  0.00  0.00    -0.386 OA
ATOM     42  H   LIG A   1      -6.874   1.482 133.894  0.00  0.00    +0.210 HD
ENDBRANCH  36  41
BRANCH  37  43
ATOM     43  O   LIG A   1      -7.068   3.671 130.917  0.00  0.00    -0.387 OA
ATOM     44  H   LIG A   1      -6.134   3.585 130.633  0.00  0.00    +0.210 HD
ENDBRANCH  37  43
BRANCH  38  45
ATOM     45  O   LIG A   1      -8.611   4.896 132.650  0.00  0.00    -0.387 OA
ATOM     46  H   LIG A   1      -9.082   5.264 133.426  0.00  0.00    +0.210 HD
ENDBRANCH  38  45
ENDBRANCH   2  35
BRANCH   1  47
ATOM     47  O   LIG A   1      -8.889   2.753 129.019  0.00  0.00    -0.506 OA
ATOM     48  H   LIG A   1      -9.634   2.946 128.408  0.00  0.00    +0.292 HD
ENDBRANCH   1  47
BRANCH   5  49
ATOM     49  O   LIG A   1      -7.311  -0.369 125.763  0.00  0.00    -0.505 OA
ATOM     50  H   LIG A   1      -6.932   0.436 125.341  0.00  0.00    +0.292 HD
ENDBRANCH   5  49
TORSDOF 14
ENDMDL
MODEL 4
REMARK VINA RESULT:      -8.3      5.571      9.892
REMARK  Name = NuBBE_1244
REMARK  14 active torsions:
REMARK  status: ('A' for Active; 'I' for Inactive)
REMARK    1  A    between atoms: O_1  and  C_2
REMARK    2  A    between atoms: C_3  and  C_37
REMARK    3  A    between atoms: C_6  and  O_24
REMARK    4  A    between atoms: C_7  and  C_8
REMARK    5  A    between atoms: C_11  and  C_13
REMARK    6  A    between atoms: C_13  and  O_14
REMARK    7  A    between atoms: C_15  and  O_23
REMARK    8  A    between atoms: C_17  and  O_22
REMARK    9  A    between atoms: C_19  and  O_21
REMARK   10  A    between atoms: C_28  and  C_30
REMARK   11  A    between atoms: C_33  and  O_36
REMARK   12  A    between atoms: C_39  and  O_41
REMARK   13  A    between atoms: C_42  and  O_44
REMARK   14  A    between atoms: C_45  and  O_49
REMARK                            x       y       z     vdW  Elec       q    Type
REMARK                         _______ _______ _______ _____ _____    ______ ____
ROOT
ATOM      1  C   LIG A   1      -6.810   0.621 127.685  0.00  0.00    +0.135 A 
ATOM      2  C   LIG A   1      -7.027   1.043 126.349  0.00  0.00    +0.069 A 
ATOM      3  C   LIG A   1      -6.336   2.191 125.913  0.00  0.00    +0.152 A 
ATOM      4  C   LIG A   1      -5.466   2.859 126.784  0.00  0.00    +0.106 A 
ATOM      5  C   LIG A   1      -5.304   2.437 128.113  0.00  0.00    +0.140 A 
ATOM      6  C   LIG A   1      -5.999   1.323 128.604  0.00  0.00    +0.068 A 
ATOM      7  C   LIG A   1      -4.695   4.002 126.269  0.00  0.00    +0.197 A 
ATOM      8  O   LIG A   1      -3.944   4.642 126.989  0.00  0.00    -0.287 OA
ATOM      9  C   LIG A   1      -4.840   4.328 124.847  0.00  0.00    +0.098 A 
ATOM     10  C   LIG A   1      -5.729   3.649 124.112  0.00  0.00    +0.139 A 
ATOM     11  O   LIG A   1      -6.520   2.627 124.618  0.00  0.00    -0.454 OA
ENDROOT
BRANCH   6  12
ATOM     12  C   LIG A   1      -5.896   0.962 130.089  0.00  0.00    +0.187 C 
ATOM     13  O   LIG A   1      -5.923  -0.484 130.197  0.00  0.00    -0.361 OA
ATOM     14  C   LIG A   1      -5.848  -0.957 131.549  0.00  0.00    +0.175 C 
ATOM     15  C   LIG A   1      -7.051  -0.457 132.364  0.00  0.00    +0.176 C 
ATOM     16  C   LIG A   1      -7.051   1.068 132.346  0.00  0.00    +0.177 C 
ATOM     17  C   LIG A   1      -7.046   1.609 130.913  0.00  0.00    +0.179 C 
BRANCH  17  18
ATOM     18  O   LIG A   1      -6.929   3.035 130.991  0.00  0.00    -0.386 OA
ATOM     19  H   LIG A   1      -5.970   3.220 131.039  0.00  0.00    +0.210 HD
ENDBRANCH  17  18
BRANCH  16  20
ATOM     20  O   LIG A   1      -8.212   1.561 133.036  0.00  0.00    -0.387 OA
ATOM     21  H   LIG A   1      -8.971   1.281 132.482  0.00  0.00    +0.210 HD
ENDBRANCH  16  20
BRANCH  15  22
ATOM     22  O   LIG A   1      -7.012  -0.877 133.732  0.00  0.00    -0.387 OA
ATOM     23  H   LIG A   1      -7.831  -1.394 133.892  0.00  0.00    +0.210 HD
ENDBRANCH  15  22
BRANCH  14  24
ATOM     24  C   LIG A   1      -5.806  -2.491 131.511  0.00  0.00    +0.190 C 
BRANCH  24  25
ATOM     25  O   LIG A   1      -7.112  -3.053 131.590  0.00  0.00    -0.392 OA
ATOM     26  H   LIG A   1      -7.728  -2.414 131.185  0.00  0.00    +0.209 HD
ENDBRANCH  24  25
ENDBRANCH  14  24
ENDBRANCH   6  12
BRANCH  10  27
ATOM     27  C   LIG A   1      -5.929   3.940 122.669  0.00  0.00    +0.018 A 
ATOM     28  C   LIG A   1      -4.934   4.595 121.923  0.00  0.00    +0.015 A 
ATOM     29  C   LIG A   1      -5.110   4.867 120.559  0.00  0.00    +0.046 A 
ATOM     30  C   LIG A   1      -6.287   4.483 119.930  0.00  0.00    +0.117 A 
ATOM     31  C   LIG A   1      -7.284   3.830 120.639  0.00  0.00    +0.046 A 
ATOM     32  C   LIG A   1      -7.104   3.557 121.998  0.00  0.00    +0.015 A 
BRANCH  30  33
ATOM     33  O   LIG A   1      -6.508   4.728 118.607  0.00  0.00    -0.507 OA
ATOM     34  H   LIG A   1      -7.173   5.430 118.528  0.00  0.00    +0.292 HD
ENDBRANCH  30  33
ENDBRANCH  10  27
BRANCH   2  35
ATOM     35  C   LIG A   1      -7.950   0.197 125.462  0.00  0.00    +0.186 C 
ATOM     36  C   LIG A   1      -9.464   0.489 125.717  0.00  0.00    +0.179 C 
ATOM     37  C   LIG A   1     -10.081   1.237 124.530  0.00  0.00    +0.176 C 
ATOM     38  C   LIG A   1      -9.918   0.431 123.231  0.00  0.00    +0.171 C 
ATOM     39  C   LIG A   1      -8.573  -0.303 123.202  0.00  0.00    +0.194 C 
ATOM     40  O   LIG A   1      -7.623   0.331 124.065  0.00  0.00    -0.366 OA
BRANCH  36  41
ATOM     41  O   LIG A   1     -10.175  -0.752 125.892  0.00  0.00    -0.386 OA
ATOM     42  H   LIG A   1     -10.607  -0.697 126.765  0.00  0.00    +0.210 HD
ENDBRANCH  36  41
BRANCH  37  43
ATOM     43  O   LIG A   1      -9.472   2.532 124.366  0.00  0.00    -0.387 OA
ATOM     44  H   LIG A   1      -8.507   2.384 124.282  0.00  0.00    +0.210 HD
ENDBRANCH  37  43
BRANCH  38  45
ATOM     45  O   LIG A   1     -10.020   1.317 122.105  0.00  0.00    -0.387 OA
ATOM     46  H   LIG A   1     -10.915   1.183 121.733  0.00  0.00    +0.210 HD
ENDBRANCH  38  45
ENDBRANCH   2  35
BRANCH   1  47
ATOM     47  O   LIG A   1      -7.396  -0.569 128.057  0.00  0.00    -0.506 OA
ATOM     48  H   LIG A   1      -6.717  -1.259 127.890  0.00  0.00    +0.292 HD
ENDBRANCH   1  47
BRANCH   5  49
ATOM     49  O   LIG A   1      -4.438   3.072 128.968  0.00  0.00    -0.505 OA
ATOM     50  H   LIG A   1      -4.941   3.392 129.752  0.00  0.00    +0.292 HD
ENDBRANCH   5  49
TORSDOF 14
ENDMDL
MODEL 5
REMARK VINA RESULT:      -8.2      3.102      8.636
REMARK  Name = NuBBE_1244
REMARK  14 active torsions:
REMARK  status: ('A' for Active; 'I' for Inactive)
REMARK    1  A    between atoms: O_1  and  C_2
REMARK    2  A    between atoms: C_3  and  C_37
REMARK    3  A    between atoms: C_6  and  O_24
REMARK    4  A    between atoms: C_7  and  C_8
REMARK    5  A    between atoms: C_11  and  C_13
REMARK    6  A    between atoms: C_13  and  O_14
REMARK    7  A    between atoms: C_15  and  O_23
REMARK    8  A    between atoms: C_17  and  O_22
REMARK    9  A    between atoms: C_19  and  O_21
REMARK   10  A    between atoms: C_28  and  C_30
REMARK   11  A    between atoms: C_33  and  O_36
REMARK   12  A    between atoms: C_39  and  O_41
REMARK   13  A    between atoms: C_42  and  O_44
REMARK   14  A    between atoms: C_45  and  O_49
REMARK                            x       y       z     vdW  Elec       q    Type
REMARK                         _______ _______ _______ _____ _____    ______ ____
ROOT
ATOM      1  C   LIG A   1      -7.429   1.628 130.111  0.00  0.00    +0.135 A 
ATOM      2  C   LIG A   1      -8.257   2.681 129.646  0.00  0.00    +0.069 A 
ATOM      3  C   LIG A   1      -8.850   3.514 130.615  0.00  0.00    +0.152 A 
ATOM      4  C   LIG A   1      -8.603   3.293 131.976  0.00  0.00    +0.106 A 
ATOM      5  C   LIG A   1      -7.810   2.216 132.404  0.00  0.00    +0.140 A 
ATOM      6  C   LIG A   1      -7.228   1.339 131.479  0.00  0.00    +0.068 A 
ATOM      7  C   LIG A   1      -9.168   4.233 132.956  0.00  0.00    +0.197 A 
ATOM      8  O   LIG A   1      -9.012   4.076 134.157  0.00  0.00    -0.287 OA
ATOM      9  C   LIG A   1      -9.905   5.389 132.435  0.00  0.00    +0.098 A 
ATOM     10  C   LIG A   1     -10.117   5.484 131.117  0.00  0.00    +0.139 A 
ATOM     11  O   LIG A   1      -9.657   4.551 130.199  0.00  0.00    -0.454 OA
ENDROOT
BRANCH   6  12
ATOM     12  C   LIG A   1      -6.472   0.104 131.980  0.00  0.00    +0.187 C 
ATOM     13  O   LIG A   1      -5.324  -0.093 131.115  0.00  0.00    -0.361 OA
ATOM     14  C   LIG A   1      -4.532  -1.235 131.471  0.00  0.00    +0.175 C 
ATOM     15  C   LIG A   1      -5.362  -2.523 131.359  0.00  0.00    +0.176 C 
ATOM     16  C   LIG A   1      -6.561  -2.412 132.294  0.00  0.00    +0.177 C 
ATOM     17  C   LIG A   1      -7.385  -1.155 131.998  0.00  0.00    +0.179 C 
BRANCH  17  18
ATOM     18  O   LIG A   1      -8.415  -1.070 132.990  0.00  0.00    -0.386 OA
ATOM     19  H   LIG A   1      -8.014  -1.402 133.818  0.00  0.00    +0.210 HD
ENDBRANCH  17  18
BRANCH  16  20
ATOM     20  O   LIG A   1      -7.398  -3.572 132.151  0.00  0.00    -0.387 OA
ATOM     21  H   LIG A   1      -8.059  -3.323 131.471  0.00  0.00    +0.210 HD
ENDBRANCH  16  20
BRANCH  15  22
ATOM     22  O   LIG A   1      -4.627  -3.695 131.731  0.00  0.00    -0.387 OA
ATOM     23  H   LIG A   1      -4.707  -3.779 132.706  0.00  0.00    +0.210 HD
ENDBRANCH  15  22
BRANCH  14  24
ATOM     24  C   LIG A   1      -3.318  -1.278 130.532  0.00  0.00    +0.190 C 
BRANCH  24  25
ATOM     25  O   LIG A   1      -3.574  -2.074 129.380  0.00  0.00    -0.392 OA
ATOM     26  H   LIG A   1      -4.529  -2.014 129.191  0.00  0.00    +0.209 HD
ENDBRANCH  24  25
ENDBRANCH  14  24
ENDBRANCH   6  12
BRANCH  10  27
ATOM     27  C   LIG A   1     -10.865   6.625 130.530  0.00  0.00    +0.018 A 
ATOM     28  C   LIG A   1     -10.378   7.297 129.396  0.00  0.00    +0.015 A 
ATOM     29  C   LIG A   1     -11.081   8.370 128.829  0.00  0.00    +0.046 A 
ATOM     30  C   LIG A   1     -12.281   8.779 129.396  0.00  0.00    +0.117 A 
ATOM     31  C   LIG A   1     -12.789   8.132 130.513  0.00  0.00    +0.046 A 
ATOM     32  C   LIG A   1     -12.087   7.060 131.073  0.00  0.00    +0.015 A 
BRANCH  30  33
ATOM     33  O   LIG A   1     -13.000   9.818 128.886  0.00  0.00    -0.507 OA
ATOM     34  H   LIG A   1     -12.412  10.585 128.790  0.00  0.00    +0.292 HD
ENDBRANCH  30  33
ENDBRANCH  10  27
BRANCH   2  35
ATOM     35  C   LIG A   1      -8.404   2.872 128.130  0.00  0.00    +0.186 C 
ATOM     36  C   LIG A   1      -7.531   4.048 127.584  0.00  0.00    +0.179 C 
ATOM     37  C   LIG A   1      -6.360   3.515 126.751  0.00  0.00    +0.176 C 
ATOM     38  C   LIG A   1      -6.869   2.656 125.581  0.00  0.00    +0.171 C 
ATOM     39  C   LIG A   1      -8.100   1.839 125.989  0.00  0.00    +0.194 C 
ATOM     40  O   LIG A   1      -8.145   1.652 127.408  0.00  0.00    -0.366 OA
BRANCH  36  41
ATOM     41  O   LIG A   1      -8.334   4.901 126.746  0.00  0.00    -0.386 OA
ATOM     42  H   LIG A   1      -9.261   4.745 127.010  0.00  0.00    +0.210 HD
ENDBRANCH  36  41
BRANCH  37  43
ATOM     43  O   LIG A   1      -5.466   2.729 127.563  0.00  0.00    -0.387 OA
ATOM     44  H   LIG A   1      -5.474   1.820 127.196  0.00  0.00    +0.210 HD
ENDBRANCH  37  43
BRANCH  38  45
ATOM     45  O   LIG A   1      -5.819   1.780 125.142  0.00  0.00    -0.387 OA
ATOM     46  H   LIG A   1      -6.096   0.875 125.392  0.00  0.00    +0.210 HD
ENDBRANCH  38  45
ENDBRANCH   2  35
BRANCH   1  47
ATOM     47  O   LIG A   1      -6.761   0.901 129.151  0.00  0.00    -0.506 OA
ATOM     48  H   LIG A   1      -7.462   0.512 128.583  0.00  0.00    +0.292 HD
ENDBRANCH   1  47
BRANCH   5  49
ATOM     49  O   LIG A   1      -7.544   2.004 133.734  0.00  0.00    -0.505 OA
ATOM     50  H   LIG A   1      -7.301   2.863 134.151  0.00  0.00    +0.292 HD
ENDBRANCH   5  49
TORSDOF 14
ENDMDL
MODEL 6
REMARK VINA RESULT:      -8.2      3.428      9.001
REMARK  Name = NuBBE_1244
REMARK  14 active torsions:
REMARK  status: ('A' for Active; 'I' for Inactive)
REMARK    1  A    between atoms: O_1  and  C_2
REMARK    2  A    between atoms: C_3  and  C_37
REMARK    3  A    between atoms: C_6  and  O_24
REMARK    4  A    between atoms: C_7  and  C_8
REMARK    5  A    between atoms: C_11  and  C_13
REMARK    6  A    between atoms: C_13  and  O_14
REMARK    7  A    between atoms: C_15  and  O_23
REMARK    8  A    between atoms: C_17  and  O_22
REMARK    9  A    between atoms: C_19  and  O_21
REMARK   10  A    between atoms: C_28  and  C_30
REMARK   11  A    between atoms: C_33  and  O_36
REMARK   12  A    between atoms: C_39  and  O_41
REMARK   13  A    between atoms: C_42  and  O_44
REMARK   14  A    between atoms: C_45  and  O_49
REMARK                            x       y       z     vdW  Elec       q    Type
REMARK                         _______ _______ _______ _____ _____    ______ ____
ROOT
ATOM      1  C   LIG A   1      -7.924   0.585 129.429  0.00  0.00    +0.135 A 
ATOM      2  C   LIG A   1      -8.618   1.753 129.024  0.00  0.00    +0.069 A 
ATOM      3  C   LIG A   1      -9.055   2.630 130.036  0.00  0.00    +0.152 A 
ATOM      4  C   LIG A   1      -8.790   2.339 131.380  0.00  0.00    +0.106 A 
ATOM      5  C   LIG A   1      -8.134   1.153 131.749  0.00  0.00    +0.140 A 
ATOM      6  C   LIG A   1      -7.713   0.232 130.780  0.00  0.00    +0.068 A 
ATOM      7  C   LIG A   1      -9.184   3.318 132.404  0.00  0.00    +0.197 A 
ATOM      8  O   LIG A   1      -9.005   3.107 133.594  0.00  0.00    -0.287 OA
ATOM      9  C   LIG A   1      -9.776   4.577 131.942  0.00  0.00    +0.098 A 
ATOM     10  C   LIG A   1     -10.023   4.738 130.636  0.00  0.00    +0.139 A 
ATOM     11  O   LIG A   1      -9.730   3.778 129.678  0.00  0.00    -0.454 OA
ENDROOT
BRANCH   6  12
ATOM     12  C   LIG A   1      -7.112  -1.107 131.220  0.00  0.00    +0.187 C 
ATOM     13  O   LIG A   1      -7.831  -1.548 132.400  0.00  0.00    -0.361 OA
ATOM     14  C   LIG A   1      -7.354  -2.795 132.925  0.00  0.00    +0.175 C 
ATOM     15  C   LIG A   1      -5.884  -2.672 133.356  0.00  0.00    +0.176 C 
ATOM     16  C   LIG A   1      -5.053  -2.267 132.143  0.00  0.00    +0.177 C 
ATOM     17  C   LIG A   1      -5.588  -0.982 131.504  0.00  0.00    +0.179 C 
BRANCH  17  18
ATOM     18  O   LIG A   1      -4.828  -0.743 130.313  0.00  0.00    -0.386 OA
ATOM     19  H   LIG A   1      -5.438  -0.917 129.569  0.00  0.00    +0.210 HD
ENDBRANCH  17  18
BRANCH  16  20
ATOM     20  O   LIG A   1      -3.685  -2.069 132.536  0.00  0.00    -0.387 OA
ATOM     21  H   LIG A   1      -3.407  -1.250 132.074  0.00  0.00    +0.210 HD
ENDBRANCH  16  20
BRANCH  15  22
ATOM     22  O   LIG A   1      -5.346  -3.898 133.863  0.00  0.00    -0.387 OA
ATOM     23  H   LIG A   1      -5.507  -3.897 134.832  0.00  0.00    +0.210 HD
ENDBRANCH  15  22
BRANCH  14  24
ATOM     24  C   LIG A   1      -8.247  -3.179 134.114  0.00  0.00    +0.190 C 
BRANCH  24  25
ATOM     25  O   LIG A   1      -7.793  -2.583 135.324  0.00  0.00    -0.392 OA
ATOM     26  H   LIG A   1      -8.285  -1.749 135.441  0.00  0.00    +0.209 HD
ENDBRANCH  24  25
ENDBRANCH  14  24
ENDBRANCH   6  12
BRANCH  10  27
ATOM     27  C   LIG A   1     -10.631   5.986 130.107  0.00  0.00    +0.018 A 
ATOM     28  C   LIG A   1     -11.809   6.507 130.670  0.00  0.00    +0.015 A 
ATOM     29  C   LIG A   1     -12.386   7.688 130.184  0.00  0.00    +0.046 A 
ATOM     30  C   LIG A   1     -11.785   8.359 129.127  0.00  0.00    +0.117 A 
ATOM     31  C   LIG A   1     -10.620   7.873 128.554  0.00  0.00    +0.046 A 
ATOM     32  C   LIG A   1     -10.045   6.696 129.044  0.00  0.00    +0.015 A 
BRANCH  30  33
ATOM     33  O   LIG A   1     -12.309   9.509 128.615  0.00  0.00    -0.507 OA
ATOM     34  H   LIG A   1     -13.162   9.304 128.198  0.00  0.00    +0.292 HD
ENDBRANCH  30  33
ENDBRANCH  10  27
BRANCH   2  35
ATOM     35  C   LIG A   1      -8.795   2.006 127.521  0.00  0.00    +0.186 C 
ATOM     36  C   LIG A   1      -7.767   3.041 126.958  0.00  0.00    +0.179 C 
ATOM     37  C   LIG A   1      -6.734   2.350 126.063  0.00  0.00    +0.176 C 
ATOM     38  C   LIG A   1      -7.422   1.615 124.900  0.00  0.00    +0.171 C 
ATOM     39  C   LIG A   1      -8.750   0.995 125.348  0.00  0.00    +0.194 C 
ATOM     40  O   LIG A   1      -8.766   0.780 126.763  0.00  0.00    -0.366 OA
BRANCH  36  41
ATOM     41  O   LIG A   1      -8.457   4.034 126.175  0.00  0.00    -0.386 OA
ATOM     42  H   LIG A   1      -7.830   4.772 126.059  0.00  0.00    +0.210 HD
ENDBRANCH  36  41
BRANCH  37  43
ATOM     43  O   LIG A   1      -5.945   1.410 126.818  0.00  0.00    -0.387 OA
ATOM     44  H   LIG A   1      -5.171   1.902 127.163  0.00  0.00    +0.210 HD
ENDBRANCH  37  43
BRANCH  38  45
ATOM     45  O   LIG A   1      -6.546   0.595 124.397  0.00  0.00    -0.387 OA
ATOM     46  H   LIG A   1      -6.535  -0.114 125.073  0.00  0.00    +0.210 HD
ENDBRANCH  38  45
ENDBRANCH   2  35
BRANCH   1  47
ATOM     47  O   LIG A   1      -7.398  -0.197 128.425  0.00  0.00    -0.506 OA
ATOM     48  H   LIG A   1      -6.889   0.419 127.854  0.00  0.00    +0.292 HD
ENDBRANCH   1  47
BRANCH   5  49
ATOM     49  O   LIG A   1      -7.849   0.869 133.062  0.00  0.00    -0.505 OA
ATOM     50  H   LIG A   1      -8.678   0.937 133.589  0.00  0.00    +0.292 HD
ENDBRANCH   5  49
TORSDOF 14
ENDMDL
MODEL 7
REMARK VINA RESULT:      -8.1      4.231      7.367
REMARK  Name = NuBBE_1244
REMARK  14 active torsions:
REMARK  status: ('A' for Active; 'I' for Inactive)
REMARK    1  A    between atoms: O_1  and  C_2
REMARK    2  A    between atoms: C_3  and  C_37
REMARK    3  A    between atoms: C_6  and  O_24
REMARK    4  A    between atoms: C_7  and  C_8
REMARK    5  A    between atoms: C_11  and  C_13
REMARK    6  A    between atoms: C_13  and  O_14
REMARK    7  A    between atoms: C_15  and  O_23
REMARK    8  A    between atoms: C_17  and  O_22
REMARK    9  A    between atoms: C_19  and  O_21
REMARK   10  A    between atoms: C_28  and  C_30
REMARK   11  A    between atoms: C_33  and  O_36
REMARK   12  A    between atoms: C_39  and  O_41
REMARK   13  A    between atoms: C_42  and  O_44
REMARK   14  A    between atoms: C_45  and  O_49
REMARK                            x       y       z     vdW  Elec       q    Type
REMARK                         _______ _______ _______ _____ _____    ______ ____
ROOT
ATOM      1  C   LIG A   1      -6.869   2.953 128.088  0.00  0.00    +0.135 A 
ATOM      2  C   LIG A   1      -6.328   3.750 129.128  0.00  0.00    +0.069 A 
ATOM      3  C   LIG A   1      -4.964   4.094 129.037  0.00  0.00    +0.152 A 
ATOM      4  C   LIG A   1      -4.203   3.660 127.945  0.00  0.00    +0.106 A 
ATOM      5  C   LIG A   1      -4.760   2.838 126.952  0.00  0.00    +0.140 A 
ATOM      6  C   LIG A   1      -6.103   2.440 127.018  0.00  0.00    +0.068 A 
ATOM      7  C   LIG A   1      -2.806   4.109 127.837  0.00  0.00    +0.197 A 
ATOM      8  O   LIG A   1      -2.084   3.740 126.923  0.00  0.00    -0.287 OA
ATOM      9  C   LIG A   1      -2.317   5.043 128.856  0.00  0.00    +0.098 A 
ATOM     10  C   LIG A   1      -3.116   5.364 129.881  0.00  0.00    +0.139 A 
ATOM     11  O   LIG A   1      -4.406   4.872 130.028  0.00  0.00    -0.454 OA
ENDROOT
BRANCH   6  12
ATOM     12  C   LIG A   1      -6.648   1.445 125.989  0.00  0.00    +0.187 C 
ATOM     13  O   LIG A   1      -8.017   1.819 125.692  0.00  0.00    -0.361 OA
ATOM     14  C   LIG A   1      -8.653   0.951 124.744  0.00  0.00    +0.175 C 
ATOM     15  C   LIG A   1      -8.723  -0.484 125.288  0.00  0.00    +0.176 C 
ATOM     16  C   LIG A   1      -7.305  -0.969 125.566  0.00  0.00    +0.177 C 
ATOM     17  C   LIG A   1      -6.565  -0.018 126.511  0.00  0.00    +0.179 C 
BRANCH  17  18
ATOM     18  O   LIG A   1      -5.214  -0.484 126.623  0.00  0.00    -0.386 OA
ATOM     19  H   LIG A   1      -4.831  -0.005 127.385  0.00  0.00    +0.210 HD
ENDBRANCH  17  18
BRANCH  16  20
ATOM     20  O   LIG A   1      -7.346  -2.282 126.150  0.00  0.00    -0.387 OA
ATOM     21  H   LIG A   1      -8.033  -2.225 126.848  0.00  0.00    +0.210 HD
ENDBRANCH  16  20
BRANCH  15  22
ATOM     22  O   LIG A   1      -9.325  -1.401 124.368  0.00  0.00    -0.387 OA
ATOM     23  H   LIG A   1      -9.547  -0.887 123.561  0.00  0.00    +0.210 HD
ENDBRANCH  15  22
BRANCH  14  24
ATOM     24  C   LIG A   1     -10.057   1.505 124.465  0.00  0.00    +0.190 C 
BRANCH  24  25
ATOM     25  O   LIG A   1     -10.680   0.829 123.378  0.00  0.00    -0.392 OA
ATOM     26  H   LIG A   1     -10.322  -0.078 123.355  0.00  0.00    +0.209 HD
ENDBRANCH  24  25
ENDBRANCH  14  24
ENDBRANCH   6  12
BRANCH  10  27
ATOM     27  C   LIG A   1      -2.675   6.296 130.950  0.00  0.00    +0.018 A 
ATOM     28  C   LIG A   1      -1.540   6.012 131.729  0.00  0.00    +0.015 A 
ATOM     29  C   LIG A   1      -1.110   6.889 132.734  0.00  0.00    +0.046 A 
ATOM     30  C   LIG A   1      -1.816   8.062 132.967  0.00  0.00    +0.117 A 
ATOM     31  C   LIG A   1      -2.937   8.372 132.212  0.00  0.00    +0.046 A 
ATOM     32  C   LIG A   1      -3.361   7.496 131.207  0.00  0.00    +0.015 A 
BRANCH  30  33
ATOM     33  O   LIG A   1      -1.442   8.945 133.936  0.00  0.00    -0.507 OA
ATOM     34  H   LIG A   1      -1.388   9.832 133.544  0.00  0.00    +0.292 HD
ENDBRANCH  30  33
ENDBRANCH  10  27
BRANCH   2  35
ATOM     35  C   LIG A   1      -7.270   4.225 130.242  0.00  0.00    +0.186 C 
ATOM     36  C   LIG A   1      -7.635   5.740 130.117  0.00  0.00    +0.179 C 
ATOM     37  C   LIG A   1      -9.098   5.913 129.694  0.00  0.00    +0.176 C 
ATOM     38  C   LIG A   1     -10.042   5.231 130.698  0.00  0.00    +0.171 C 
ATOM     39  C   LIG A   1      -9.432   3.931 131.235  0.00  0.00    +0.194 C 
ATOM     40  O   LIG A   1      -8.455   3.410 130.327  0.00  0.00    -0.366 OA
BRANCH  36  41
ATOM     41  O   LIG A   1      -7.450   6.391 131.389  0.00  0.00    -0.386 OA
ATOM     42  H   LIG A   1      -6.497   6.595 131.453  0.00  0.00    +0.210 HD
ENDBRANCH  36  41
BRANCH  37  43
ATOM     43  O   LIG A   1      -9.323   5.363 128.381  0.00  0.00    -0.387 OA
ATOM     44  H   LIG A   1      -8.447   5.096 128.032  0.00  0.00    +0.210 HD
ENDBRANCH  37  43
BRANCH  38  45
ATOM     45  O   LIG A   1     -11.299   4.958 130.059  0.00  0.00    -0.387 OA
ATOM     46  H   LIG A   1     -11.987   5.080 130.746  0.00  0.00    +0.210 HD
ENDBRANCH  38  45
ENDBRANCH   2  35
BRANCH   1  47
ATOM     47  O   LIG A   1      -8.227   2.730 128.128  0.00  0.00    -0.506 OA
ATOM     48  H   LIG A   1      -8.444   2.284 127.280  0.00  0.00    +0.292 HD
ENDBRANCH   1  47
BRANCH   5  49
ATOM     49  O   LIG A   1      -4.028   2.426 125.866  0.00  0.00    -0.505 OA
ATOM     50  H   LIG A   1      -4.109   3.102 125.154  0.00  0.00    +0.292 HD
ENDBRANCH   5  49
TORSDOF 14
ENDMDL
MODEL 8
REMARK VINA RESULT:      -8.1      3.776      6.783
REMARK  Name = NuBBE_1244
REMARK  14 active torsions:
REMARK  status: ('A' for Active; 'I' for Inactive)
REMARK    1  A    between atoms: O_1  and  C_2
REMARK    2  A    between atoms: C_3  and  C_37
REMARK    3  A    between atoms: C_6  and  O_24
REMARK    4  A    between atoms: C_7  and  C_8
REMARK    5  A    between atoms: C_11  and  C_13
REMARK    6  A    between atoms: C_13  and  O_14
REMARK    7  A    between atoms: C_15  and  O_23
REMARK    8  A    between atoms: C_17  and  O_22
REMARK    9  A    between atoms: C_19  and  O_21
REMARK   10  A    between atoms: C_28  and  C_30
REMARK   11  A    between atoms: C_33  and  O_36
REMARK   12  A    between atoms: C_39  and  O_41
REMARK   13  A    between atoms: C_42  and  O_44
REMARK   14  A    between atoms: C_45  and  O_49
REMARK                            x       y       z     vdW  Elec       q    Type
REMARK                         _______ _______ _______ _____ _____    ______ ____
ROOT
ATOM      1  C   LIG A   1      -7.406   3.946 129.217  0.00  0.00    +0.135 A 
ATOM      2  C   LIG A   1      -7.656   4.378 130.545  0.00  0.00    +0.069 A 
ATOM      3  C   LIG A   1      -6.545   4.512 131.401  0.00  0.00    +0.152 A 
ATOM      4  C   LIG A   1      -5.257   4.232 130.928  0.00  0.00    +0.106 A 
ATOM      5  C   LIG A   1      -5.049   3.769 129.619  0.00  0.00    +0.140 A 
ATOM      6  C   LIG A   1      -6.127   3.585 128.742  0.00  0.00    +0.068 A 
ATOM      7  C   LIG A   1      -4.112   4.466 131.822  0.00  0.00    +0.197 A 
ATOM      8  O   LIG A   1      -2.968   4.213 131.476  0.00  0.00    -0.287 OA
ATOM      9  C   LIG A   1      -4.392   5.042 133.141  0.00  0.00    +0.098 A 
ATOM     10  C   LIG A   1      -5.665   5.235 133.509  0.00  0.00    +0.139 A 
ATOM     11  O   LIG A   1      -6.749   4.934 132.697  0.00  0.00    -0.454 OA
ENDROOT
BRANCH   6  12
ATOM     12  C   LIG A   1      -5.882   2.961 127.364  0.00  0.00    +0.187 C 
ATOM     13  O   LIG A   1      -6.957   3.386 126.488  0.00  0.00    -0.361 OA
ATOM     14  C   LIG A   1      -6.854   2.855 125.159  0.00  0.00    +0.175 C 
ATOM     15  C   LIG A   1      -6.920   1.320 125.184  0.00  0.00    +0.176 C 
ATOM     16  C   LIG A   1      -5.774   0.797 126.043  0.00  0.00    +0.177 C 
ATOM     17  C   LIG A   1      -5.804   1.410 127.447  0.00  0.00    +0.179 C 
BRANCH  17  18
ATOM     18  O   LIG A   1      -4.635   0.957 128.141  0.00  0.00    -0.386 OA
ATOM     19  H   LIG A   1      -3.937   0.876 127.460  0.00  0.00    +0.210 HD
ENDBRANCH  17  18
BRANCH  16  20
ATOM     20  O   LIG A   1      -5.860  -0.634 126.147  0.00  0.00    -0.387 OA
ATOM     21  H   LIG A   1      -6.331  -0.918 125.336  0.00  0.00    +0.210 HD
ENDBRANCH  16  20
BRANCH  15  22
ATOM     22  O   LIG A   1      -6.793   0.734 123.884  0.00  0.00    -0.387 OA
ATOM     23  H   LIG A   1      -6.629   1.472 123.257  0.00  0.00    +0.210 HD
ENDBRANCH  15  22
BRANCH  14  24
ATOM     24  C   LIG A   1      -8.000   3.444 124.325  0.00  0.00    +0.190 C 
BRANCH  24  25
ATOM     25  O   LIG A   1      -9.001   4.029 125.151  0.00  0.00    -0.392 OA
ATOM     26  H   LIG A   1      -9.540   4.614 124.585  0.00  0.00    +0.209 HD
ENDBRANCH  24  25
ENDBRANCH  14  24
ENDBRANCH   6  12
BRANCH  10  27
ATOM     27  C   LIG A   1      -6.013   5.806 134.835  0.00  0.00    +0.018 A 
ATOM     28  C   LIG A   1      -5.061   6.518 135.584  0.00  0.00    +0.015 A 
ATOM     29  C   LIG A   1      -5.382   7.067 136.833  0.00  0.00    +0.046 A 
ATOM     30  C   LIG A   1      -6.664   6.907 137.343  0.00  0.00    +0.117 A 
ATOM     31  C   LIG A   1      -7.626   6.214 136.624  0.00  0.00    +0.046 A 
ATOM     32  C   LIG A   1      -7.303   5.670 135.377  0.00  0.00    +0.015 A 
BRANCH  30  33
ATOM     33  O   LIG A   1      -7.025   7.419 138.554  0.00  0.00    -0.507 OA
ATOM     34  H   LIG A   1      -6.727   6.810 139.249  0.00  0.00    +0.292 HD
ENDBRANCH  30  33
ENDBRANCH  10  27
BRANCH   2  35
ATOM     35  C   LIG A   1      -9.099   4.720 130.937  0.00  0.00    +0.186 C 
ATOM     36  C   LIG A   1      -9.339   6.259 131.071  0.00  0.00    +0.179 C 
ATOM     37  C   LIG A   1     -10.213   6.775 129.923  0.00  0.00    +0.176 C 
ATOM     38  C   LIG A   1     -11.562   6.039 129.890  0.00  0.00    +0.171 C 
ATOM     39  C   LIG A   1     -11.397   4.564 130.272  0.00  0.00    +0.194 C 
ATOM     40  O   LIG A   1     -10.055   4.121 130.040  0.00  0.00    -0.366 OA
BRANCH  36  41
ATOM     41  O   LIG A   1     -10.009   6.539 132.315  0.00  0.00    -0.386 OA
ATOM     42  H   LIG A   1      -9.311   6.791 132.949  0.00  0.00    +0.210 HD
ENDBRANCH  36  41
BRANCH  37  43
ATOM     43  O   LIG A   1      -9.549   6.608 128.655  0.00  0.00    -0.387 OA
ATOM     44  H   LIG A   1      -8.668   6.222 128.844  0.00  0.00    +0.210 HD
ENDBRANCH  37  43
BRANCH  38  45
ATOM     45  O   LIG A   1     -12.131   6.148 128.575  0.00  0.00    -0.387 OA
ATOM     46  H   LIG A   1     -13.047   6.473 128.700  0.00  0.00    +0.210 HD
ENDBRANCH  38  45
ENDBRANCH   2  35
BRANCH   1  47
ATOM     47  O   LIG A   1      -8.484   3.938 128.361  0.00  0.00    -0.506 OA
ATOM     48  H   LIG A   1      -9.080   3.233 128.696  0.00  0.00    +0.292 HD
ENDBRANCH   1  47
BRANCH   5  49
ATOM     49  O   LIG A   1      -3.788   3.514 129.139  0.00  0.00    -0.505 OA
ATOM     50  H   LIG A   1      -3.314   2.937 129.781  0.00  0.00    +0.292 HD
ENDBRANCH   5  49
TORSDOF 14
ENDMDL
MODEL 9
REMARK VINA RESULT:      -8.0      4.023      6.398
REMARK  Name = NuBBE_1244
REMARK  14 active torsions:
REMARK  status: ('A' for Active; 'I' for Inactive)
REMARK    1  A    between atoms: O_1  and  C_2
REMARK    2  A    between atoms: C_3  and  C_37
REMARK    3  A    between atoms: C_6  and  O_24
REMARK    4  A    between atoms: C_7  and  C_8
REMARK    5  A    between atoms: C_11  and  C_13
REMARK    6  A    between atoms: C_13  and  O_14
REMARK    7  A    between atoms: C_15  and  O_23
REMARK    8  A    between atoms: C_17  and  O_22
REMARK    9  A    between atoms: C_19  and  O_21
REMARK   10  A    between atoms: C_28  and  C_30
REMARK   11  A    between atoms: C_33  and  O_36
REMARK   12  A    between atoms: C_39  and  O_41
REMARK   13  A    between atoms: C_42  and  O_44
REMARK   14  A    between atoms: C_45  and  O_49
REMARK                            x       y       z     vdW  Elec       q    Type
REMARK                         _______ _______ _______ _____ _____    ______ ____
ROOT
ATOM      1  C   LIG A   1      -8.121   2.935 129.427  0.00  0.00    +0.135 A 
ATOM      2  C   LIG A   1      -8.258   3.513 130.715  0.00  0.00    +0.069 A 
ATOM      3  C   LIG A   1      -7.221   3.285 131.641  0.00  0.00    +0.152 A 
ATOM      4  C   LIG A   1      -6.106   2.523 131.272  0.00  0.00    +0.106 A 
ATOM      5  C   LIG A   1      -6.020   1.932 130.001  0.00  0.00    +0.140 A 
ATOM      6  C   LIG A   1      -7.044   2.100 129.058  0.00  0.00    +0.068 A 
ATOM      7  C   LIG A   1      -5.002   2.378 132.233  0.00  0.00    +0.197 A 
ATOM      8  O   LIG A   1      -4.017   1.701 131.979  0.00  0.00    -0.287 OA
ATOM      9  C   LIG A   1      -5.115   3.101 133.504  0.00  0.00    +0.098 A 
ATOM     10  C   LIG A   1      -6.243   3.770 133.773  0.00  0.00    +0.139 A 
ATOM     11  O   LIG A   1      -7.320   3.836 132.901  0.00  0.00    -0.454 OA
ENDROOT
BRANCH   6  12
ATOM     12  C   LIG A   1      -6.979   1.342 127.728  0.00  0.00    +0.187 C 
ATOM     13  O   LIG A   1      -7.530   2.204 126.700  0.00  0.00    -0.361 OA
ATOM     14  C   LIG A   1      -7.540   1.602 125.398  0.00  0.00    +0.175 C 
ATOM     15  C   LIG A   1      -8.415   0.339 125.393  0.00  0.00    +0.176 C 
ATOM     16  C   LIG A   1      -7.854  -0.645 126.415  0.00  0.00    +0.177 C 
ATOM     17  C   LIG A   1      -7.748  -0.007 127.804  0.00  0.00    +0.179 C 
BRANCH  17  18
ATOM     18  O   LIG A   1      -7.109  -0.956 128.666  0.00  0.00    -0.386 OA
ATOM     19  H   LIG A   1      -6.695  -1.615 128.075  0.00  0.00    +0.210 HD
ENDBRANCH  17  18
BRANCH  16  20
ATOM     20  O   LIG A   1      -8.700  -1.805 126.487  0.00  0.00    -0.387 OA
ATOM     21  H   LIG A   1      -9.371  -1.584 127.167  0.00  0.00    +0.210 HD
ENDBRANCH  16  20
BRANCH  15  22
ATOM     22  O   LIG A   1      -8.438  -0.319 124.122  0.00  0.00    -0.387 OA
ATOM     23  H   LIG A   1      -7.715   0.074 123.587  0.00  0.00    +0.210 HD
ENDBRANCH  15  22
BRANCH  14  24
ATOM     24  C   LIG A   1      -8.070   2.643 124.402  0.00  0.00    +0.190 C 
BRANCH  24  25
ATOM     25  O   LIG A   1      -9.090   3.451 124.980  0.00  0.00    -0.392 OA
ATOM     26  H   LIG A   1      -9.886   2.893 125.071  0.00  0.00    +0.209 HD
ENDBRANCH  24  25
ENDBRANCH  14  24
ENDBRANCH   6  12
BRANCH  10  27
ATOM     27  C   LIG A   1      -6.421   4.513 135.047  0.00  0.00    +0.018 A 
ATOM     28  C   LIG A   1      -5.504   4.364 136.101  0.00  0.00    +0.015 A 
ATOM     29  C   LIG A   1      -5.658   5.067 137.304  0.00  0.00    +0.046 A 
ATOM     30  C   LIG A   1      -6.737   5.928 137.460  0.00  0.00    +0.117 A 
ATOM     31  C   LIG A   1      -7.655   6.100 136.436  0.00  0.00    +0.046 A 
ATOM     32  C   LIG A   1      -7.496   5.400 135.236  0.00  0.00    +0.015 A 
BRANCH  30  33
ATOM     33  O   LIG A   1      -6.934   6.631 138.611  0.00  0.00    -0.507 OA
ATOM     34  H   LIG A   1      -7.884   6.640 138.812  0.00  0.00    +0.292 HD
ENDBRANCH  30  33
ENDBRANCH  10  27
BRANCH   2  35
ATOM     35  C   LIG A   1      -9.491   4.386 130.990  0.00  0.00    +0.186 C 
ATOM     36  C   LIG A   1      -9.179   5.915 130.897  0.00  0.00    +0.179 C 
ATOM     37  C   LIG A   1      -9.827   6.527 129.650  0.00  0.00    +0.176 C 
ATOM     38  C   LIG A   1     -11.348   6.304 129.659  0.00  0.00    +0.171 C 
ATOM     39  C   LIG A   1     -11.703   4.936 130.250  0.00  0.00    +0.194 C 
ATOM     40  O   LIG A   1     -10.601   4.029 130.143  0.00  0.00    -0.366 OA
BRANCH  36  41
ATOM     41  O   LIG A   1      -9.702   6.588 132.058  0.00  0.00    -0.386 OA
ATOM     42  H   LIG A   1      -9.552   7.541 131.910  0.00  0.00    +0.210 HD
ENDBRANCH  36  41
BRANCH  37  43
ATOM     43  O   LIG A   1      -9.270   5.957 128.449  0.00  0.00    -0.387 OA
ATOM     44  H   LIG A   1      -9.458   4.995 128.478  0.00  0.00    +0.210 HD
ENDBRANCH  37  43
BRANCH  38  45
ATOM     45  O   LIG A   1     -11.852   6.409 128.317  0.00  0.00    -0.387 OA
ATOM     46  H   LIG A   1     -11.092   6.231 127.726  0.00  0.00    +0.210 HD
ENDBRANCH  38  45
ENDBRANCH   2  35
BRANCH   1  47
ATOM     47  O   LIG A   1      -9.081   3.268 128.498  0.00  0.00    -0.506 OA
ATOM     48  H   LIG A   1      -9.937   3.213 128.976  0.00  0.00    +0.292 HD
ENDBRANCH   1  47
BRANCH   5  49
ATOM     49  O   LIG A   1      -4.921   1.202 129.622  0.00  0.00    -0.505 OA
ATOM     50  H   LIG A   1      -5.206   0.503 128.989  0.00  0.00    +0.292 HD
ENDBRANCH   5  49
TORSDOF 14
ENDMDL
