MODEL 1
REMARK VINA RESULT:      -8.8      0.000      0.000
REMARK  Name = NuBBE_607
REMARK  12 active torsions:
REMARK  status: ('A' for Active; 'I' for Inactive)
REMARK    1  A    between atoms: C_1  and  C_2
REMARK    2  A    between atoms: C_2  and  C_40
REMARK    3  A    between atoms: C_5  and  C_37
REMARK    4  A    between atoms: C_9  and  C_36
REMARK    5  A    between atoms: C_14  and  C_15
REMARK    6  A    between atoms: C_14  and  C_35
REMARK    7  A    between atoms: C_16  and  O_31
REMARK    8  A    between atoms: C_20  and  C_30
REMARK    9  A    between atoms: C_25  and  C_26
REMARK   10  A    between atoms: O_31  and  C_32
REMARK   11  A    between atoms: C_32  and  C_33
REMARK   12  A    between atoms: C_37  and  O_38
REMARK                            x       y       z     vdW  Elec       q    Type
REMARK                         _______ _______ _______ _____ _____    ______ ____
ROOT
ATOM      1  C   LIG A   1      -8.160   2.982 125.912  0.00  0.00    +0.011 C 
ATOM      2  C   LIG A   1      -7.452   1.614 126.023  0.00  0.00    -0.035 C 
ATOM      3  C   LIG A   1      -7.042   1.145 124.623  0.00  0.00    +0.007 C 
ATOM      4  C   LIG A   1      -6.440  -0.254 124.648  0.00  0.00    +0.019 C 
ATOM      5  C   LIG A   1      -7.345  -1.350 125.276  0.00  0.00    +0.075 C 
ATOM      6  C   LIG A   1      -6.482  -2.603 125.471  0.00  0.00    +0.045 C 
ATOM      7  C   LIG A   1      -5.555  -2.515 126.640  0.00  0.00    -0.025 C 
ATOM      8  C   LIG A   1      -5.938  -2.043 127.843  0.00  0.00    -0.061 C 
ATOM      9  C   LIG A   1      -5.126  -2.350 129.153  0.00  0.00    -0.007 C 
ATOM     10  C   LIG A   1      -4.370  -1.084 129.615  0.00  0.00    +0.012 C 
ATOM     11  C   LIG A   1      -4.808  -0.430 130.913  0.00  0.00    +0.005 C 
ATOM     12  C   LIG A   1      -5.063  -1.442 132.037  0.00  0.00    +0.004 C 
ATOM     13  C   LIG A   1      -5.141  -0.766 133.461  0.00  0.00    +0.005 C 
ATOM     14  C   LIG A   1      -3.705  -0.262 133.815  0.00  0.00    +0.015 C 
ATOM     15  C   LIG A   1      -5.547  -1.783 134.598  0.00  0.00    +0.182 C 
ATOM     16  C   LIG A   1      -6.069  -3.180 134.200  0.00  0.00    +0.046 C 
ATOM     17  C   LIG A   1      -5.983  -3.602 132.732  0.00  0.00    +0.011 C 
ATOM     18  C   LIG A   1      -6.222  -2.445 131.709  0.00  0.00    -0.025 C 
ATOM     19  C   LIG A   1      -6.066  -3.064 130.225  0.00  0.00    +0.005 C 
ATOM     20  C   LIG A   1      -7.344  -3.643 129.533  0.00  0.00    +0.006 C 
ATOM     21  C   LIG A   1      -8.140  -2.733 128.555  0.00  0.00    +0.012 C 
ATOM     22  C   LIG A   1      -7.364  -1.493 127.988  0.00  0.00    -0.007 C 
ATOM     23  C   LIG A   1      -7.516  -0.411 129.051  0.00  0.00    +0.016 C 
ATOM     24  C   LIG A   1      -8.036  -0.934 126.631  0.00  0.00    +0.017 C 
ATOM     25  C   LIG A   1      -8.454   0.583 126.597  0.00  0.00    +0.012 C 
ATOM     26  C   LIG A   1      -7.652  -1.912 132.012  0.00  0.00    +0.012 C 
ATOM     27  C   LIG A   1      -6.026   0.511 133.464  0.00  0.00    +0.015 C 
ATOM     28  C   LIG A   1      -3.988  -3.397 128.855  0.00  0.00    +0.016 C 
ATOM     29  C   LIG A   1      -6.202   1.835 126.894  0.00  0.00    +0.011 C 
ENDROOT
BRANCH   5  30
ATOM     30  C   LIG A   1      -8.427  -1.677 124.248  0.00  0.00    +0.311 C 
ATOM     31  O   LIG A   1      -8.314  -1.600 123.030  0.00  0.00    -0.250 OA
BRANCH  30  32
ATOM     32  O   LIG A   1      -9.576  -2.146 124.755  0.00  0.00    -0.480 OA
ATOM     33  H   LIG A   1     -10.267  -1.844 124.138  0.00  0.00    +0.295 HD
ENDBRANCH  30  32
ENDBRANCH   5  30
BRANCH  15  34
ATOM     34  O   LIG A   1      -6.585  -1.225 135.455  0.00  0.00    -0.461 OA
BRANCH  34  35
ATOM     35  C   LIG A   1      -6.527  -1.458 136.790  0.00  0.00    +0.304 C 
ATOM     36  C   LIG A   1      -5.145  -1.200 137.299  0.00  0.00    +0.136 C 
ATOM     37  O   LIG A   1      -7.467  -1.820 137.498  0.00  0.00    -0.251 OA
ENDBRANCH  34  35
ENDBRANCH  15  34
TORSDOF 4
ENDMDL
MODEL 2
REMARK VINA RESULT:      -8.8      3.979      6.630
REMARK  Name = NuBBE_607
REMARK  12 active torsions:
REMARK  status: ('A' for Active; 'I' for Inactive)
REMARK    1  A    between atoms: C_1  and  C_2
REMARK    2  A    between atoms: C_2  and  C_40
REMARK    3  A    between atoms: C_5  and  C_37
REMARK    4  A    between atoms: C_9  and  C_36
REMARK    5  A    between atoms: C_14  and  C_15
REMARK    6  A    between atoms: C_14  and  C_35
REMARK    7  A    between atoms: C_16  and  O_31
REMARK    8  A    between atoms: C_20  and  C_30
REMARK    9  A    between atoms: C_25  and  C_26
REMARK   10  A    between atoms: O_31  and  C_32
REMARK   11  A    between atoms: C_32  and  C_33
REMARK   12  A    between atoms: C_37  and  O_38
REMARK                            x       y       z     vdW  Elec       q    Type
REMARK                         _______ _______ _______ _____ _____    ______ ____
ROOT
ATOM      1  C   LIG A   1      -6.767  -3.819 129.943  0.00  0.00    +0.011 C 
ATOM      2  C   LIG A   1      -7.183  -2.727 128.933  0.00  0.00    -0.035 C 
ATOM      3  C   LIG A   1      -8.263  -3.288 128.003  0.00  0.00    +0.007 C 
ATOM      4  C   LIG A   1      -8.637  -2.297 126.908  0.00  0.00    +0.019 C 
ATOM      5  C   LIG A   1      -7.453  -1.808 126.029  0.00  0.00    +0.075 C 
ATOM      6  C   LIG A   1      -7.960  -0.628 125.190  0.00  0.00    +0.045 C 
ATOM      7  C   LIG A   1      -8.084   0.646 125.961  0.00  0.00    -0.025 C 
ATOM      8  C   LIG A   1      -7.136   1.079 126.815  0.00  0.00    -0.061 C 
ATOM      9  C   LIG A   1      -7.056   2.579 127.276  0.00  0.00    -0.007 C 
ATOM     10  C   LIG A   1      -7.525   2.707 128.743  0.00  0.00    +0.012 C 
ATOM     11  C   LIG A   1      -6.493   3.093 129.787  0.00  0.00    +0.005 C 
ATOM     12  C   LIG A   1      -5.577   4.236 129.329  0.00  0.00    +0.004 C 
ATOM     13  C   LIG A   1      -4.775   4.890 130.521  0.00  0.00    +0.005 C 
ATOM     14  C   LIG A   1      -5.807   5.654 131.411  0.00  0.00    +0.015 C 
ATOM     15  C   LIG A   1      -3.727   5.965 130.034  0.00  0.00    +0.182 C 
ATOM     16  C   LIG A   1      -3.406   6.066 128.527  0.00  0.00    +0.046 C 
ATOM     17  C   LIG A   1      -4.259   5.266 127.542  0.00  0.00    +0.011 C 
ATOM     18  C   LIG A   1      -4.722   3.869 128.069  0.00  0.00    -0.025 C 
ATOM     19  C   LIG A   1      -5.626   3.187 126.918  0.00  0.00    +0.005 C 
ATOM     20  C   LIG A   1      -4.907   2.299 125.848  0.00  0.00    +0.006 C 
ATOM     21  C   LIG A   1      -4.864   0.760 126.063  0.00  0.00    +0.012 C 
ATOM     22  C   LIG A   1      -5.919   0.178 127.068  0.00  0.00    -0.007 C 
ATOM     23  C   LIG A   1      -5.288   0.346 128.445  0.00  0.00    +0.016 C 
ATOM     24  C   LIG A   1      -6.160  -1.401 126.836  0.00  0.00    +0.017 C 
ATOM     25  C   LIG A   1      -5.953  -2.357 128.069  0.00  0.00    +0.012 C 
ATOM     26  C   LIG A   1      -3.412   3.087 128.373  0.00  0.00    +0.012 C 
ATOM     27  C   LIG A   1      -4.142   3.828 131.463  0.00  0.00    +0.015 C 
ATOM     28  C   LIG A   1      -8.081   3.454 126.461  0.00  0.00    +0.016 C 
ATOM     29  C   LIG A   1      -7.751  -1.559 129.760  0.00  0.00    +0.011 C 
ENDROOT
BRANCH   5  30
ATOM     30  C   LIG A   1      -7.102  -2.950 125.077  0.00  0.00    +0.311 C 
ATOM     31  O   LIG A   1      -7.876  -3.801 124.654  0.00  0.00    -0.250 OA
BRANCH  30  32
ATOM     32  O   LIG A   1      -5.837  -2.959 124.634  0.00  0.00    -0.480 OA
ATOM     33  H   LIG A   1      -5.288  -2.887 125.435  0.00  0.00    +0.295 HD
ENDBRANCH  30  32
ENDBRANCH   5  30
BRANCH  15  34
ATOM     34  O   LIG A   1      -2.436   5.769 130.680  0.00  0.00    -0.461 OA
BRANCH  34  35
ATOM     35  C   LIG A   1      -1.916   6.778 131.423  0.00  0.00    +0.304 C 
ATOM     36  C   LIG A   1      -2.956   7.824 131.671  0.00  0.00    +0.136 C 
ATOM     37  O   LIG A   1      -0.762   6.838 131.848  0.00  0.00    -0.251 OA
ENDBRANCH  34  35
ENDBRANCH  15  34
TORSDOF 4
ENDMDL
MODEL 3
REMARK VINA RESULT:      -8.7      2.417      4.206
REMARK  Name = NuBBE_607
REMARK  12 active torsions:
REMARK  status: ('A' for Active; 'I' for Inactive)
REMARK    1  A    between atoms: C_1  and  C_2
REMARK    2  A    between atoms: C_2  and  C_40
REMARK    3  A    between atoms: C_5  and  C_37
REMARK    4  A    between atoms: C_9  and  C_36
REMARK    5  A    between atoms: C_14  and  C_15
REMARK    6  A    between atoms: C_14  and  C_35
REMARK    7  A    between atoms: C_16  and  O_31
REMARK    8  A    between atoms: C_20  and  C_30
REMARK    9  A    between atoms: C_25  and  C_26
REMARK   10  A    between atoms: O_31  and  C_32
REMARK   11  A    between atoms: C_32  and  C_33
REMARK   12  A    between atoms: C_37  and  O_38
REMARK                            x       y       z     vdW  Elec       q    Type
REMARK                         _______ _______ _______ _____ _____    ______ ____
ROOT
ATOM      1  C   LIG A   1      -8.389  -3.360 123.973  0.00  0.00    +0.011 C 
ATOM      2  C   LIG A   1      -8.442  -2.222 125.015  0.00  0.00    -0.035 C 
ATOM      3  C   LIG A   1      -9.387  -1.125 124.514  0.00  0.00    +0.007 C 
ATOM      4  C   LIG A   1      -9.398   0.082 125.443  0.00  0.00    +0.019 C 
ATOM      5  C   LIG A   1      -8.007   0.726 125.701  0.00  0.00    +0.075 C 
ATOM      6  C   LIG A   1      -8.170   1.723 126.856  0.00  0.00    +0.045 C 
ATOM      7  C   LIG A   1      -8.263   1.073 128.199  0.00  0.00    -0.025 C 
ATOM      8  C   LIG A   1      -7.448   0.070 128.584  0.00  0.00    -0.061 C 
ATOM      9  C   LIG A   1      -7.251  -0.305 130.097  0.00  0.00    -0.007 C 
ATOM     10  C   LIG A   1      -7.974  -1.634 130.411  0.00  0.00    +0.012 C 
ATOM     11  C   LIG A   1      -7.123  -2.842 130.756  0.00  0.00    +0.005 C 
ATOM     12  C   LIG A   1      -5.984  -2.513 131.730  0.00  0.00    +0.004 C 
ATOM     13  C   LIG A   1      -5.346  -3.802 132.380  0.00  0.00    +0.005 C 
ATOM     14  C   LIG A   1      -6.414  -4.412 133.344  0.00  0.00    +0.015 C 
ATOM     15  C   LIG A   1      -4.083  -3.476 133.269  0.00  0.00    +0.182 C 
ATOM     16  C   LIG A   1      -3.462  -2.063 133.196  0.00  0.00    +0.046 C 
ATOM     17  C   LIG A   1      -4.210  -0.975 132.425  0.00  0.00    +0.011 C 
ATOM     18  C   LIG A   1      -4.958  -1.480 131.149  0.00  0.00    -0.025 C 
ATOM     19  C   LIG A   1      -5.707  -0.212 130.486  0.00  0.00    +0.005 C 
ATOM     20  C   LIG A   1      -4.925   0.632 129.425  0.00  0.00    +0.006 C 
ATOM     21  C   LIG A   1      -5.141   0.318 127.917  0.00  0.00    +0.012 C 
ATOM     22  C   LIG A   1      -6.443  -0.482 127.563  0.00  0.00    -0.007 C 
ATOM     23  C   LIG A   1      -6.076  -1.946 127.771  0.00  0.00    +0.016 C 
ATOM     24  C   LIG A   1      -6.854  -0.302 126.013  0.00  0.00    +0.017 C 
ATOM     25  C   LIG A   1      -7.028  -1.608 125.151  0.00  0.00    +0.012 C 
ATOM     26  C   LIG A   1      -3.856  -2.094 130.239  0.00  0.00    +0.012 C 
ATOM     27  C   LIG A   1      -5.065  -4.917 131.335  0.00  0.00    +0.015 C 
ATOM     28  C   LIG A   1      -7.963   0.755 131.018  0.00  0.00    +0.016 C 
ATOM     29  C   LIG A   1      -8.991  -2.841 126.313  0.00  0.00    +0.011 C 
ENDROOT
BRANCH   5  30
ATOM     30  C   LIG A   1      -7.641   1.515 124.445  0.00  0.00    +0.311 C 
ATOM     31  O   LIG A   1      -6.763   1.226 123.641  0.00  0.00    -0.250 OA
BRANCH  30  32
ATOM     32  O   LIG A   1      -8.411   2.583 124.194  0.00  0.00    -0.480 OA
ATOM     33  H   LIG A   1      -7.837   3.200 123.705  0.00  0.00    +0.295 HD
ENDBRANCH  30  32
ENDBRANCH   5  30
BRANCH  15  34
ATOM     34  O   LIG A   1      -2.983  -4.384 132.971  0.00  0.00    -0.461 OA
BRANCH  34  35
ATOM     35  C   LIG A   1      -2.408  -5.071 133.989  0.00  0.00    +0.304 C 
ATOM     36  C   LIG A   1      -3.011  -6.435 134.098  0.00  0.00    +0.136 C 
ATOM     37  O   LIG A   1      -1.512  -4.652 134.723  0.00  0.00    -0.251 OA
ENDBRANCH  34  35
ENDBRANCH  15  34
TORSDOF 4
ENDMDL
MODEL 4
REMARK VINA RESULT:      -8.5      3.551      8.346
REMARK  Name = NuBBE_607
REMARK  12 active torsions:
REMARK  status: ('A' for Active; 'I' for Inactive)
REMARK    1  A    between atoms: C_1  and  C_2
REMARK    2  A    between atoms: C_2  and  C_40
REMARK    3  A    between atoms: C_5  and  C_37
REMARK    4  A    between atoms: C_9  and  C_36
REMARK    5  A    between atoms: C_14  and  C_15
REMARK    6  A    between atoms: C_14  and  C_35
REMARK    7  A    between atoms: C_16  and  O_31
REMARK    8  A    between atoms: C_20  and  C_30
REMARK    9  A    between atoms: C_25  and  C_26
REMARK   10  A    between atoms: O_31  and  C_32
REMARK   11  A    between atoms: C_32  and  C_33
REMARK   12  A    between atoms: C_37  and  O_38
REMARK                            x       y       z     vdW  Elec       q    Type
REMARK                         _______ _______ _______ _____ _____    ______ ____
ROOT
ATOM      1  C   LIG A   1      -2.554   6.407 128.649  0.00  0.00    +0.011 C 
ATOM      2  C   LIG A   1      -3.497   5.629 129.594  0.00  0.00    -0.035 C 
ATOM      3  C   LIG A   1      -3.555   6.346 130.947  0.00  0.00    +0.007 C 
ATOM      4  C   LIG A   1      -4.379   5.568 131.965  0.00  0.00    +0.019 C 
ATOM      5  C   LIG A   1      -3.910   4.107 132.214  0.00  0.00    +0.075 C 
ATOM      6  C   LIG A   1      -5.003   3.407 133.031  0.00  0.00    +0.045 C 
ATOM      7  C   LIG A   1      -6.200   3.023 132.224  0.00  0.00    -0.025 C 
ATOM      8  C   LIG A   1      -6.109   2.444 131.010  0.00  0.00    -0.061 C 
ATOM      9  C   LIG A   1      -7.311   1.659 130.371  0.00  0.00    -0.007 C 
ATOM     10  C   LIG A   1      -7.929   2.484 129.220  0.00  0.00    +0.012 C 
ATOM     11  C   LIG A   1      -7.782   1.952 127.806  0.00  0.00    +0.005 C 
ATOM     12  C   LIG A   1      -8.054   0.445 127.702  0.00  0.00    +0.004 C 
ATOM     13  C   LIG A   1      -8.277  -0.033 126.215  0.00  0.00    +0.005 C 
ATOM     14  C   LIG A   1      -9.639   0.564 125.735  0.00  0.00    +0.015 C 
ATOM     15  C   LIG A   1      -8.413  -1.601 126.092  0.00  0.00    +0.182 C 
ATOM     16  C   LIG A   1      -8.056  -2.480 127.311  0.00  0.00    +0.046 C 
ATOM     17  C   LIG A   1      -7.781  -1.795 128.651  0.00  0.00    +0.011 C 
ATOM     18  C   LIG A   1      -7.049  -0.419 128.539  0.00  0.00    -0.025 C 
ATOM     19  C   LIG A   1      -6.871   0.164 130.035  0.00  0.00    +0.005 C 
ATOM     20  C   LIG A   1      -5.572  -0.215 130.821  0.00  0.00    +0.006 C 
ATOM     21  C   LIG A   1      -4.374   0.777 130.803  0.00  0.00    +0.012 C 
ATOM     22  C   LIG A   1      -4.714   2.255 130.398  0.00  0.00    -0.007 C 
ATOM     23  C   LIG A   1      -4.689   2.263 128.875  0.00  0.00    +0.016 C 
ATOM     24  C   LIG A   1      -3.584   3.290 130.906  0.00  0.00    +0.017 C 
ATOM     25  C   LIG A   1      -2.909   4.216 129.827  0.00  0.00    +0.012 C 
ATOM     26  C   LIG A   1      -5.700  -0.724 127.828  0.00  0.00    +0.012 C 
ATOM     27  C   LIG A   1      -7.217   0.549 125.239  0.00  0.00    +0.015 C 
ATOM     28  C   LIG A   1      -8.480   1.510 131.416  0.00  0.00    +0.016 C 
ATOM     29  C   LIG A   1      -4.885   5.637 128.931  0.00  0.00    +0.011 C 
ENDROOT
BRANCH   5  30
ATOM     30  C   LIG A   1      -2.651   4.185 133.076  0.00  0.00    +0.311 C 
ATOM     31  O   LIG A   1      -1.496   4.208 132.667  0.00  0.00    -0.250 OA
BRANCH  30  32
ATOM     32  O   LIG A   1      -2.865   4.296 134.394  0.00  0.00    -0.480 OA
ATOM     33  H   LIG A   1      -2.286   5.023 134.684  0.00  0.00    +0.295 HD
ENDBRANCH  30  32
ENDBRANCH   5  30
BRANCH  15  34
ATOM     34  O   LIG A   1      -7.588  -2.115 125.006  0.00  0.00    -0.461 OA
BRANCH  34  35
ATOM     35  C   LIG A   1      -7.958  -3.268 124.394  0.00  0.00    +0.304 C 
ATOM     36  C   LIG A   1      -9.279  -3.093 123.716  0.00  0.00    +0.136 C 
ATOM     37  O   LIG A   1      -7.309  -4.314 124.381  0.00  0.00    -0.251 OA
ENDBRANCH  34  35
ENDBRANCH  15  34
TORSDOF 4
ENDMDL
MODEL 5
REMARK VINA RESULT:      -8.4      4.717      8.691
REMARK  Name = NuBBE_607
REMARK  12 active torsions:
REMARK  status: ('A' for Active; 'I' for Inactive)
REMARK    1  A    between atoms: C_1  and  C_2
REMARK    2  A    between atoms: C_2  and  C_40
REMARK    3  A    between atoms: C_5  and  C_37
REMARK    4  A    between atoms: C_9  and  C_36
REMARK    5  A    between atoms: C_14  and  C_15
REMARK    6  A    between atoms: C_14  and  C_35
REMARK    7  A    between atoms: C_16  and  O_31
REMARK    8  A    between atoms: C_20  and  C_30
REMARK    9  A    between atoms: C_25  and  C_26
REMARK   10  A    between atoms: O_31  and  C_32
REMARK   11  A    between atoms: C_32  and  C_33
REMARK   12  A    between atoms: C_37  and  O_38
REMARK                            x       y       z     vdW  Elec       q    Type
REMARK                         _______ _______ _______ _____ _____    ______ ____
ROOT
ATOM      1  C   LIG A   1      -5.774   5.646 133.873  0.00  0.00    +0.011 C 
ATOM      2  C   LIG A   1      -4.883   5.511 132.618  0.00  0.00    -0.035 C 
ATOM      3  C   LIG A   1      -3.655   6.415 132.775  0.00  0.00    +0.007 C 
ATOM      4  C   LIG A   1      -2.790   6.418 131.522  0.00  0.00    +0.019 C 
ATOM      5  C   LIG A   1      -3.526   6.828 130.215  0.00  0.00    +0.075 C 
ATOM      6  C   LIG A   1      -2.592   6.503 129.041  0.00  0.00    +0.045 C 
ATOM      7  C   LIG A   1      -2.536   5.048 128.707  0.00  0.00    -0.025 C 
ATOM      8  C   LIG A   1      -3.635   4.271 128.633  0.00  0.00    -0.061 C 
ATOM      9  C   LIG A   1      -3.630   2.895 127.875  0.00  0.00    -0.007 C 
ATOM     10  C   LIG A   1      -3.661   1.731 128.891  0.00  0.00    +0.012 C 
ATOM     11  C   LIG A   1      -4.908   0.867 128.943  0.00  0.00    +0.005 C 
ATOM     12  C   LIG A   1      -5.432   0.487 127.552  0.00  0.00    +0.004 C 
ATOM     13  C   LIG A   1      -6.473  -0.699 127.595  0.00  0.00    +0.005 C 
ATOM     14  C   LIG A   1      -5.690  -1.990 127.997  0.00  0.00    +0.015 C 
ATOM     15  C   LIG A   1      -7.120  -0.994 126.186  0.00  0.00    +0.182 C 
ATOM     16  C   LIG A   1      -6.903   0.016 125.037  0.00  0.00    +0.046 C 
ATOM     17  C   LIG A   1      -5.906   1.157 125.245  0.00  0.00    +0.011 C 
ATOM     18  C   LIG A   1      -5.866   1.728 126.700  0.00  0.00    -0.025 C 
ATOM     19  C   LIG A   1      -4.748   2.893 126.738  0.00  0.00    +0.005 C 
ATOM     20  C   LIG A   1      -5.199   4.356 126.411  0.00  0.00    +0.006 C 
ATOM     21  C   LIG A   1      -5.549   5.309 127.589  0.00  0.00    +0.012 C 
ATOM     22  C   LIG A   1      -4.990   4.893 128.996  0.00  0.00    -0.007 C 
ATOM     23  C   LIG A   1      -6.009   3.904 129.549  0.00  0.00    +0.016 C 
ATOM     24  C   LIG A   1      -4.933   6.147 130.011  0.00  0.00    +0.017 C 
ATOM     25  C   LIG A   1      -5.683   6.002 131.387  0.00  0.00    +0.012 C 
ATOM     26  C   LIG A   1      -7.307   2.242 126.982  0.00  0.00    +0.012 C 
ATOM     27  C   LIG A   1      -7.539  -0.512 128.710  0.00  0.00    +0.015 C 
ATOM     28  C   LIG A   1      -2.271   2.703 127.103  0.00  0.00    +0.016 C 
ATOM     29  C   LIG A   1      -4.448   4.037 132.545  0.00  0.00    +0.011 C 
ENDROOT
BRANCH   5  30
ATOM     30  C   LIG A   1      -3.712   8.344 130.265  0.00  0.00    +0.311 C 
ATOM     31  O   LIG A   1      -3.212   9.106 131.084  0.00  0.00    -0.250 OA
BRANCH  30  32
ATOM     32  O   LIG A   1      -4.448   8.864 129.273  0.00  0.00    -0.480 OA
ATOM     33  H   LIG A   1      -3.830   8.968 128.527  0.00  0.00    +0.295 HD
ENDBRANCH  30  32
ENDBRANCH   5  30
BRANCH  15  34
ATOM     34  O   LIG A   1      -8.566  -1.135 126.292  0.00  0.00    -0.461 OA
BRANCH  34  35
ATOM     35  C   LIG A   1      -9.150  -2.265 125.820  0.00  0.00    +0.304 C 
ATOM     36  C   LIG A   1      -8.989  -3.379 126.804  0.00  0.00    +0.136 C 
ATOM     37  O   LIG A   1      -9.737  -2.374 124.744  0.00  0.00    -0.251 OA
ENDBRANCH  34  35
ENDBRANCH  15  34
TORSDOF 4
ENDMDL
MODEL 6
REMARK VINA RESULT:      -8.4      1.146      1.232
REMARK  Name = NuBBE_607
REMARK  12 active torsions:
REMARK  status: ('A' for Active; 'I' for Inactive)
REMARK    1  A    between atoms: C_1  and  C_2
REMARK    2  A    between atoms: C_2  and  C_40
REMARK    3  A    between atoms: C_5  and  C_37
REMARK    4  A    between atoms: C_9  and  C_36
REMARK    5  A    between atoms: C_14  and  C_15
REMARK    6  A    between atoms: C_14  and  C_35
REMARK    7  A    between atoms: C_16  and  O_31
REMARK    8  A    between atoms: C_20  and  C_30
REMARK    9  A    between atoms: C_25  and  C_26
REMARK   10  A    between atoms: O_31  and  C_32
REMARK   11  A    between atoms: C_32  and  C_33
REMARK   12  A    between atoms: C_37  and  O_38
REMARK                            x       y       z     vdW  Elec       q    Type
REMARK                         _______ _______ _______ _____ _____    ______ ____
ROOT
ATOM      1  C   LIG A   1      -7.908   3.273 127.502  0.00  0.00    +0.011 C 
ATOM      2  C   LIG A   1      -7.213   1.911 127.286  0.00  0.00    -0.035 C 
ATOM      3  C   LIG A   1      -6.815   1.777 125.813  0.00  0.00    +0.007 C 
ATOM      4  C   LIG A   1      -6.227   0.407 125.506  0.00  0.00    +0.019 C 
ATOM      5  C   LIG A   1      -7.140  -0.798 125.869  0.00  0.00    +0.075 C 
ATOM      6  C   LIG A   1      -6.287  -2.069 125.761  0.00  0.00    +0.045 C 
ATOM      7  C   LIG A   1      -5.354  -2.264 126.911  0.00  0.00    -0.025 C 
ATOM      8  C   LIG A   1      -5.726  -2.082 128.194  0.00  0.00    -0.061 C 
ATOM      9  C   LIG A   1      -4.910  -2.692 129.390  0.00  0.00    -0.007 C 
ATOM     10  C   LIG A   1      -4.139  -1.575 130.129  0.00  0.00    +0.012 C 
ATOM     11  C   LIG A   1      -4.564  -1.237 131.546  0.00  0.00    +0.005 C 
ATOM     12  C   LIG A   1      -4.823  -2.482 132.406  0.00  0.00    +0.004 C 
ATOM     13  C   LIG A   1      -4.887  -2.155 133.949  0.00  0.00    +0.005 C 
ATOM     14  C   LIG A   1      -3.444  -1.759 134.400  0.00  0.00    +0.015 C 
ATOM     15  C   LIG A   1      -5.296  -3.405 134.821  0.00  0.00    +0.182 C 
ATOM     16  C   LIG A   1      -5.835  -4.667 134.111  0.00  0.00    +0.046 C 
ATOM     17  C   LIG A   1      -5.761  -4.736 132.586  0.00  0.00    +0.011 C 
ATOM     18  C   LIG A   1      -5.993  -3.370 131.862  0.00  0.00    -0.025 C 
ATOM     19  C   LIG A   1      -5.851  -3.628 130.273  0.00  0.00    +0.005 C 
ATOM     20  C   LIG A   1      -7.139  -4.020 129.474  0.00  0.00    +0.006 C 
ATOM     21  C   LIG A   1      -7.931  -2.900 128.741  0.00  0.00    +0.012 C 
ATOM     22  C   LIG A   1      -7.145  -1.568 128.473  0.00  0.00    -0.007 C 
ATOM     23  C   LIG A   1      -7.281  -0.763 129.759  0.00  0.00    +0.016 C 
ATOM     24  C   LIG A   1      -7.820  -0.704 127.288  0.00  0.00    +0.017 C 
ATOM     25  C   LIG A   1      -8.222   0.783 127.612  0.00  0.00    +0.012 C 
ATOM     26  C   LIG A   1      -7.417  -2.911 132.291  0.00  0.00    +0.012 C 
ATOM     27  C   LIG A   1      -5.759  -0.906 134.255  0.00  0.00    +0.015 C 
ATOM     28  C   LIG A   1      -3.784  -3.650 128.848  0.00  0.00    +0.016 C 
ATOM     29  C   LIG A   1      -5.957   1.913 128.175  0.00  0.00    +0.011 C 
ENDROOT
BRANCH   5  30
ATOM     30  C   LIG A   1      -8.230  -0.868 124.801  0.00  0.00    +0.311 C 
ATOM     31  O   LIG A   1      -8.119  -0.522 123.631  0.00  0.00    -0.250 OA
BRANCH  30  32
ATOM     32  O   LIG A   1      -9.386  -1.418 125.197  0.00  0.00    -0.480 OA
ATOM     33  H   LIG A   1      -9.598  -0.982 126.042  0.00  0.00    +0.295 HD
ENDBRANCH  30  32
ENDBRANCH   5  30
BRANCH  15  34
ATOM     34  O   LIG A   1      -6.325  -3.053 135.791  0.00  0.00    -0.461 OA
BRANCH  34  35
ATOM     35  C   LIG A   1      -6.229  -3.543 137.053  0.00  0.00    +0.304 C 
ATOM     36  C   LIG A   1      -4.832  -3.387 137.562  0.00  0.00    +0.136 C 
ATOM     37  O   LIG A   1      -7.149  -4.039 137.703  0.00  0.00    -0.251 OA
ENDBRANCH  34  35
ENDBRANCH  15  34
TORSDOF 4
ENDMDL
MODEL 7
REMARK VINA RESULT:      -8.4      3.192      8.380
REMARK  Name = NuBBE_607
REMARK  12 active torsions:
REMARK  status: ('A' for Active; 'I' for Inactive)
REMARK    1  A    between atoms: C_1  and  C_2
REMARK    2  A    between atoms: C_2  and  C_40
REMARK    3  A    between atoms: C_5  and  C_37
REMARK    4  A    between atoms: C_9  and  C_36
REMARK    5  A    between atoms: C_14  and  C_15
REMARK    6  A    between atoms: C_14  and  C_35
REMARK    7  A    between atoms: C_16  and  O_31
REMARK    8  A    between atoms: C_20  and  C_30
REMARK    9  A    between atoms: C_25  and  C_26
REMARK   10  A    between atoms: O_31  and  C_32
REMARK   11  A    between atoms: C_32  and  C_33
REMARK   12  A    between atoms: C_37  and  O_38
REMARK                            x       y       z     vdW  Elec       q    Type
REMARK                         _______ _______ _______ _____ _____    ______ ____
ROOT
ATOM      1  C   LIG A   1      -2.933   6.023 130.758  0.00  0.00    +0.011 C 
ATOM      2  C   LIG A   1      -4.076   5.219 131.415  0.00  0.00    -0.035 C 
ATOM      3  C   LIG A   1      -4.502   5.918 132.711  0.00  0.00    +0.007 C 
ATOM      4  C   LIG A   1      -5.549   5.115 133.470  0.00  0.00    +0.019 C 
ATOM      5  C   LIG A   1      -5.135   3.658 133.823  0.00  0.00    +0.075 C 
ATOM      6  C   LIG A   1      -6.391   2.930 134.318  0.00  0.00    +0.045 C 
ATOM      7  C   LIG A   1      -7.326   2.537 133.221  0.00  0.00    -0.025 C 
ATOM      8  C   LIG A   1      -6.908   1.975 132.070  0.00  0.00    -0.061 C 
ATOM      9  C   LIG A   1      -7.885   1.179 131.131  0.00  0.00    -0.007 C 
ATOM     10  C   LIG A   1      -8.194   2.008 129.864  0.00  0.00    +0.012 C 
ATOM     11  C   LIG A   1      -7.669   1.495 128.535  0.00  0.00    +0.005 C 
ATOM     12  C   LIG A   1      -7.876  -0.014 128.351  0.00  0.00    +0.004 C 
ATOM     13  C   LIG A   1      -7.691  -0.478 126.854  0.00  0.00    +0.005 C 
ATOM     14  C   LIG A   1      -8.889   0.103 126.037  0.00  0.00    +0.015 C 
ATOM     15  C   LIG A   1      -7.760  -2.046 126.688  0.00  0.00    +0.182 C 
ATOM     16  C   LIG A   1      -7.720  -2.934 127.951  0.00  0.00    +0.046 C 
ATOM     17  C   LIG A   1      -7.821  -2.262 129.321  0.00  0.00    +0.011 C 
ATOM     18  C   LIG A   1      -7.111  -0.872 129.416  0.00  0.00    -0.025 C 
ATOM     19  C   LIG A   1      -7.344  -0.305 130.911  0.00  0.00    +0.005 C 
ATOM     20  C   LIG A   1      -6.290  -0.672 132.009  0.00  0.00    +0.006 C 
ATOM     21  C   LIG A   1      -5.149   0.339 132.314  0.00  0.00    +0.012 C 
ATOM     22  C   LIG A   1      -5.398   1.816 131.845  0.00  0.00    -0.007 C 
ATOM     23  C   LIG A   1      -4.973   1.843 130.382  0.00  0.00    +0.016 C 
ATOM     24  C   LIG A   1      -4.461   2.862 132.640  0.00  0.00    +0.017 C 
ATOM     25  C   LIG A   1      -3.544   3.813 131.784  0.00  0.00    +0.012 C 
ATOM     26  C   LIG A   1      -5.616  -1.147 129.083  0.00  0.00    +0.012 C 
ATOM     27  C   LIG A   1      -6.423   0.134 126.196  0.00  0.00    +0.015 C 
ATOM     28  C   LIG A   1      -9.284   0.997 131.830  0.00  0.00    +0.016 C 
ATOM     29  C   LIG A   1      -5.241   5.212 130.411  0.00  0.00    +0.011 C 
ENDROOT
BRANCH   5  30
ATOM     30  C   LIG A   1      -4.149   3.745 134.986  0.00  0.00    +0.311 C 
ATOM     31  O   LIG A   1      -4.096   4.639 135.824  0.00  0.00    -0.250 OA
BRANCH  30  32
ATOM     32  O   LIG A   1      -3.316   2.703 135.111  0.00  0.00    -0.480 OA
ATOM     33  H   LIG A   1      -3.303   2.282 134.232  0.00  0.00    +0.295 HD
ENDBRANCH  30  32
ENDBRANCH   5  30
BRANCH  15  34
ATOM     34  O   LIG A   1      -6.669  -2.533 125.853  0.00  0.00    -0.461 OA
BRANCH  34  35
ATOM     35  C   LIG A   1      -6.968  -3.165 124.690  0.00  0.00    +0.304 C 
ATOM     36  C   LIG A   1      -5.720  -3.425 123.909  0.00  0.00    +0.136 C 
ATOM     37  O   LIG A   1      -8.095  -3.492 124.319  0.00  0.00    -0.251 OA
ENDBRANCH  34  35
ENDBRANCH  15  34
TORSDOF 4
ENDMDL
MODEL 8
REMARK VINA RESULT:      -8.3      3.862      7.901
REMARK  Name = NuBBE_607
REMARK  12 active torsions:
REMARK  status: ('A' for Active; 'I' for Inactive)
REMARK    1  A    between atoms: C_1  and  C_2
REMARK    2  A    between atoms: C_2  and  C_40
REMARK    3  A    between atoms: C_5  and  C_37
REMARK    4  A    between atoms: C_9  and  C_36
REMARK    5  A    between atoms: C_14  and  C_15
REMARK    6  A    between atoms: C_14  and  C_35
REMARK    7  A    between atoms: C_16  and  O_31
REMARK    8  A    between atoms: C_20  and  C_30
REMARK    9  A    between atoms: C_25  and  C_26
REMARK   10  A    between atoms: O_31  and  C_32
REMARK   11  A    between atoms: C_32  and  C_33
REMARK   12  A    between atoms: C_37  and  O_38
REMARK                            x       y       z     vdW  Elec       q    Type
REMARK                         _______ _______ _______ _____ _____    ______ ____
ROOT
ATOM      1  C   LIG A   1      -6.451  -3.776 137.093  0.00  0.00    +0.011 C 
ATOM      2  C   LIG A   1      -6.381  -3.849 135.551  0.00  0.00    -0.035 C 
ATOM      3  C   LIG A   1      -6.218  -5.312 135.125  0.00  0.00    +0.007 C 
ATOM      4  C   LIG A   1      -6.028  -5.445 133.620  0.00  0.00    +0.019 C 
ATOM      5  C   LIG A   1      -4.837  -4.637 133.032  0.00  0.00    +0.075 C 
ATOM      6  C   LIG A   1      -4.973  -4.663 131.504  0.00  0.00    +0.045 C 
ATOM      7  C   LIG A   1      -6.025  -3.740 130.982  0.00  0.00    -0.025 C 
ATOM      8  C   LIG A   1      -6.174  -2.476 131.423  0.00  0.00    -0.061 C 
ATOM      9  C   LIG A   1      -6.960  -1.394 130.596  0.00  0.00    -0.007 C 
ATOM     10  C   LIG A   1      -8.323  -1.105 131.265  0.00  0.00    +0.012 C 
ATOM     11  C   LIG A   1      -8.536   0.267 131.878  0.00  0.00    +0.005 C 
ATOM     12  C   LIG A   1      -8.031   1.407 130.984  0.00  0.00    +0.004 C 
ATOM     13  C   LIG A   1      -8.583   2.819 131.426  0.00  0.00    +0.005 C 
ATOM     14  C   LIG A   1     -10.114   2.835 131.118  0.00  0.00    +0.015 C 
ATOM     15  C   LIG A   1      -7.952   4.006 130.599  0.00  0.00    +0.182 C 
ATOM     16  C   LIG A   1      -6.732   3.723 129.695  0.00  0.00    +0.046 C 
ATOM     17  C   LIG A   1      -6.307   2.271 129.476  0.00  0.00    +0.011 C 
ATOM     18  C   LIG A   1      -6.488   1.345 130.722  0.00  0.00    -0.025 C 
ATOM     19  C   LIG A   1      -6.019  -0.142 130.300  0.00  0.00    +0.005 C 
ATOM     20  C   LIG A   1      -4.515  -0.525 130.508  0.00  0.00    +0.006 C 
ATOM     21  C   LIG A   1      -4.112  -1.280 131.806  0.00  0.00    +0.012 C 
ATOM     22  C   LIG A   1      -5.278  -1.997 132.573  0.00  0.00    -0.007 C 
ATOM     23  C   LIG A   1      -5.900  -0.915 133.447  0.00  0.00    +0.016 C 
ATOM     24  C   LIG A   1      -4.727  -3.154 133.555  0.00  0.00    +0.017 C 
ATOM     25  C   LIG A   1      -5.131  -3.071 135.074  0.00  0.00    +0.012 C 
ATOM     26  C   LIG A   1      -5.609   1.978 131.839  0.00  0.00    +0.012 C 
ATOM     27  C   LIG A   1      -8.479   3.042 132.960  0.00  0.00    +0.015 C 
ATOM     28  C   LIG A   1      -7.334  -1.962 129.176  0.00  0.00    +0.016 C 
ATOM     29  C   LIG A   1      -7.715  -3.290 135.025  0.00  0.00    +0.011 C 
ENDROOT
BRANCH   5  30
ATOM     30  C   LIG A   1      -3.560  -5.389 133.406  0.00  0.00    +0.311 C 
ATOM     31  O   LIG A   1      -3.482  -6.576 133.703  0.00  0.00    -0.250 OA
BRANCH  30  32
ATOM     32  O   LIG A   1      -2.431  -4.671 133.336  0.00  0.00    -0.480 OA
ATOM     33  H   LIG A   1      -2.523  -3.986 134.022  0.00  0.00    +0.295 HD
ENDBRANCH  30  32
ENDBRANCH   5  30
BRANCH  15  34
ATOM     34  O   LIG A   1      -7.524   5.087 131.478  0.00  0.00    -0.461 OA
BRANCH  34  35
ATOM     35  C   LIG A   1      -7.906   6.357 131.187  0.00  0.00    +0.304 C 
ATOM     36  C   LIG A   1      -9.373   6.521 131.420  0.00  0.00    +0.136 C 
ATOM     37  O   LIG A   1      -7.164   7.257 130.794  0.00  0.00    -0.251 OA
ENDBRANCH  34  35
ENDBRANCH  15  34
TORSDOF 4
ENDMDL
MODEL 9
REMARK VINA RESULT:      -8.1      2.060      3.038
REMARK  Name = NuBBE_607
REMARK  12 active torsions:
REMARK  status: ('A' for Active; 'I' for Inactive)
REMARK    1  A    between atoms: C_1  and  C_2
REMARK    2  A    between atoms: C_2  and  C_40
REMARK    3  A    between atoms: C_5  and  C_37
REMARK    4  A    between atoms: C_9  and  C_36
REMARK    5  A    between atoms: C_14  and  C_15
REMARK    6  A    between atoms: C_14  and  C_35
REMARK    7  A    between atoms: C_16  and  O_31
REMARK    8  A    between atoms: C_20  and  C_30
REMARK    9  A    between atoms: C_25  and  C_26
REMARK   10  A    between atoms: O_31  and  C_32
REMARK   11  A    between atoms: C_32  and  C_33
REMARK   12  A    between atoms: C_37  and  O_38
REMARK                            x       y       z     vdW  Elec       q    Type
REMARK                         _______ _______ _______ _____ _____    ______ ____
ROOT
ATOM      1  C   LIG A   1      -8.079   4.739 125.476  0.00  0.00    +0.011 C 
ATOM      2  C   LIG A   1      -7.755   3.289 125.052  0.00  0.00    -0.035 C 
ATOM      3  C   LIG A   1      -7.694   3.215 123.522  0.00  0.00    +0.007 C 
ATOM      4  C   LIG A   1      -7.491   1.788 123.032  0.00  0.00    +0.019 C 
ATOM      5  C   LIG A   1      -8.555   0.766 123.521  0.00  0.00    +0.075 C 
ATOM      6  C   LIG A   1      -8.039  -0.637 123.172  0.00  0.00    +0.045 C 
ATOM      7  C   LIG A   1      -6.963  -1.123 124.088  0.00  0.00    -0.025 C 
ATOM      8  C   LIG A   1      -7.026  -0.989 125.427  0.00  0.00    -0.061 C 
ATOM      9  C   LIG A   1      -6.143  -1.861 126.392  0.00  0.00    -0.007 C 
ATOM     10  C   LIG A   1      -5.017  -0.997 127.003  0.00  0.00    +0.012 C 
ATOM     11  C   LIG A   1      -5.070  -0.714 128.493  0.00  0.00    +0.005 C 
ATOM     12  C   LIG A   1      -5.419  -1.953 129.327  0.00  0.00    +0.004 C 
ATOM     13  C   LIG A   1      -5.105  -1.765 130.862  0.00  0.00    +0.005 C 
ATOM     14  C   LIG A   1      -3.551  -1.715 131.015  0.00  0.00    +0.015 C 
ATOM     15  C   LIG A   1      -5.597  -2.981 131.739  0.00  0.00    +0.182 C 
ATOM     16  C   LIG A   1      -6.527  -4.036 131.100  0.00  0.00    +0.046 C 
ATOM     17  C   LIG A   1      -6.772  -3.977 129.592  0.00  0.00    +0.011 C 
ATOM     18  C   LIG A   1      -6.839  -2.531 129.001  0.00  0.00    -0.025 C 
ATOM     19  C   LIG A   1      -7.073  -2.664 127.408  0.00  0.00    +0.005 C 
ATOM     20  C   LIG A   1      -8.547  -2.709 126.883  0.00  0.00    +0.006 C 
ATOM     21  C   LIG A   1      -9.204  -1.389 126.390  0.00  0.00    +0.012 C 
ATOM     22  C   LIG A   1      -8.215  -0.226 126.026  0.00  0.00    -0.007 C 
ATOM     23  C   LIG A   1      -7.916   0.467 127.350  0.00  0.00    +0.016 C 
ATOM     24  C   LIG A   1      -8.904   0.864 125.055  0.00  0.00    +0.017 C 
ATOM     25  C   LIG A   1      -8.901   2.365 125.529  0.00  0.00    +0.012 C 
ATOM     26  C   LIG A   1      -8.015  -1.834 129.744  0.00  0.00    +0.012 C 
ATOM     27  C   LIG A   1      -5.606  -0.399 131.407  0.00  0.00    +0.015 C 
ATOM     28  C   LIG A   1      -5.383  -2.973 125.577  0.00  0.00    +0.016 C 
ATOM     29  C   LIG A   1      -6.378   2.954 125.652  0.00  0.00    +0.011 C 
ENDROOT
BRANCH   5  30
ATOM     30  C   LIG A   1      -9.823   1.019 122.707  0.00  0.00    +0.311 C 
ATOM     31  O   LIG A   1     -10.907   0.471 122.869  0.00  0.00    -0.250 OA
BRANCH  30  32
ATOM     32  O   LIG A   1      -9.724   1.977 121.775  0.00  0.00    -0.480 OA
ATOM     33  H   LIG A   1      -8.792   1.962 121.494  0.00  0.00    +0.295 HD
ENDBRANCH  30  32
ENDBRANCH   5  30
BRANCH  15  34
ATOM     34  O   LIG A   1      -6.313  -2.519 132.922  0.00  0.00    -0.461 OA
BRANCH  34  35
ATOM     35  C   LIG A   1      -6.822  -3.439 133.779  0.00  0.00    +0.304 C 
ATOM     36  C   LIG A   1      -8.280  -3.190 133.998  0.00  0.00    +0.136 C 
ATOM     37  O   LIG A   1      -6.193  -4.358 134.304  0.00  0.00    -0.251 OA
ENDBRANCH  34  35
ENDBRANCH  15  34
TORSDOF 4
ENDMDL
