MODEL 1
REMARK VINA RESULT:      -7.0      0.000      0.000
REMARK  Name = NuBBE_5
REMARK  11 active torsions:
REMARK  status: ('A' for Active; 'I' for Inactive)
REMARK    1  A    between atoms: C_2  and  O_3
REMARK    2  A    between atoms: C_2  and  C_4
REMARK    3  A    between atoms: C_7  and  O_8
REMARK    4  A    between atoms: O_8  and  C_9
REMARK    5  A    between atoms: C_9  and  C_10
REMARK    6  A    between atoms: C_11  and  C_12
REMARK    7  A    between atoms: C_11  and  C_13
REMARK    8  A    between atoms: C_13  and  C_14
REMARK    9  A    between atoms: C_14  and  C_15
REMARK   10  A    between atoms: C_16  and  C_17
REMARK   11  A    between atoms: C_16  and  C_18
REMARK                            x       y       z     vdW  Elec       q    Type
REMARK                         _______ _______ _______ _____ _____    ______ ____
ROOT
ATOM      1  O   LIG A   1      -8.905   2.098 122.960  0.00  0.00    -0.488 OA
ENDROOT
BRANCH   1   5
ATOM      2  C   LIG A   1      -6.480   4.426 120.474  0.00  0.00    +0.059 A 
ATOM      3  C   LIG A   1      -6.000   3.852 121.656  0.00  0.00    +0.018 A 
ATOM      4  C   LIG A   1      -6.850   3.072 122.447  0.00  0.00    +0.046 A 
ATOM      5  C   LIG A   1      -8.180   2.851 122.076  0.00  0.00    +0.121 A 
ATOM      6  C   LIG A   1      -8.669   3.450 120.915  0.00  0.00    +0.046 A 
ATOM      7  C   LIG A   1      -7.822   4.235 120.117  0.00  0.00    +0.018 A 
BRANCH   2   9
ATOM      8  O   LIG A   1      -5.744   5.302 118.386  0.00  0.00    -0.245 OA
ATOM      9  C   LIG A   1      -5.628   5.278 119.603  0.00  0.00    +0.337 C 
BRANCH   9  10
ATOM     10  O   LIG A   1      -4.693   5.993 120.261  0.00  0.00    -0.477 OA
ATOM     11  H   LIG A   1      -4.439   6.837 119.850  0.00  0.00    +0.295 HD
ENDBRANCH   9  10
ENDBRANCH   2   9
ENDBRANCH   1   5
BRANCH   1  12
ATOM     12  C   LIG A   1      -8.162   1.293 123.882  0.00  0.00    +0.257 C 
BRANCH  12  13
ATOM     13  C   LIG A   1      -8.494  -0.151 123.609  0.00  0.00    +0.012 C 
ATOM     14  C   LIG A   1      -8.847  -1.100 124.504  0.00  0.00    -0.073 C 
ATOM     15  C   LIG A   1      -9.013  -0.868 125.982  0.00  0.00    +0.038 C 
BRANCH  14  16
ATOM     16  C   LIG A   1      -9.158  -2.515 124.043  0.00  0.00    +0.034 C 
BRANCH  16  17
ATOM     17  C   LIG A   1      -8.278  -3.562 124.736  0.00  0.00    +0.031 C 
BRANCH  17  18
ATOM     18  C   LIG A   1      -6.945  -3.700 124.045  0.00  0.00    -0.028 C 
ATOM     19  C   LIG A   1      -5.773  -3.127 124.385  0.00  0.00    -0.080 C 
ATOM     20  C   LIG A   1      -5.564  -2.202 125.552  0.00  0.00    +0.038 C 
ATOM     21  C   LIG A   1      -4.527  -3.388 123.576  0.00  0.00    +0.038 C 
ENDBRANCH  17  18
ENDBRANCH  16  17
ENDBRANCH  14  16
ENDBRANCH  12  13
ENDBRANCH   1  12
TORSDOF 8
ENDMDL
MODEL 2
REMARK VINA RESULT:      -6.7      1.360      1.724
REMARK  Name = NuBBE_5
REMARK  11 active torsions:
REMARK  status: ('A' for Active; 'I' for Inactive)
REMARK    1  A    between atoms: C_2  and  O_3
REMARK    2  A    between atoms: C_2  and  C_4
REMARK    3  A    between atoms: C_7  and  O_8
REMARK    4  A    between atoms: O_8  and  C_9
REMARK    5  A    between atoms: C_9  and  C_10
REMARK    6  A    between atoms: C_11  and  C_12
REMARK    7  A    between atoms: C_11  and  C_13
REMARK    8  A    between atoms: C_13  and  C_14
REMARK    9  A    between atoms: C_14  and  C_15
REMARK   10  A    between atoms: C_16  and  C_17
REMARK   11  A    between atoms: C_16  and  C_18
REMARK                            x       y       z     vdW  Elec       q    Type
REMARK                         _______ _______ _______ _____ _____    ______ ____
ROOT
ATOM      1  O   LIG A   1      -7.264   1.800 124.988  0.00  0.00    -0.488 OA
ENDROOT
BRANCH   1   5
ATOM      2  C   LIG A   1      -5.596   4.163 121.969  0.00  0.00    +0.059 A 
ATOM      3  C   LIG A   1      -5.275   4.344 123.319  0.00  0.00    +0.018 A 
ATOM      4  C   LIG A   1      -5.852   3.518 124.289  0.00  0.00    +0.046 A 
ATOM      5  C   LIG A   1      -6.751   2.508 123.934  0.00  0.00    +0.121 A 
ATOM      6  C   LIG A   1      -7.098   2.348 122.592  0.00  0.00    +0.046 A 
ATOM      7  C   LIG A   1      -6.522   3.174 121.614  0.00  0.00    +0.018 A 
BRANCH   2   9
ATOM      8  O   LIG A   1      -5.270   4.845 119.711  0.00  0.00    -0.245 OA
ATOM      9  C   LIG A   1      -5.027   5.021 120.896  0.00  0.00    +0.337 C 
BRANCH   9  10
ATOM     10  O   LIG A   1      -4.191   5.985 121.334  0.00  0.00    -0.477 OA
ATOM     11  H   LIG A   1      -4.243   6.835 120.864  0.00  0.00    +0.295 HD
ENDBRANCH   9  10
ENDBRANCH   2   9
ENDBRANCH   1   5
BRANCH   1  12
ATOM     12  C   LIG A   1      -8.667   1.514 124.951  0.00  0.00    +0.257 C 
BRANCH  12  13
ATOM     13  C   LIG A   1      -8.854   0.063 125.308  0.00  0.00    +0.012 C 
ATOM     14  C   LIG A   1      -9.026  -0.979 124.466  0.00  0.00    -0.073 C 
ATOM     15  C   LIG A   1      -9.025  -0.879 122.964  0.00  0.00    +0.038 C 
BRANCH  14  16
ATOM     16  C   LIG A   1      -9.192  -2.389 125.009  0.00  0.00    +0.034 C 
BRANCH  16  17
ATOM     17  C   LIG A   1      -7.940  -2.883 125.745  0.00  0.00    +0.031 C 
BRANCH  17  18
ATOM     18  C   LIG A   1      -6.876  -3.329 124.775  0.00  0.00    -0.028 C 
ATOM     19  C   LIG A   1      -5.758  -2.669 124.412  0.00  0.00    -0.080 C 
ATOM     20  C   LIG A   1      -5.347  -1.313 124.914  0.00  0.00    +0.038 C 
ATOM     21  C   LIG A   1      -4.792  -3.277 123.426  0.00  0.00    +0.038 C 
ENDBRANCH  17  18
ENDBRANCH  16  17
ENDBRANCH  14  16
ENDBRANCH  12  13
ENDBRANCH   1  12
TORSDOF 8
ENDMDL
MODEL 3
REMARK VINA RESULT:      -6.6      1.602      2.315
REMARK  Name = NuBBE_5
REMARK  11 active torsions:
REMARK  status: ('A' for Active; 'I' for Inactive)
REMARK    1  A    between atoms: C_2  and  O_3
REMARK    2  A    between atoms: C_2  and  C_4
REMARK    3  A    between atoms: C_7  and  O_8
REMARK    4  A    between atoms: O_8  and  C_9
REMARK    5  A    between atoms: C_9  and  C_10
REMARK    6  A    between atoms: C_11  and  C_12
REMARK    7  A    between atoms: C_11  and  C_13
REMARK    8  A    between atoms: C_13  and  C_14
REMARK    9  A    between atoms: C_14  and  C_15
REMARK   10  A    between atoms: C_16  and  C_17
REMARK   11  A    between atoms: C_16  and  C_18
REMARK                            x       y       z     vdW  Elec       q    Type
REMARK                         _______ _______ _______ _____ _____    ______ ____
ROOT
ATOM      1  O   LIG A   1      -9.196   2.380 125.318  0.00  0.00    -0.488 OA
ENDROOT
BRANCH   1   5
ATOM      2  C   LIG A   1      -6.315   3.641 122.562  0.00  0.00    +0.059 A 
ATOM      3  C   LIG A   1      -7.595   3.233 122.168  0.00  0.00    +0.018 A 
ATOM      4  C   LIG A   1      -8.525   2.831 123.131  0.00  0.00    +0.046 A 
ATOM      5  C   LIG A   1      -8.201   2.830 124.491  0.00  0.00    +0.121 A 
ATOM      6  C   LIG A   1      -6.916   3.204 124.883  0.00  0.00    +0.046 A 
ATOM      7  C   LIG A   1      -5.977   3.608 123.922  0.00  0.00    +0.018 A 
BRANCH   2   9
ATOM      8  O   LIG A   1      -4.921   3.352 120.654  0.00  0.00    -0.245 OA
ATOM      9  C   LIG A   1      -5.279   4.062 121.582  0.00  0.00    +0.337 C 
BRANCH   9  10
ATOM     10  O   LIG A   1      -4.740   5.275 121.824  0.00  0.00    -0.477 OA
ATOM     11  H   LIG A   1      -4.031   5.550 121.217  0.00  0.00    +0.295 HD
ENDBRANCH   9  10
ENDBRANCH   2   9
ENDBRANCH   1   5
BRANCH   1  12
ATOM     12  C   LIG A   1      -9.945   1.246 124.867  0.00  0.00    +0.257 C 
BRANCH  12  13
ATOM     13  C   LIG A   1      -9.255   0.005 125.367  0.00  0.00    +0.012 C 
ATOM     14  C   LIG A   1      -8.911  -1.092 124.657  0.00  0.00    -0.073 C 
ATOM     15  C   LIG A   1      -9.133  -1.262 123.178  0.00  0.00    +0.038 C 
BRANCH  14  16
ATOM     16  C   LIG A   1      -8.205  -2.256 125.332  0.00  0.00    +0.034 C 
BRANCH  16  17
ATOM     17  C   LIG A   1      -8.040  -3.461 124.397  0.00  0.00    +0.031 C 
BRANCH  17  18
ATOM     18  C   LIG A   1      -6.600  -3.902 124.323  0.00  0.00    -0.028 C 
ATOM     19  C   LIG A   1      -5.613  -3.382 123.567  0.00  0.00    -0.080 C 
ATOM     20  C   LIG A   1      -5.764  -2.231 122.611  0.00  0.00    +0.038 C 
ATOM     21  C   LIG A   1      -4.217  -3.949 123.629  0.00  0.00    +0.038 C 
ENDBRANCH  17  18
ENDBRANCH  16  17
ENDBRANCH  14  16
ENDBRANCH  12  13
ENDBRANCH   1  12
TORSDOF 8
ENDMDL
MODEL 4
REMARK VINA RESULT:      -6.6      1.602      2.873
REMARK  Name = NuBBE_5
REMARK  11 active torsions:
REMARK  status: ('A' for Active; 'I' for Inactive)
REMARK    1  A    between atoms: C_2  and  O_3
REMARK    2  A    between atoms: C_2  and  C_4
REMARK    3  A    between atoms: C_7  and  O_8
REMARK    4  A    between atoms: O_8  and  C_9
REMARK    5  A    between atoms: C_9  and  C_10
REMARK    6  A    between atoms: C_11  and  C_12
REMARK    7  A    between atoms: C_11  and  C_13
REMARK    8  A    between atoms: C_13  and  C_14
REMARK    9  A    between atoms: C_14  and  C_15
REMARK   10  A    between atoms: C_16  and  C_17
REMARK   11  A    between atoms: C_16  and  C_18
REMARK                            x       y       z     vdW  Elec       q    Type
REMARK                         _______ _______ _______ _____ _____    ______ ____
ROOT
ATOM      1  O   LIG A   1      -6.385   2.704 124.121  0.00  0.00    -0.488 OA
ENDROOT
BRANCH   1   5
ATOM      2  C   LIG A   1      -7.833   3.857 120.372  0.00  0.00    +0.059 A 
ATOM      3  C   LIG A   1      -8.684   3.442 121.404  0.00  0.00    +0.018 A 
ATOM      4  C   LIG A   1      -8.148   3.078 122.643  0.00  0.00    +0.046 A 
ATOM      5  C   LIG A   1      -6.770   3.121 122.875  0.00  0.00    +0.121 A 
ATOM      6  C   LIG A   1      -5.919   3.501 121.838  0.00  0.00    +0.046 A 
ATOM      7  C   LIG A   1      -6.449   3.867 120.591  0.00  0.00    +0.018 A 
BRANCH   2   9
ATOM      8  O   LIG A   1      -7.606   4.589 118.118  0.00  0.00    -0.245 OA
ATOM      9  C   LIG A   1      -8.342   4.239 119.029  0.00  0.00    +0.337 C 
BRANCH   9  10
ATOM     10  O   LIG A   1      -9.686   4.204 118.909  0.00  0.00    -0.477 OA
ATOM     11  H   LIG A   1     -10.030   4.257 118.001  0.00  0.00    +0.295 HD
ENDBRANCH   9  10
ENDBRANCH   2   9
ENDBRANCH   1   5
BRANCH   1  12
ATOM     12  C   LIG A   1      -7.213   1.724 124.759  0.00  0.00    +0.257 C 
BRANCH  12  13
ATOM     13  C   LIG A   1      -6.433   0.438 124.836  0.00  0.00    +0.012 C 
ATOM     14  C   LIG A   1      -6.640  -0.604 125.671  0.00  0.00    -0.073 C 
ATOM     15  C   LIG A   1      -7.749  -0.685 126.686  0.00  0.00    +0.038 C 
BRANCH  14  16
ATOM     16  C   LIG A   1      -5.751  -1.835 125.601  0.00  0.00    +0.034 C 
BRANCH  16  17
ATOM     17  C   LIG A   1      -5.955  -2.630 124.305  0.00  0.00    +0.031 C 
BRANCH  17  18
ATOM     18  C   LIG A   1      -7.331  -3.244 124.252  0.00  0.00    -0.028 C 
ATOM     19  C   LIG A   1      -8.387  -2.848 123.515  0.00  0.00    -0.080 C 
ATOM     20  C   LIG A   1      -8.401  -1.670 122.579  0.00  0.00    +0.038 C 
ATOM     21  C   LIG A   1      -9.695  -3.595 123.581  0.00  0.00    +0.038 C 
ENDBRANCH  17  18
ENDBRANCH  16  17
ENDBRANCH  14  16
ENDBRANCH  12  13
ENDBRANCH   1  12
TORSDOF 8
ENDMDL
MODEL 5
REMARK VINA RESULT:      -6.5      5.212      8.529
REMARK  Name = NuBBE_5
REMARK  11 active torsions:
REMARK  status: ('A' for Active; 'I' for Inactive)
REMARK    1  A    between atoms: C_2  and  O_3
REMARK    2  A    between atoms: C_2  and  C_4
REMARK    3  A    between atoms: C_7  and  O_8
REMARK    4  A    between atoms: O_8  and  C_9
REMARK    5  A    between atoms: C_9  and  C_10
REMARK    6  A    between atoms: C_11  and  C_12
REMARK    7  A    between atoms: C_11  and  C_13
REMARK    8  A    between atoms: C_13  and  C_14
REMARK    9  A    between atoms: C_14  and  C_15
REMARK   10  A    between atoms: C_16  and  C_17
REMARK   11  A    between atoms: C_16  and  C_18
REMARK                            x       y       z     vdW  Elec       q    Type
REMARK                         _______ _______ _______ _____ _____    ______ ____
ROOT
ATOM      1  O   LIG A   1      -8.425  -2.417 127.630  0.00  0.00    -0.488 OA
ENDROOT
BRANCH   1   5
ATOM      2  C   LIG A   1      -4.724  -2.868 129.522  0.00  0.00    +0.059 A 
ATOM      3  C   LIG A   1      -4.864  -2.171 128.316  0.00  0.00    +0.018 A 
ATOM      4  C   LIG A   1      -6.127  -2.040 127.730  0.00  0.00    +0.046 A 
ATOM      5  C   LIG A   1      -7.262  -2.593 128.330  0.00  0.00    +0.121 A 
ATOM      6  C   LIG A   1      -7.119  -3.317 129.514  0.00  0.00    +0.046 A 
ATOM      7  C   LIG A   1      -5.855  -3.454 130.107  0.00  0.00    +0.018 A 
BRANCH   2   9
ATOM      8  O   LIG A   1      -3.246  -3.798 131.140  0.00  0.00    -0.245 OA
ATOM      9  C   LIG A   1      -3.405  -3.055 130.182  0.00  0.00    +0.337 C 
BRANCH   9  10
ATOM     10  O   LIG A   1      -2.408  -2.310 129.662  0.00  0.00    -0.477 OA
ATOM     11  H   LIG A   1      -2.503  -2.075 128.723  0.00  0.00    +0.295 HD
ENDBRANCH   9  10
ENDBRANCH   2   9
ENDBRANCH   1   5
BRANCH   1  12
ATOM     12  C   LIG A   1      -9.046  -3.595 127.103  0.00  0.00    +0.257 C 
BRANCH  12  13
ATOM     13  C   LIG A   1      -9.479  -3.300 125.691  0.00  0.00    +0.012 C 
ATOM     14  C   LIG A   1      -8.729  -3.354 124.568  0.00  0.00    -0.073 C 
ATOM     15  C   LIG A   1      -7.283  -3.768 124.521  0.00  0.00    +0.038 C 
BRANCH  14  16
ATOM     16  C   LIG A   1      -9.343  -3.028 123.216  0.00  0.00    +0.034 C 
BRANCH  16  17
ATOM     17  C   LIG A   1      -8.706  -1.792 122.568  0.00  0.00    +0.031 C 
BRANCH  17  18
ATOM     18  C   LIG A   1      -9.404  -0.528 122.999  0.00  0.00    -0.028 C 
ATOM     19  C   LIG A   1      -9.040   0.328 123.975  0.00  0.00    -0.080 C 
ATOM     20  C   LIG A   1      -7.832   0.176 124.858  0.00  0.00    +0.038 C 
ATOM     21  C   LIG A   1      -9.861   1.559 124.264  0.00  0.00    +0.038 C 
ENDBRANCH  17  18
ENDBRANCH  16  17
ENDBRANCH  14  16
ENDBRANCH  12  13
ENDBRANCH   1  12
TORSDOF 8
ENDMDL
MODEL 6
REMARK VINA RESULT:      -6.5      1.834      2.907
REMARK  Name = NuBBE_5
REMARK  11 active torsions:
REMARK  status: ('A' for Active; 'I' for Inactive)
REMARK    1  A    between atoms: C_2  and  O_3
REMARK    2  A    between atoms: C_2  and  C_4
REMARK    3  A    between atoms: C_7  and  O_8
REMARK    4  A    between atoms: O_8  and  C_9
REMARK    5  A    between atoms: C_9  and  C_10
REMARK    6  A    between atoms: C_11  and  C_12
REMARK    7  A    between atoms: C_11  and  C_13
REMARK    8  A    between atoms: C_13  and  C_14
REMARK    9  A    between atoms: C_14  and  C_15
REMARK   10  A    between atoms: C_16  and  C_17
REMARK   11  A    between atoms: C_16  and  C_18
REMARK                            x       y       z     vdW  Elec       q    Type
REMARK                         _______ _______ _______ _____ _____    ______ ____
ROOT
ATOM      1  O   LIG A   1      -9.371   2.125 125.075  0.00  0.00    -0.488 OA
ENDROOT
BRANCH   1   5
ATOM      2  C   LIG A   1      -6.914   3.478 121.975  0.00  0.00    +0.059 A 
ATOM      3  C   LIG A   1      -8.243   3.096 121.759  0.00  0.00    +0.018 A 
ATOM      4  C   LIG A   1      -9.026   2.662 122.833  0.00  0.00    +0.046 A 
ATOM      5  C   LIG A   1      -8.503   2.601 124.128  0.00  0.00    +0.121 A 
ATOM      6  C   LIG A   1      -7.169   2.948 124.339  0.00  0.00    +0.046 A 
ATOM      7  C   LIG A   1      -6.377   3.385 123.266  0.00  0.00    +0.018 A 
BRANCH   2   9
ATOM      8  O   LIG A   1      -4.815   4.018 120.988  0.00  0.00    -0.245 OA
ATOM      9  C   LIG A   1      -6.029   3.931 120.869  0.00  0.00    +0.337 C 
BRANCH   9  10
ATOM     10  O   LIG A   1      -6.678   4.275 119.738  0.00  0.00    -0.477 OA
ATOM     11  H   LIG A   1      -6.299   3.927 118.912  0.00  0.00    +0.295 HD
ENDBRANCH   9  10
ENDBRANCH   2   9
ENDBRANCH   1   5
BRANCH   1  12
ATOM     12  C   LIG A   1      -8.829   1.233 126.056  0.00  0.00    +0.257 C 
BRANCH  12  13
ATOM     13  C   LIG A   1      -9.251  -0.167 125.694  0.00  0.00    +0.012 C 
ATOM     14  C   LIG A   1      -8.587  -1.056 124.922  0.00  0.00    -0.073 C 
ATOM     15  C   LIG A   1      -7.242  -0.811 124.293  0.00  0.00    +0.038 C 
BRANCH  14  16
ATOM     16  C   LIG A   1      -9.165  -2.439 124.670  0.00  0.00    +0.034 C 
BRANCH  16  17
ATOM     17  C   LIG A   1      -8.372  -3.542 125.381  0.00  0.00    +0.031 C 
BRANCH  17  18
ATOM     18  C   LIG A   1      -8.685  -3.578 126.855  0.00  0.00    -0.028 C 
ATOM     19  C   LIG A   1      -7.960  -3.063 127.868  0.00  0.00    -0.080 C 
ATOM     20  C   LIG A   1      -6.651  -2.338 127.720  0.00  0.00    +0.038 C 
ATOM     21  C   LIG A   1      -8.437  -3.185 129.294  0.00  0.00    +0.038 C 
ENDBRANCH  17  18
ENDBRANCH  16  17
ENDBRANCH  14  16
ENDBRANCH  12  13
ENDBRANCH   1  12
TORSDOF 8
ENDMDL
MODEL 7
REMARK VINA RESULT:      -6.3      1.441      2.698
REMARK  Name = NuBBE_5
REMARK  11 active torsions:
REMARK  status: ('A' for Active; 'I' for Inactive)
REMARK    1  A    between atoms: C_2  and  O_3
REMARK    2  A    between atoms: C_2  and  C_4
REMARK    3  A    between atoms: C_7  and  O_8
REMARK    4  A    between atoms: O_8  and  C_9
REMARK    5  A    between atoms: C_9  and  C_10
REMARK    6  A    between atoms: C_11  and  C_12
REMARK    7  A    between atoms: C_11  and  C_13
REMARK    8  A    between atoms: C_13  and  C_14
REMARK    9  A    between atoms: C_14  and  C_15
REMARK   10  A    between atoms: C_16  and  C_17
REMARK   11  A    between atoms: C_16  and  C_18
REMARK                            x       y       z     vdW  Elec       q    Type
REMARK                         _______ _______ _______ _____ _____    ______ ____
ROOT
ATOM      1  O   LIG A   1      -8.489   1.631 124.279  0.00  0.00    -0.488 OA
ENDROOT
BRANCH   1   5
ATOM      2  C   LIG A   1      -7.086   3.750 120.959  0.00  0.00    +0.059 A 
ATOM      3  C   LIG A   1      -8.448   3.507 121.166  0.00  0.00    +0.018 A 
ATOM      4  C   LIG A   1      -8.866   2.803 122.300  0.00  0.00    +0.046 A 
ATOM      5  C   LIG A   1      -7.942   2.333 123.238  0.00  0.00    +0.121 A 
ATOM      6  C   LIG A   1      -6.582   2.545 123.016  0.00  0.00    +0.046 A 
ATOM      7  C   LIG A   1      -6.155   3.250 121.880  0.00  0.00    +0.018 A 
BRANCH   2   9
ATOM      8  O   LIG A   1      -5.478   5.003 119.728  0.00  0.00    -0.245 OA
ATOM      9  C   LIG A   1      -6.582   4.477 119.764  0.00  0.00    +0.337 C 
BRANCH   9  10
ATOM     10  O   LIG A   1      -7.455   4.543 118.739  0.00  0.00    -0.477 OA
ATOM     11  H   LIG A   1      -7.996   5.350 118.696  0.00  0.00    +0.295 HD
ENDBRANCH   9  10
ENDBRANCH   2   9
ENDBRANCH   1   5
BRANCH   1  12
ATOM     12  C   LIG A   1      -8.127   2.050 125.600  0.00  0.00    +0.257 C 
BRANCH  12  13
ATOM     13  C   LIG A   1      -8.332   0.882 126.529  0.00  0.00    +0.012 C 
ATOM     14  C   LIG A   1      -7.493  -0.153 126.752  0.00  0.00    -0.073 C 
ATOM     15  C   LIG A   1      -6.139  -0.313 126.116  0.00  0.00    +0.038 C 
BRANCH  14  16
ATOM     16  C   LIG A   1      -7.866  -1.246 127.741  0.00  0.00    +0.034 C 
BRANCH  16  17
ATOM     17  C   LIG A   1      -7.747  -2.649 127.132  0.00  0.00    +0.031 C 
BRANCH  17  18
ATOM     18  C   LIG A   1      -8.693  -2.824 125.972  0.00  0.00    -0.028 C 
ATOM     19  C   LIG A   1      -8.398  -3.199 124.712  0.00  0.00    -0.080 C 
ATOM     20  C   LIG A   1      -7.020  -3.518 124.200  0.00  0.00    +0.038 C 
ATOM     21  C   LIG A   1      -9.484  -3.333 123.674  0.00  0.00    +0.038 C 
ENDBRANCH  17  18
ENDBRANCH  16  17
ENDBRANCH  14  16
ENDBRANCH  12  13
ENDBRANCH   1  12
TORSDOF 8
ENDMDL
MODEL 8
REMARK VINA RESULT:      -6.3      6.199     10.127
REMARK  Name = NuBBE_5
REMARK  11 active torsions:
REMARK  status: ('A' for Active; 'I' for Inactive)
REMARK    1  A    between atoms: C_2  and  O_3
REMARK    2  A    between atoms: C_2  and  C_4
REMARK    3  A    between atoms: C_7  and  O_8
REMARK    4  A    between atoms: O_8  and  C_9
REMARK    5  A    between atoms: C_9  and  C_10
REMARK    6  A    between atoms: C_11  and  C_12
REMARK    7  A    between atoms: C_11  and  C_13
REMARK    8  A    between atoms: C_13  and  C_14
REMARK    9  A    between atoms: C_14  and  C_15
REMARK   10  A    between atoms: C_16  and  C_17
REMARK   11  A    between atoms: C_16  and  C_18
REMARK                            x       y       z     vdW  Elec       q    Type
REMARK                         _______ _______ _______ _____ _____    ______ ____
ROOT
ATOM      1  O   LIG A   1      -5.759  -2.727 128.403  0.00  0.00    -0.488 OA
ENDROOT
BRANCH   1   5
ATOM      2  C   LIG A   1      -4.228  -4.368 131.930  0.00  0.00    +0.059 A 
ATOM      3  C   LIG A   1      -5.464  -4.759 131.402  0.00  0.00    +0.018 A 
ATOM      4  C   LIG A   1      -5.925  -4.187 130.212  0.00  0.00    +0.046 A 
ATOM      5  C   LIG A   1      -5.170  -3.225 129.534  0.00  0.00    +0.121 A 
ATOM      6  C   LIG A   1      -3.954  -2.810 130.076  0.00  0.00    +0.046 A 
ATOM      7  C   LIG A   1      -3.485  -3.380 131.270  0.00  0.00    +0.018 A 
BRANCH   2   9
ATOM      8  O   LIG A   1      -4.417  -5.329 134.100  0.00  0.00    -0.245 OA
ATOM      9  C   LIG A   1      -3.694  -4.929 133.199  0.00  0.00    +0.337 C 
BRANCH   9  10
ATOM     10  O   LIG A   1      -2.349  -4.924 133.292  0.00  0.00    -0.477 OA
ATOM     11  H   LIG A   1      -1.972  -4.305 133.941  0.00  0.00    +0.295 HD
ENDBRANCH   9  10
ENDBRANCH   2   9
ENDBRANCH   1   5
BRANCH   1  12
ATOM     12  C   LIG A   1      -6.904  -1.886 128.588  0.00  0.00    +0.257 C 
BRANCH  12  13
ATOM     13  C   LIG A   1      -7.779  -2.018 127.370  0.00  0.00    +0.012 C 
ATOM     14  C   LIG A   1      -8.680  -2.989 127.101  0.00  0.00    -0.073 C 
ATOM     15  C   LIG A   1      -9.009  -4.134 128.022  0.00  0.00    +0.038 C 
BRANCH  14  16
ATOM     16  C   LIG A   1      -9.488  -2.955 125.814  0.00  0.00    +0.034 C 
BRANCH  16  17
ATOM     17  C   LIG A   1      -8.834  -3.772 124.693  0.00  0.00    +0.031 C 
BRANCH  17  18
ATOM     18  C   LIG A   1      -8.135  -2.878 123.701  0.00  0.00    -0.028 C 
ATOM     19  C   LIG A   1      -6.814  -2.628 123.598  0.00  0.00    -0.080 C 
ATOM     20  C   LIG A   1      -5.749  -3.205 124.488  0.00  0.00    +0.038 C 
ATOM     21  C   LIG A   1      -6.287  -1.706 122.528  0.00  0.00    +0.038 C 
ENDBRANCH  17  18
ENDBRANCH  16  17
ENDBRANCH  14  16
ENDBRANCH  12  13
ENDBRANCH   1  12
TORSDOF 8
ENDMDL
MODEL 9
REMARK VINA RESULT:      -6.2      4.902      5.648
REMARK  Name = NuBBE_5
REMARK  11 active torsions:
REMARK  status: ('A' for Active; 'I' for Inactive)
REMARK    1  A    between atoms: C_2  and  O_3
REMARK    2  A    between atoms: C_2  and  C_4
REMARK    3  A    between atoms: C_7  and  O_8
REMARK    4  A    between atoms: O_8  and  C_9
REMARK    5  A    between atoms: C_9  and  C_10
REMARK    6  A    between atoms: C_11  and  C_12
REMARK    7  A    between atoms: C_11  and  C_13
REMARK    8  A    between atoms: C_13  and  C_14
REMARK    9  A    between atoms: C_14  and  C_15
REMARK   10  A    between atoms: C_16  and  C_17
REMARK   11  A    between atoms: C_16  and  C_18
REMARK                            x       y       z     vdW  Elec       q    Type
REMARK                         _______ _______ _______ _____ _____    ______ ____
ROOT
ATOM      1  O   LIG A   1      -7.343   0.635 127.663  0.00  0.00    -0.488 OA
ENDROOT
BRANCH   1   5
ATOM      2  C   LIG A   1      -3.668   2.610 127.389  0.00  0.00    +0.059 A 
ATOM      3  C   LIG A   1      -4.364   2.172 126.256  0.00  0.00    +0.018 A 
ATOM      4  C   LIG A   1      -5.596   1.526 126.403  0.00  0.00    +0.046 A 
ATOM      5  C   LIG A   1      -6.151   1.308 127.668  0.00  0.00    +0.121 A 
ATOM      6  C   LIG A   1      -5.442   1.714 128.799  0.00  0.00    +0.046 A 
ATOM      7  C   LIG A   1      -4.205   2.362 128.659  0.00  0.00    +0.018 A 
BRANCH   2   9
ATOM      8  O   LIG A   1      -2.181   4.457 127.607  0.00  0.00    -0.245 OA
ATOM      9  C   LIG A   1      -2.347   3.286 127.296  0.00  0.00    +0.337 C 
BRANCH   9  10
ATOM     10  O   LIG A   1      -1.356   2.514 126.804  0.00  0.00    -0.477 OA
ATOM     11  H   LIG A   1      -1.042   1.806 127.392  0.00  0.00    +0.295 HD
ENDBRANCH   9  10
ENDBRANCH   2   9
ENDBRANCH   1   5
BRANCH   1  12
ATOM     12  C   LIG A   1      -7.286  -0.779 127.881  0.00  0.00    +0.257 C 
BRANCH  12  13
ATOM     13  C   LIG A   1      -8.151  -1.444 126.842  0.00  0.00    +0.012 C 
ATOM     14  C   LIG A   1      -8.668  -2.692 126.874  0.00  0.00    -0.073 C 
ATOM     15  C   LIG A   1      -8.495  -3.664 128.010  0.00  0.00    +0.038 C 
BRANCH  14  16
ATOM     16  C   LIG A   1      -9.534  -3.196 125.731  0.00  0.00    +0.034 C 
BRANCH  16  17
ATOM     17  C   LIG A   1      -8.852  -3.034 124.366  0.00  0.00    +0.031 C 
BRANCH  17  18
ATOM     18  C   LIG A   1      -7.484  -3.666 124.360  0.00  0.00    -0.028 C 
ATOM     19  C   LIG A   1      -6.321  -3.121 123.948  0.00  0.00    -0.080 C 
ATOM     20  C   LIG A   1      -6.162  -1.735 123.387  0.00  0.00    +0.038 C 
ATOM     21  C   LIG A   1      -5.035  -3.904 124.025  0.00  0.00    +0.038 C 
ENDBRANCH  17  18
ENDBRANCH  16  17
ENDBRANCH  14  16
ENDBRANCH  12  13
ENDBRANCH   1  12
TORSDOF 8
ENDMDL
