MODEL 1
REMARK VINA RESULT:      -8.0      0.000      0.000
REMARK  Name = NuBBE_2486
REMARK  5 active torsions:
REMARK  status: ('A' for Active; 'I' for Inactive)
REMARK    1  A    between atoms: C_11  and  O_12
REMARK    2  A    between atoms: C_13  and  O_16
REMARK    3  A    between atoms: C_20  and  O_21
REMARK    4  A    between atoms: O_21  and  C_22
REMARK    5  A    between atoms: C_24  and  O_26
REMARK                            x       y       z     vdW  Elec       q    Type
REMARK                         _______ _______ _______ _____ _____    ______ ____
ROOT
ATOM      1  O   LIG A   1      -9.471   2.422 122.357  0.00  0.00    -0.289 OA
ATOM      2  C   LIG A   1      -8.312   2.761 122.576  0.00  0.00    +0.203 C 
ATOM      3  C   LIG A   1      -7.619   2.375 123.866  0.00  0.00    +0.234 C 
ATOM      4  C   LIG A   1      -6.570   3.430 124.198  0.00  0.00    +0.240 C 
ATOM      5  C   LIG A   1      -5.780   2.997 125.417  0.00  0.00    +0.005 A 
ATOM      6  C   LIG A   1      -5.728   1.628 125.776  0.00  0.00    +0.030 A 
ATOM      7  C   LIG A   1      -6.513   0.612 124.978  0.00  0.00    +0.200 C 
ATOM      8  O   LIG A   1      -7.004   1.093 123.724  0.00  0.00    -0.360 OA
ATOM      9  C   LIG A   1      -4.990   1.271 126.911  0.00  0.00    +0.164 A 
ATOM     10  C   LIG A   1      -4.312   2.244 127.651  0.00  0.00    +0.159 A 
ATOM     11  C   LIG A   1      -4.342   3.579 127.287  0.00  0.00    +0.049 A 
ATOM     12  C   LIG A   1      -5.075   3.957 126.165  0.00  0.00    +0.011 A 
ATOM     13  O   LIG A   1      -5.617   3.592 123.140  0.00  0.00    -0.480 OA
ATOM     14  C   LIG A   1      -6.193   3.865 121.929  0.00  0.00    +0.139 A 
ATOM     15  C   LIG A   1      -7.506   3.520 121.587  0.00  0.00    +0.103 A 
ATOM     16  C   LIG A   1      -7.991   3.878 120.319  0.00  0.00    +0.138 A 
ATOM     17  C   LIG A   1      -7.180   4.572 119.414  0.00  0.00    +0.092 A 
ATOM     18  C   LIG A   1      -5.869   4.870 119.763  0.00  0.00    +0.124 A 
ATOM     19  C   LIG A   1      -5.368   4.516 121.008  0.00  0.00    +0.092 A 
ENDROOT
BRANCH   9  20
ATOM     20  O   LIG A   1      -4.878  -0.013 127.381  0.00  0.00    -0.503 OA
ATOM     21  H   LIG A   1      -5.316  -0.630 126.776  0.00  0.00    +0.292 HD
ENDBRANCH   9  20
BRANCH  10  22
ATOM     22  O   LIG A   1      -3.599   1.879 128.760  0.00  0.00    -0.503 OA
ATOM     23  H   LIG A   1      -3.111   1.078 128.483  0.00  0.00    +0.292 HD
ENDBRANCH  10  22
BRANCH  16  24
ATOM     24  O   LIG A   1      -9.290   3.658 119.943  0.00  0.00    -0.494 OA
ATOM     25  C   LIG A   1      -9.624   4.451 118.801  0.00  0.00    +0.277 C 
ENDBRANCH  16  24
BRANCH  18  26
ATOM     26  O   LIG A   1      -5.037   5.529 118.907  0.00  0.00    -0.506 OA
ATOM     27  H   LIG A   1      -4.163   5.105 118.923  0.00  0.00    +0.292 HD
ENDBRANCH  18  26
TORSDOF 4
ENDMDL
MODEL 2
REMARK VINA RESULT:      -7.8      2.330      6.686
REMARK  Name = NuBBE_2486
REMARK  5 active torsions:
REMARK  status: ('A' for Active; 'I' for Inactive)
REMARK    1  A    between atoms: C_11  and  O_12
REMARK    2  A    between atoms: C_13  and  O_16
REMARK    3  A    between atoms: C_20  and  O_21
REMARK    4  A    between atoms: O_21  and  C_22
REMARK    5  A    between atoms: C_24  and  O_26
REMARK                            x       y       z     vdW  Elec       q    Type
REMARK                         _______ _______ _______ _____ _____    ______ ____
ROOT
ATOM      1  O   LIG A   1      -7.692   2.695 126.558  0.00  0.00    -0.289 OA
ATOM      2  C   LIG A   1      -7.420   2.276 125.437  0.00  0.00    +0.203 C 
ATOM      3  C   LIG A   1      -6.933   3.215 124.353  0.00  0.00    +0.234 C 
ATOM      4  C   LIG A   1      -7.339   2.655 122.995  0.00  0.00    +0.240 C 
ATOM      5  C   LIG A   1      -6.752   3.514 121.893  0.00  0.00    +0.005 A 
ATOM      6  C   LIG A   1      -5.622   4.326 122.155  0.00  0.00    +0.030 A 
ATOM      7  C   LIG A   1      -5.043   4.379 123.551  0.00  0.00    +0.200 C 
ATOM      8  O   LIG A   1      -5.513   3.352 124.428  0.00  0.00    -0.360 OA
ATOM      9  C   LIG A   1      -5.113   5.107 121.111  0.00  0.00    +0.164 A 
ATOM     10  C   LIG A   1      -5.701   5.066 119.844  0.00  0.00    +0.159 A 
ATOM     11  C   LIG A   1      -6.791   4.254 119.579  0.00  0.00    +0.049 A 
ATOM     12  C   LIG A   1      -7.316   3.474 120.605  0.00  0.00    +0.011 A 
ATOM     13  O   LIG A   1      -6.829   1.332 122.786  0.00  0.00    -0.480 OA
ATOM     14  C   LIG A   1      -7.172   0.455 123.779  0.00  0.00    +0.139 A 
ATOM     15  C   LIG A   1      -7.500   0.836 125.085  0.00  0.00    +0.103 A 
ATOM     16  C   LIG A   1      -7.860  -0.157 126.010  0.00  0.00    +0.138 A 
ATOM     17  C   LIG A   1      -7.896  -1.504 125.632  0.00  0.00    +0.092 A 
ATOM     18  C   LIG A   1      -7.531  -1.861 124.340  0.00  0.00    +0.124 A 
ATOM     19  C   LIG A   1      -7.162  -0.893 123.415  0.00  0.00    +0.092 A 
ENDROOT
BRANCH   9  20
ATOM     20  O   LIG A   1      -4.041   5.954 121.237  0.00  0.00    -0.503 OA
ATOM     21  H   LIG A   1      -4.069   6.404 122.095  0.00  0.00    +0.292 HD
ENDBRANCH   9  20
BRANCH  10  22
ATOM     22  O   LIG A   1      -5.195   5.839 118.835  0.00  0.00    -0.503 OA
ATOM     23  H   LIG A   1      -4.269   6.009 119.100  0.00  0.00    +0.292 HD
ENDBRANCH  10  22
BRANCH  16  24
ATOM     24  O   LIG A   1      -8.281   0.141 127.279  0.00  0.00    -0.494 OA
ATOM     25  C   LIG A   1      -7.401  -0.432 128.248  0.00  0.00    +0.277 C 
ENDBRANCH  16  24
BRANCH  18  26
ATOM     26  O   LIG A   1      -7.533  -3.161 123.933  0.00  0.00    -0.506 OA
ATOM     27  H   LIG A   1      -8.441  -3.421 123.702  0.00  0.00    +0.292 HD
ENDBRANCH  18  26
TORSDOF 4
ENDMDL
MODEL 3
REMARK VINA RESULT:      -7.6      2.060      6.698
REMARK  Name = NuBBE_2486
REMARK  5 active torsions:
REMARK  status: ('A' for Active; 'I' for Inactive)
REMARK    1  A    between atoms: C_11  and  O_12
REMARK    2  A    between atoms: C_13  and  O_16
REMARK    3  A    between atoms: C_20  and  O_21
REMARK    4  A    between atoms: O_21  and  C_22
REMARK    5  A    between atoms: C_24  and  O_26
REMARK                            x       y       z     vdW  Elec       q    Type
REMARK                         _______ _______ _______ _____ _____    ______ ____
ROOT
ATOM      1  O   LIG A   1      -8.673   0.288 124.365  0.00  0.00    -0.289 OA
ATOM      2  C   LIG A   1      -8.158   1.399 124.276  0.00  0.00    +0.203 C 
ATOM      3  C   LIG A   1      -7.868   2.017 122.925  0.00  0.00    +0.234 C 
ATOM      4  C   LIG A   1      -6.675   2.956 123.057  0.00  0.00    +0.240 C 
ATOM      5  C   LIG A   1      -6.448   3.679 121.744  0.00  0.00    +0.005 A 
ATOM      6  C   LIG A   1      -7.507   3.804 120.813  0.00  0.00    +0.030 A 
ATOM      7  C   LIG A   1      -8.844   3.159 121.106  0.00  0.00    +0.200 C 
ATOM      8  O   LIG A   1      -9.013   2.733 122.460  0.00  0.00    -0.360 OA
ATOM      9  C   LIG A   1      -7.255   4.476 119.611  0.00  0.00    +0.164 A 
ATOM     10  C   LIG A   1      -5.994   5.021 119.356  0.00  0.00    +0.159 A 
ATOM     11  C   LIG A   1      -4.964   4.922 120.276  0.00  0.00    +0.049 A 
ATOM     12  C   LIG A   1      -5.192   4.252 121.474  0.00  0.00    +0.011 A 
ATOM     13  O   LIG A   1      -6.900   3.974 124.041  0.00  0.00    -0.480 OA
ATOM     14  C   LIG A   1      -7.244   3.475 125.267  0.00  0.00    +0.139 A 
ATOM     15  C   LIG A   1      -7.834   2.222 125.469  0.00  0.00    +0.103 A 
ATOM     16  C   LIG A   1      -8.119   1.811 126.781  0.00  0.00    +0.138 A 
ATOM     17  C   LIG A   1      -7.815   2.636 127.869  0.00  0.00    +0.092 A 
ATOM     18  C   LIG A   1      -7.264   3.891 127.641  0.00  0.00    +0.124 A 
ATOM     19  C   LIG A   1      -6.985   4.318 126.350  0.00  0.00    +0.092 A 
ENDROOT
BRANCH   9  20
ATOM     20  O   LIG A   1      -8.184   4.644 118.616  0.00  0.00    -0.503 OA
ATOM     21  H   LIG A   1      -8.743   5.413 118.807  0.00  0.00    +0.292 HD
ENDBRANCH   9  20
BRANCH  10  22
ATOM     22  O   LIG A   1      -5.761   5.671 118.174  0.00  0.00    -0.503 OA
ATOM     23  H   LIG A   1      -5.633   4.952 117.523  0.00  0.00    +0.292 HD
ENDBRANCH  10  22
BRANCH  16  24
ATOM     24  O   LIG A   1      -8.611   0.565 127.068  0.00  0.00    -0.494 OA
ATOM     25  C   LIG A   1      -7.621  -0.225 127.732  0.00  0.00    +0.277 C 
ENDBRANCH  16  24
BRANCH  18  26
ATOM     26  O   LIG A   1      -6.968   4.736 128.669  0.00  0.00    -0.506 OA
ATOM     27  H   LIG A   1      -7.263   5.633 128.439  0.00  0.00    +0.292 HD
ENDBRANCH  18  26
TORSDOF 4
ENDMDL
MODEL 4
REMARK VINA RESULT:      -7.3      2.975      6.499
REMARK  Name = NuBBE_2486
REMARK  5 active torsions:
REMARK  status: ('A' for Active; 'I' for Inactive)
REMARK    1  A    between atoms: C_11  and  O_12
REMARK    2  A    between atoms: C_13  and  O_16
REMARK    3  A    between atoms: C_20  and  O_21
REMARK    4  A    between atoms: O_21  and  C_22
REMARK    5  A    between atoms: C_24  and  O_26
REMARK                            x       y       z     vdW  Elec       q    Type
REMARK                         _______ _______ _______ _____ _____    ______ ____
ROOT
ATOM      1  O   LIG A   1      -9.986  -0.090 125.260  0.00  0.00    -0.289 OA
ATOM      2  C   LIG A   1      -8.885  -0.076 124.717  0.00  0.00    +0.203 C 
ATOM      3  C   LIG A   1      -8.260   1.225 124.259  0.00  0.00    +0.234 C 
ATOM      4  C   LIG A   1      -7.346   0.942 123.072  0.00  0.00    +0.240 C 
ATOM      5  C   LIG A   1      -6.614   2.210 122.679  0.00  0.00    +0.005 A 
ATOM      6  C   LIG A   1      -6.459   3.258 123.619  0.00  0.00    +0.030 A 
ATOM      7  C   LIG A   1      -7.080   3.131 124.993  0.00  0.00    +0.200 C 
ATOM      8  O   LIG A   1      -7.517   1.812 125.328  0.00  0.00    -0.360 OA
ATOM      9  C   LIG A   1      -5.781   4.413 123.215  0.00  0.00    +0.164 A 
ATOM     10  C   LIG A   1      -5.258   4.512 121.923  0.00  0.00    +0.159 A 
ATOM     11  C   LIG A   1      -5.387   3.479 121.010  0.00  0.00    +0.049 A 
ATOM     12  C   LIG A   1      -6.064   2.323 121.390  0.00  0.00    +0.011 A 
ATOM     13  O   LIG A   1      -6.334  -0.021 123.392  0.00  0.00    -0.480 OA
ATOM     14  C   LIG A   1      -6.838  -1.193 123.888  0.00  0.00    +0.139 A 
ATOM     15  C   LIG A   1      -8.081  -1.309 124.520  0.00  0.00    +0.103 A 
ATOM     16  C   LIG A   1      -8.499  -2.573 124.965  0.00  0.00    +0.138 A 
ATOM     17  C   LIG A   1      -7.691  -3.700 124.776  0.00  0.00    +0.092 A 
ATOM     18  C   LIG A   1      -6.445  -3.553 124.179  0.00  0.00    +0.124 A 
ATOM     19  C   LIG A   1      -6.010  -2.309 123.741  0.00  0.00    +0.092 A 
ENDROOT
BRANCH   9  20
ATOM     20  O   LIG A   1      -5.584   5.508 124.017  0.00  0.00    -0.503 OA
ATOM     21  H   LIG A   1      -4.687   5.855 123.895  0.00  0.00    +0.292 HD
ENDBRANCH   9  20
BRANCH  10  22
ATOM     22  O   LIG A   1      -4.601   5.650 121.541  0.00  0.00    -0.503 OA
ATOM     23  H   LIG A   1      -3.915   5.337 120.917  0.00  0.00    +0.292 HD
ENDBRANCH  10  22
BRANCH  16  24
ATOM     24  O   LIG A   1      -9.738  -2.785 125.510  0.00  0.00    -0.494 OA
ATOM     25  C   LIG A   1      -9.625  -3.444 126.774  0.00  0.00    +0.277 C 
ENDBRANCH  16  24
BRANCH  18  26
ATOM     26  O   LIG A   1      -5.617  -4.618 123.990  0.00  0.00    -0.506 OA
ATOM     27  H   LIG A   1      -5.878  -5.086 123.179  0.00  0.00    +0.292 HD
ENDBRANCH  18  26
TORSDOF 4
ENDMDL
MODEL 5
REMARK VINA RESULT:      -7.2      1.601      6.816
REMARK  Name = NuBBE_2486
REMARK  5 active torsions:
REMARK  status: ('A' for Active; 'I' for Inactive)
REMARK    1  A    between atoms: C_11  and  O_12
REMARK    2  A    between atoms: C_13  and  O_16
REMARK    3  A    between atoms: C_20  and  O_21
REMARK    4  A    between atoms: O_21  and  C_22
REMARK    5  A    between atoms: C_24  and  O_26
REMARK                            x       y       z     vdW  Elec       q    Type
REMARK                         _______ _______ _______ _____ _____    ______ ____
ROOT
ATOM      1  O   LIG A   1      -6.971   0.659 125.949  0.00  0.00    -0.289 OA
ATOM      2  C   LIG A   1      -6.698   1.754 125.467  0.00  0.00    +0.203 C 
ATOM      3  C   LIG A   1      -7.070   2.090 124.037  0.00  0.00    +0.234 C 
ATOM      4  C   LIG A   1      -6.071   3.104 123.493  0.00  0.00    +0.240 C 
ATOM      5  C   LIG A   1      -6.499   3.547 122.107  0.00  0.00    +0.005 A 
ATOM      6  C   LIG A   1      -7.850   3.410 121.707  0.00  0.00    +0.030 A 
ATOM      7  C   LIG A   1      -8.848   2.764 122.642  0.00  0.00    +0.200 C 
ATOM      8  O   LIG A   1      -8.394   2.623 123.990  0.00  0.00    -0.360 OA
ATOM      9  C   LIG A   1      -8.203   3.828 120.418  0.00  0.00    +0.164 A 
ATOM     10  C   LIG A   1      -7.244   4.380 119.565  0.00  0.00    +0.159 A 
ATOM     11  C   LIG A   1      -5.927   4.538 119.964  0.00  0.00    +0.049 A 
ATOM     12  C   LIG A   1      -5.554   4.123 121.239  0.00  0.00    +0.011 A 
ATOM     13  O   LIG A   1      -6.021   4.291 124.294  0.00  0.00    -0.480 OA
ATOM     14  C   LIG A   1      -5.766   4.043 125.615  0.00  0.00    +0.139 A 
ATOM     15  C   LIG A   1      -6.039   2.827 126.254  0.00  0.00    +0.103 A 
ATOM     16  C   LIG A   1      -5.709   2.686 127.611  0.00  0.00    +0.138 A 
ATOM     17  C   LIG A   1      -5.111   3.739 128.313  0.00  0.00    +0.092 A 
ATOM     18  C   LIG A   1      -4.884   4.947 127.668  0.00  0.00    +0.124 A 
ATOM     19  C   LIG A   1      -5.213   5.109 126.329  0.00  0.00    +0.092 A 
ENDROOT
BRANCH   9  20
ATOM     20  O   LIG A   1      -9.468   3.728 119.898  0.00  0.00    -0.503 OA
ATOM     21  H   LIG A   1      -9.752   2.801 119.884  0.00  0.00    +0.292 HD
ENDBRANCH   9  20
BRANCH  10  22
ATOM     22  O   LIG A   1      -7.603   4.779 118.307  0.00  0.00    -0.503 OA
ATOM     23  H   LIG A   1      -6.947   5.466 118.073  0.00  0.00    +0.292 HD
ENDBRANCH  10  22
BRANCH  16  24
ATOM     24  O   LIG A   1      -5.861   1.501 128.283  0.00  0.00    -0.494 OA
ATOM     25  C   LIG A   1      -6.750   1.662 129.390  0.00  0.00    +0.277 C 
ENDBRANCH  16  24
BRANCH  18  26
ATOM     26  O   LIG A   1      -4.320   6.005 128.316  0.00  0.00    -0.506 OA
ATOM     27  H   LIG A   1      -4.381   6.794 127.751  0.00  0.00    +0.292 HD
ENDBRANCH  18  26
TORSDOF 4
ENDMDL
MODEL 6
REMARK VINA RESULT:      -7.1      7.587     10.116
REMARK  Name = NuBBE_2486
REMARK  5 active torsions:
REMARK  status: ('A' for Active; 'I' for Inactive)
REMARK    1  A    between atoms: C_11  and  O_12
REMARK    2  A    between atoms: C_13  and  O_16
REMARK    3  A    between atoms: C_20  and  O_21
REMARK    4  A    between atoms: O_21  and  C_22
REMARK    5  A    between atoms: C_24  and  O_26
REMARK                            x       y       z     vdW  Elec       q    Type
REMARK                         _______ _______ _______ _____ _____    ______ ____
ROOT
ATOM      1  O   LIG A   1      -9.577   2.521 131.752  0.00  0.00    -0.289 OA
ATOM      2  C   LIG A   1      -9.193   3.571 131.246  0.00  0.00    +0.203 C 
ATOM      3  C   LIG A   1     -10.175   4.663 130.879  0.00  0.00    +0.234 C 
ATOM      4  C   LIG A   1      -9.612   5.461 129.708  0.00  0.00    +0.240 C 
ATOM      5  C   LIG A   1     -10.522   6.635 129.407  0.00  0.00    +0.005 A 
ATOM      6  C   LIG A   1     -11.395   7.128 130.408  0.00  0.00    +0.030 A 
ATOM      7  C   LIG A   1     -11.461   6.438 131.752  0.00  0.00    +0.200 C 
ATOM      8  O   LIG A   1     -10.395   5.519 132.001  0.00  0.00    -0.360 OA
ATOM      9  C   LIG A   1     -12.221   8.212 130.088  0.00  0.00    +0.164 A 
ATOM     10  C   LIG A   1     -12.164   8.796 128.821  0.00  0.00    +0.159 A 
ATOM     11  C   LIG A   1     -11.293   8.333 127.849  0.00  0.00    +0.049 A 
ATOM     12  C   LIG A   1     -10.467   7.252 128.144  0.00  0.00    +0.011 A 
ATOM     13  O   LIG A   1      -8.325   6.017 130.007  0.00  0.00    -0.480 OA
ATOM     14  C   LIG A   1      -7.415   5.084 130.422  0.00  0.00    +0.139 A 
ATOM     15  C   LIG A   1      -7.755   3.859 131.008  0.00  0.00    +0.103 A 
ATOM     16  C   LIG A   1      -6.728   2.973 131.370  0.00  0.00    +0.138 A 
ATOM     17  C   LIG A   1      -5.387   3.304 131.145  0.00  0.00    +0.092 A 
ATOM     18  C   LIG A   1      -5.073   4.541 130.597  0.00  0.00    +0.124 A 
ATOM     19  C   LIG A   1      -6.075   5.435 130.241  0.00  0.00    +0.092 A 
ENDROOT
BRANCH   9  20
ATOM     20  O   LIG A   1     -13.128   8.768 130.954  0.00  0.00    -0.503 OA
ATOM     21  H   LIG A   1     -13.973   8.296 130.902  0.00  0.00    +0.292 HD
ENDBRANCH   9  20
BRANCH  10  22
ATOM     22  O   LIG A   1     -12.981   9.853 128.522  0.00  0.00    -0.503 OA
ATOM     23  H   LIG A   1     -13.838   9.440 128.292  0.00  0.00    +0.292 HD
ENDBRANCH  10  22
BRANCH  16  24
ATOM     24  O   LIG A   1      -6.982   1.720 131.864  0.00  0.00    -0.494 OA
ATOM     25  C   LIG A   1      -6.481   1.594 133.196  0.00  0.00    +0.277 C 
ENDBRANCH  16  24
BRANCH  18  26
ATOM     26  O   LIG A   1      -3.781   4.914 130.376  0.00  0.00    -0.506 OA
ATOM     27  H   LIG A   1      -3.290   4.875 131.214  0.00  0.00    +0.292 HD
ENDBRANCH  18  26
TORSDOF 4
ENDMDL
MODEL 7
REMARK VINA RESULT:      -7.0      7.069      8.950
REMARK  Name = NuBBE_2486
REMARK  5 active torsions:
REMARK  status: ('A' for Active; 'I' for Inactive)
REMARK    1  A    between atoms: C_11  and  O_12
REMARK    2  A    between atoms: C_13  and  O_16
REMARK    3  A    between atoms: C_20  and  O_21
REMARK    4  A    between atoms: O_21  and  C_22
REMARK    5  A    between atoms: C_24  and  O_26
REMARK                            x       y       z     vdW  Elec       q    Type
REMARK                         _______ _______ _______ _____ _____    ______ ____
ROOT
ATOM      1  O   LIG A   1      -8.872   5.409 127.819  0.00  0.00    -0.289 OA
ATOM      2  C   LIG A   1      -8.999   5.370 129.039  0.00  0.00    +0.203 C 
ATOM      3  C   LIG A   1      -7.915   4.782 129.917  0.00  0.00    +0.234 C 
ATOM      4  C   LIG A   1      -8.554   4.220 131.182  0.00  0.00    +0.240 C 
ATOM      5  C   LIG A   1      -7.472   3.739 132.129  0.00  0.00    +0.005 A 
ATOM      6  C   LIG A   1      -6.155   4.249 132.015  0.00  0.00    +0.030 A 
ATOM      7  C   LIG A   1      -5.820   5.223 130.909  0.00  0.00    +0.200 C 
ATOM      8  O   LIG A   1      -6.957   5.787 130.250  0.00  0.00    -0.360 OA
ATOM      9  C   LIG A   1      -5.185   3.776 132.907  0.00  0.00    +0.164 A 
ATOM     10  C   LIG A   1      -5.522   2.841 133.890  0.00  0.00    +0.159 A 
ATOM     11  C   LIG A   1      -6.814   2.361 134.018  0.00  0.00    +0.049 A 
ATOM     12  C   LIG A   1      -7.793   2.814 133.138  0.00  0.00    +0.011 A 
ATOM     13  O   LIG A   1      -9.296   5.217 131.896  0.00  0.00    -0.480 OA
ATOM     14  C   LIG A   1     -10.241   5.842 131.129  0.00  0.00    +0.139 A 
ATOM     15  C   LIG A   1     -10.185   5.935 129.733  0.00  0.00    +0.103 A 
ATOM     16  C   LIG A   1     -11.231   6.582 129.055  0.00  0.00    +0.138 A 
ATOM     17  C   LIG A   1     -12.314   7.119 129.760  0.00  0.00    +0.092 A 
ATOM     18  C   LIG A   1     -12.329   7.046 131.146  0.00  0.00    +0.124 A 
ATOM     19  C   LIG A   1     -11.299   6.419 131.835  0.00  0.00    +0.092 A 
ENDROOT
BRANCH   9  20
ATOM     20  O   LIG A   1      -3.871   4.167 132.889  0.00  0.00    -0.503 OA
ATOM     21  H   LIG A   1      -3.398   3.787 133.646  0.00  0.00    +0.292 HD
ENDBRANCH   9  20
BRANCH  10  22
ATOM     22  O   LIG A   1      -4.561   2.386 134.751  0.00  0.00    -0.503 OA
ATOM     23  H   LIG A   1      -4.041   3.182 134.979  0.00  0.00    +0.292 HD
ENDBRANCH  10  22
BRANCH  16  24
ATOM     24  O   LIG A   1     -11.294   6.635 127.687  0.00  0.00    -0.494 OA
ATOM     25  C   LIG A   1     -11.144   7.981 127.229  0.00  0.00    +0.277 C 
ENDBRANCH  16  24
BRANCH  18  26
ATOM     26  O   LIG A   1     -13.354   7.570 131.876  0.00  0.00    -0.506 OA
ATOM     27  H   LIG A   1     -13.045   7.745 132.781  0.00  0.00    +0.292 HD
ENDBRANCH  18  26
TORSDOF 4
ENDMDL
MODEL 8
REMARK VINA RESULT:      -7.0      3.507      6.477
REMARK  Name = NuBBE_2486
REMARK  5 active torsions:
REMARK  status: ('A' for Active; 'I' for Inactive)
REMARK    1  A    between atoms: C_11  and  O_12
REMARK    2  A    between atoms: C_13  and  O_16
REMARK    3  A    between atoms: C_20  and  O_21
REMARK    4  A    between atoms: O_21  and  C_22
REMARK    5  A    between atoms: C_24  and  O_26
REMARK                            x       y       z     vdW  Elec       q    Type
REMARK                         _______ _______ _______ _____ _____    ______ ____
ROOT
ATOM      1  O   LIG A   1      -4.633   0.902 128.231  0.00  0.00    -0.289 OA
ATOM      2  C   LIG A   1      -5.395   1.102 127.289  0.00  0.00    +0.203 C 
ATOM      3  C   LIG A   1      -6.270  -0.008 126.747  0.00  0.00    +0.234 C 
ATOM      4  C   LIG A   1      -6.536   0.251 125.268  0.00  0.00    +0.240 C 
ATOM      5  C   LIG A   1      -7.512  -0.780 124.738  0.00  0.00    +0.005 A 
ATOM      6  C   LIG A   1      -8.371  -1.466 125.631  0.00  0.00    +0.030 A 
ATOM      7  C   LIG A   1      -8.264  -1.213 127.118  0.00  0.00    +0.200 C 
ATOM      8  O   LIG A   1      -7.501  -0.056 127.470  0.00  0.00    -0.360 OA
ATOM      9  C   LIG A   1      -9.255  -2.413 125.101  0.00  0.00    +0.164 A 
ATOM     10  C   LIG A   1      -9.294  -2.653 123.725  0.00  0.00    +0.159 A 
ATOM     11  C   LIG A   1      -8.474  -1.965 122.847  0.00  0.00    +0.049 A 
ATOM     12  C   LIG A   1      -7.583  -1.023 123.354  0.00  0.00    +0.011 A 
ATOM     13  O   LIG A   1      -7.145   1.530 125.048  0.00  0.00    -0.480 OA
ATOM     14  C   LIG A   1      -6.437   2.568 125.588  0.00  0.00    +0.139 A 
ATOM     15  C   LIG A   1      -5.545   2.439 126.659  0.00  0.00    +0.103 A 
ATOM     16  C   LIG A   1      -4.856   3.577 127.109  0.00  0.00    +0.138 A 
ATOM     17  C   LIG A   1      -5.053   4.819 126.494  0.00  0.00    +0.092 A 
ATOM     18  C   LIG A   1      -5.970   4.929 125.458  0.00  0.00    +0.124 A 
ATOM     19  C   LIG A   1      -6.668   3.817 125.006  0.00  0.00    +0.092 A 
ENDROOT
BRANCH   9  20
ATOM     20  O   LIG A   1     -10.119  -3.164 125.856  0.00  0.00    -0.503 OA
ATOM     21  H   LIG A   1     -10.574  -2.602 126.502  0.00  0.00    +0.292 HD
ENDBRANCH   9  20
BRANCH  10  22
ATOM     22  O   LIG A   1     -10.161  -3.585 123.222  0.00  0.00    -0.503 OA
ATOM     23  H   LIG A   1     -10.185  -4.287 123.903  0.00  0.00    +0.292 HD
ENDBRANCH  10  22
BRANCH  16  24
ATOM     24  O   LIG A   1      -3.901   3.516 128.089  0.00  0.00    -0.494 OA
ATOM     25  C   LIG A   1      -2.597   3.690 127.532  0.00  0.00    +0.277 C 
ENDBRANCH  16  24
BRANCH  18  26
ATOM     26  O   LIG A   1      -6.208   6.121 124.841  0.00  0.00    -0.506 OA
ATOM     27  H   LIG A   1      -5.721   6.823 125.306  0.00  0.00    +0.292 HD
ENDBRANCH  18  26
TORSDOF 4
ENDMDL
MODEL 9
REMARK VINA RESULT:      -7.0      3.804      5.319
REMARK  Name = NuBBE_2486
REMARK  5 active torsions:
REMARK  status: ('A' for Active; 'I' for Inactive)
REMARK    1  A    between atoms: C_11  and  O_12
REMARK    2  A    between atoms: C_13  and  O_16
REMARK    3  A    between atoms: C_20  and  O_21
REMARK    4  A    between atoms: O_21  and  C_22
REMARK    5  A    between atoms: C_24  and  O_26
REMARK                            x       y       z     vdW  Elec       q    Type
REMARK                         _______ _______ _______ _____ _____    ______ ____
ROOT
ATOM      1  O   LIG A   1      -6.555   4.622 125.005  0.00  0.00    -0.289 OA
ATOM      2  C   LIG A   1      -7.325   3.809 125.507  0.00  0.00    +0.203 C 
ATOM      3  C   LIG A   1      -7.471   3.700 127.010  0.00  0.00    +0.234 C 
ATOM      4  C   LIG A   1      -7.870   2.272 127.364  0.00  0.00    +0.240 C 
ATOM      5  C   LIG A   1      -8.142   2.174 128.852  0.00  0.00    +0.005 A 
ATOM      6  C   LIG A   1      -8.469   3.338 129.590  0.00  0.00    +0.030 A 
ATOM      7  C   LIG A   1      -8.482   4.684 128.901  0.00  0.00    +0.200 C 
ATOM      8  O   LIG A   1      -8.460   4.620 127.473  0.00  0.00    -0.360 OA
ATOM      9  C   LIG A   1      -8.710   3.205 130.962  0.00  0.00    +0.164 A 
ATOM     10  C   LIG A   1      -8.646   1.950 131.574  0.00  0.00    +0.159 A 
ATOM     11  C   LIG A   1      -8.352   0.807 130.850  0.00  0.00    +0.049 A 
ATOM     12  C   LIG A   1      -8.103   0.918 129.485  0.00  0.00    +0.011 A 
ATOM     13  O   LIG A   1      -9.081   1.875 126.709  0.00  0.00    -0.480 OA
ATOM     14  C   LIG A   1      -9.036   2.027 125.350  0.00  0.00    +0.139 A 
ATOM     15  C   LIG A   1      -8.191   2.925 124.686  0.00  0.00    +0.103 A 
ATOM     16  C   LIG A   1      -8.220   2.972 123.283  0.00  0.00    +0.138 A 
ATOM     17  C   LIG A   1      -9.074   2.132 122.559  0.00  0.00    +0.092 A 
ATOM     18  C   LIG A   1      -9.929   1.277 123.241  0.00  0.00    +0.124 A 
ATOM     19  C   LIG A   1      -9.922   1.224 124.629  0.00  0.00    +0.092 A 
ENDROOT
BRANCH   9  20
ATOM     20  O   LIG A   1      -9.010   4.253 131.795  0.00  0.00    -0.503 OA
ATOM     21  H   LIG A   1      -9.928   4.534 131.661  0.00  0.00    +0.292 HD
ENDBRANCH   9  20
BRANCH  10  22
ATOM     22  O   LIG A   1      -8.880   1.836 132.917  0.00  0.00    -0.503 OA
ATOM     23  H   LIG A   1      -8.046   2.133 133.335  0.00  0.00    +0.292 HD
ENDBRANCH  10  22
BRANCH  16  24
ATOM     24  O   LIG A   1      -7.362   3.756 122.558  0.00  0.00    -0.494 OA
ATOM     25  C   LIG A   1      -6.390   2.951 121.888  0.00  0.00    +0.277 C 
ENDBRANCH  16  24
BRANCH  18  26
ATOM     26  O   LIG A   1     -10.791   0.454 122.578  0.00  0.00    -0.506 OA
ATOM     27  H   LIG A   1     -11.616   0.935 122.398  0.00  0.00    +0.292 HD
ENDBRANCH  18  26
TORSDOF 4
ENDMDL
