MODEL 1
REMARK VINA RESULT:      -7.7      0.000      0.000
REMARK  Name = NuBBE_1995
REMARK  8 active torsions:
REMARK  status: ('A' for Active; 'I' for Inactive)
REMARK    1  A    between atoms: O_1  and  C_2
REMARK    2  A    between atoms: C_3  and  C_4
REMARK    3  A    between atoms: C_5  and  O_6
REMARK    4  A    between atoms: C_10  and  C_12
REMARK    5  A    between atoms: C_15  and  O_16
REMARK    6  A    between atoms: C_17  and  O_18
REMARK    7  A    between atoms: O_18  and  C_19
REMARK    8  A    between atoms: C_24  and  C_25
REMARK                            x       y       z     vdW  Elec       q    Type
REMARK                         _______ _______ _______ _____ _____    ______ ____
ROOT
ATOM      1  C   LIG A   1      -6.029  -0.805 125.384  0.00  0.00    +0.130 A 
ATOM      2  C   LIG A   1      -6.381  -1.612 124.288  0.00  0.00    +0.034 A 
ATOM      3  C   LIG A   1      -5.530  -2.775 123.851  0.00  0.00    +0.051 C 
ATOM      4  C   LIG A   1      -7.522  -1.253 123.546  0.00  0.00    +0.137 A 
ATOM      5  C   LIG A   1      -8.271  -0.112 123.861  0.00  0.00    +0.101 A 
ATOM      6  C   LIG A   1      -9.500   0.286 123.123  0.00  0.00    +0.174 C 
ATOM      7  C   LIG A   1     -10.137   1.586 123.528  0.00  0.00    +0.129 C 
ATOM      8  C   LIG A   1      -9.055   2.538 124.019  0.00  0.00    +0.211 C 
ATOM      9  O   LIG A   1      -8.425   1.936 125.170  0.00  0.00    -0.483 OA
ATOM     10  O   LIG A   1     -10.027  -0.422 122.267  0.00  0.00    -0.292 OA
ATOM     11  C   LIG A   1      -7.848   0.712 124.911  0.00  0.00    +0.142 A 
ATOM     12  C   LIG A   1      -6.767   0.340 125.726  0.00  0.00    +0.034 A 
ATOM     13  C   LIG A   1      -6.349   1.195 126.895  0.00  0.00    +0.051 C 
ENDROOT
BRANCH   8  14
ATOM     14  C   LIG A   1      -8.049   3.052 122.983  0.00  0.00    -0.003 A 
ATOM     15  C   LIG A   1      -6.718   3.305 123.342  0.00  0.00    +0.011 A 
ATOM     16  C   LIG A   1      -5.795   3.778 122.405  0.00  0.00    +0.049 A 
ATOM     17  C   LIG A   1      -6.193   4.035 121.091  0.00  0.00    +0.159 A 
ATOM     18  C   LIG A   1      -7.518   3.825 120.708  0.00  0.00    +0.162 A 
ATOM     19  C   LIG A   1      -8.430   3.340 121.660  0.00  0.00    +0.056 A 
BRANCH  17  20
ATOM     20  O   LIG A   1      -5.255   4.499 120.212  0.00  0.00    -0.503 OA
ATOM     21  H   LIG A   1      -4.373   4.421 120.610  0.00  0.00    +0.292 HD
ENDBRANCH  17  20
BRANCH  18  22
ATOM     22  O   LIG A   1      -8.091   4.032 119.480  0.00  0.00    -0.491 OA
ATOM     23  C   LIG A   1      -9.495   4.240 119.429  0.00  0.00    +0.277 C 
ENDBRANCH  18  22
ENDBRANCH   8  14
BRANCH   1  24
ATOM     24  O   LIG A   1      -4.928  -1.072 126.155  0.00  0.00    -0.506 OA
ATOM     25  H   LIG A   1      -4.718  -2.017 126.124  0.00  0.00    +0.292 HD
ENDBRANCH   1  24
BRANCH   4  26
ATOM     26  O   LIG A   1      -7.884  -2.043 122.490  0.00  0.00    -0.506 OA
ATOM     27  H   LIG A   1      -7.809  -2.969 122.777  0.00  0.00    +0.292 HD
ENDBRANCH   4  26
TORSDOF 5
ENDMDL
MODEL 2
REMARK VINA RESULT:      -7.2      1.321      2.386
REMARK  Name = NuBBE_1995
REMARK  8 active torsions:
REMARK  status: ('A' for Active; 'I' for Inactive)
REMARK    1  A    between atoms: O_1  and  C_2
REMARK    2  A    between atoms: C_3  and  C_4
REMARK    3  A    between atoms: C_5  and  O_6
REMARK    4  A    between atoms: C_10  and  C_12
REMARK    5  A    between atoms: C_15  and  O_16
REMARK    6  A    between atoms: C_17  and  O_18
REMARK    7  A    between atoms: O_18  and  C_19
REMARK    8  A    between atoms: C_24  and  C_25
REMARK                            x       y       z     vdW  Elec       q    Type
REMARK                         _______ _______ _______ _____ _____    ______ ____
ROOT
ATOM      1  C   LIG A   1      -6.540  -1.448 125.760  0.00  0.00    +0.130 A 
ATOM      2  C   LIG A   1      -6.771  -2.058 124.515  0.00  0.00    +0.034 A 
ATOM      3  C   LIG A   1      -5.902  -3.177 124.004  0.00  0.00    +0.051 C 
ATOM      4  C   LIG A   1      -7.798  -1.536 123.707  0.00  0.00    +0.137 A 
ATOM      5  C   LIG A   1      -8.551  -0.424 124.107  0.00  0.00    +0.101 A 
ATOM      6  C   LIG A   1      -9.665   0.140 123.298  0.00  0.00    +0.174 C 
ATOM      7  C   LIG A   1     -10.314   1.389 123.825  0.00  0.00    +0.129 C 
ATOM      8  C   LIG A   1      -9.279   2.202 124.591  0.00  0.00    +0.211 C 
ATOM      9  O   LIG A   1      -8.817   1.401 125.698  0.00  0.00    -0.483 OA
ATOM     10  O   LIG A   1     -10.097  -0.402 122.282  0.00  0.00    -0.292 OA
ATOM     11  C   LIG A   1      -8.244   0.206 125.319  0.00  0.00    +0.142 A 
ATOM     12  C   LIG A   1      -7.286  -0.337 126.189  0.00  0.00    +0.034 A 
ATOM     13  C   LIG A   1      -6.997   0.305 127.522  0.00  0.00    +0.051 C 
ENDROOT
BRANCH   8  14
ATOM     14  C   LIG A   1      -8.136   2.824 123.780  0.00  0.00    -0.003 A 
ATOM     15  C   LIG A   1      -8.227   2.935 122.385  0.00  0.00    +0.011 A 
ATOM     16  C   LIG A   1      -7.188   3.497 121.638  0.00  0.00    +0.049 A 
ATOM     17  C   LIG A   1      -6.021   3.934 122.268  0.00  0.00    +0.159 A 
ATOM     18  C   LIG A   1      -5.885   3.809 123.652  0.00  0.00    +0.162 A 
ATOM     19  C   LIG A   1      -6.943   3.252 124.389  0.00  0.00    +0.056 A 
BRANCH  17  20
ATOM     20  O   LIG A   1      -5.033   4.474 121.494  0.00  0.00    -0.503 OA
ATOM     21  H   LIG A   1      -4.408   4.956 122.058  0.00  0.00    +0.292 HD
ENDBRANCH  17  20
BRANCH  18  22
ATOM     22  O   LIG A   1      -4.820   4.166 124.436  0.00  0.00    -0.491 OA
ATOM     23  C   LIG A   1      -4.747   3.621 125.746  0.00  0.00    +0.277 C 
ENDBRANCH  18  22
ENDBRANCH   8  14
BRANCH   1  24
ATOM     24  O   LIG A   1      -5.553  -1.883 126.606  0.00  0.00    -0.506 OA
ATOM     25  H   LIG A   1      -4.959  -1.152 126.833  0.00  0.00    +0.292 HD
ENDBRANCH   1  24
BRANCH   4  26
ATOM     26  O   LIG A   1      -8.043  -2.134 122.502  0.00  0.00    -0.506 OA
ATOM     27  H   LIG A   1      -9.003  -2.102 122.348  0.00  0.00    +0.292 HD
ENDBRANCH   4  26
TORSDOF 5
ENDMDL
MODEL 3
REMARK VINA RESULT:      -6.9      2.053      5.810
REMARK  Name = NuBBE_1995
REMARK  8 active torsions:
REMARK  status: ('A' for Active; 'I' for Inactive)
REMARK    1  A    between atoms: O_1  and  C_2
REMARK    2  A    between atoms: C_3  and  C_4
REMARK    3  A    between atoms: C_5  and  O_6
REMARK    4  A    between atoms: C_10  and  C_12
REMARK    5  A    between atoms: C_15  and  O_16
REMARK    6  A    between atoms: C_17  and  O_18
REMARK    7  A    between atoms: O_18  and  C_19
REMARK    8  A    between atoms: C_24  and  C_25
REMARK                            x       y       z     vdW  Elec       q    Type
REMARK                         _______ _______ _______ _____ _____    ______ ____
ROOT
ATOM      1  C   LIG A   1      -5.917   3.804 123.614  0.00  0.00    +0.130 A 
ATOM      2  C   LIG A   1      -5.779   3.688 125.008  0.00  0.00    +0.034 A 
ATOM      3  C   LIG A   1      -4.560   4.196 125.732  0.00  0.00    +0.051 C 
ATOM      4  C   LIG A   1      -6.786   3.003 125.714  0.00  0.00    +0.137 A 
ATOM      5  C   LIG A   1      -7.877   2.423 125.054  0.00  0.00    +0.101 A 
ATOM      6  C   LIG A   1      -8.977   1.716 125.763  0.00  0.00    +0.174 C 
ATOM      7  C   LIG A   1     -10.028   1.071 124.903  0.00  0.00    +0.129 C 
ATOM      8  C   LIG A   1      -9.394   0.626 123.593  0.00  0.00    +0.211 C 
ATOM      9  O   LIG A   1      -8.885   1.800 122.925  0.00  0.00    -0.483 OA
ATOM     10  O   LIG A   1      -9.084   1.700 126.988  0.00  0.00    -0.292 OA
ATOM     11  C   LIG A   1      -7.943   2.491 123.657  0.00  0.00    +0.142 A 
ATOM     12  C   LIG A   1      -7.005   3.239 122.928  0.00  0.00    +0.034 A 
ATOM     13  C   LIG A   1      -7.110   3.365 121.430  0.00  0.00    +0.051 C 
ENDROOT
BRANCH   8  14
ATOM     14  C   LIG A   1      -8.374  -0.517 123.660  0.00  0.00    -0.003 A 
ATOM     15  C   LIG A   1      -7.224  -0.499 122.859  0.00  0.00    +0.011 A 
ATOM     16  C   LIG A   1      -6.291  -1.538 122.911  0.00  0.00    +0.049 A 
ATOM     17  C   LIG A   1      -6.505  -2.636 123.747  0.00  0.00    +0.159 A 
ATOM     18  C   LIG A   1      -7.656  -2.703 124.534  0.00  0.00    +0.162 A 
ATOM     19  C   LIG A   1      -8.578  -1.644 124.477  0.00  0.00    +0.056 A 
BRANCH  17  20
ATOM     20  O   LIG A   1      -5.566  -3.629 123.761  0.00  0.00    -0.503 OA
ATOM     21  H   LIG A   1      -5.276  -3.812 122.854  0.00  0.00    +0.292 HD
ENDBRANCH  17  20
BRANCH  18  22
ATOM     22  O   LIG A   1      -8.040  -3.697 125.396  0.00  0.00    -0.491 OA
ATOM     23  C   LIG A   1      -8.949  -3.361 126.434  0.00  0.00    +0.277 C 
ENDBRANCH  18  22
ENDBRANCH   8  14
BRANCH   1  24
ATOM     24  O   LIG A   1      -4.980   4.445 122.846  0.00  0.00    -0.506 OA
ATOM     25  H   LIG A   1      -5.412   4.969 122.156  0.00  0.00    +0.292 HD
ENDBRANCH   1  24
BRANCH   4  26
ATOM     26  O   LIG A   1      -6.672   2.901 127.072  0.00  0.00    -0.506 OA
ATOM     27  H   LIG A   1      -7.570   2.849 127.440  0.00  0.00    +0.292 HD
ENDBRANCH   4  26
TORSDOF 5
ENDMDL
MODEL 4
REMARK VINA RESULT:      -6.8      7.207     10.275
REMARK  Name = NuBBE_1995
REMARK  8 active torsions:
REMARK  status: ('A' for Active; 'I' for Inactive)
REMARK    1  A    between atoms: O_1  and  C_2
REMARK    2  A    between atoms: C_3  and  C_4
REMARK    3  A    between atoms: C_5  and  O_6
REMARK    4  A    between atoms: C_10  and  C_12
REMARK    5  A    between atoms: C_15  and  O_16
REMARK    6  A    between atoms: C_17  and  O_18
REMARK    7  A    between atoms: O_18  and  C_19
REMARK    8  A    between atoms: C_24  and  C_25
REMARK                            x       y       z     vdW  Elec       q    Type
REMARK                         _______ _______ _______ _____ _____    ______ ____
ROOT
ATOM      1  C   LIG A   1      -7.901   5.376 133.438  0.00  0.00    +0.130 A 
ATOM      2  C   LIG A   1      -8.332   6.058 132.287  0.00  0.00    +0.034 A 
ATOM      3  C   LIG A   1      -9.781   6.091 131.878  0.00  0.00    +0.051 C 
ATOM      4  C   LIG A   1      -7.352   6.651 131.469  0.00  0.00    +0.137 A 
ATOM      5  C   LIG A   1      -5.987   6.543 131.765  0.00  0.00    +0.101 A 
ATOM      6  C   LIG A   1      -4.922   7.179 130.945  0.00  0.00    +0.174 C 
ATOM      7  C   LIG A   1      -3.502   6.892 131.346  0.00  0.00    +0.129 C 
ATOM      8  C   LIG A   1      -3.430   5.501 131.960  0.00  0.00    +0.211 C 
ATOM      9  O   LIG A   1      -4.269   5.491 133.135  0.00  0.00    -0.483 OA
ATOM     10  O   LIG A   1      -5.160   7.957 130.023  0.00  0.00    -0.292 OA
ATOM     11  C   LIG A   1      -5.589   5.790 132.877  0.00  0.00    +0.142 A 
ATOM     12  C   LIG A   1      -6.539   5.258 133.763  0.00  0.00    +0.034 A 
ATOM     13  C   LIG A   1      -6.112   4.501 134.994  0.00  0.00    +0.051 C 
ENDROOT
BRANCH   8  14
ATOM     14  C   LIG A   1      -3.685   4.309 131.030  0.00  0.00    -0.003 A 
ATOM     15  C   LIG A   1      -4.136   3.085 131.542  0.00  0.00    +0.011 A 
ATOM     16  C   LIG A   1      -4.367   1.992 130.701  0.00  0.00    +0.049 A 
ATOM     17  C   LIG A   1      -4.122   2.093 129.330  0.00  0.00    +0.159 A 
ATOM     18  C   LIG A   1      -3.641   3.287 128.791  0.00  0.00    +0.162 A 
ATOM     19  C   LIG A   1      -3.425   4.379 129.649  0.00  0.00    +0.056 A 
BRANCH  17  20
ATOM     20  O   LIG A   1      -4.360   0.996 128.550  0.00  0.00    -0.503 OA
ATOM     21  H   LIG A   1      -4.369   0.201 129.106  0.00  0.00    +0.292 HD
ENDBRANCH  17  20
BRANCH  18  22
ATOM     22  O   LIG A   1      -3.332   3.567 127.486  0.00  0.00    -0.491 OA
ATOM     23  C   LIG A   1      -2.032   3.232 127.025  0.00  0.00    +0.277 C 
ENDBRANCH  18  22
ENDBRANCH   8  14
BRANCH   1  24
ATOM     24  O   LIG A   1      -8.784   4.759 134.286  0.00  0.00    -0.506 OA
ATOM     25  H   LIG A   1      -9.165   3.975 133.862  0.00  0.00    +0.292 HD
ENDBRANCH   1  24
BRANCH   4  26
ATOM     26  O   LIG A   1      -7.762   7.334 130.358  0.00  0.00    -0.506 OA
ATOM     27  H   LIG A   1      -8.536   7.867 130.609  0.00  0.00    +0.292 HD
ENDBRANCH   4  26
TORSDOF 5
ENDMDL
MODEL 5
REMARK VINA RESULT:      -6.7      1.727      6.203
REMARK  Name = NuBBE_1995
REMARK  8 active torsions:
REMARK  status: ('A' for Active; 'I' for Inactive)
REMARK    1  A    between atoms: O_1  and  C_2
REMARK    2  A    between atoms: C_3  and  C_4
REMARK    3  A    between atoms: C_5  and  O_6
REMARK    4  A    between atoms: C_10  and  C_12
REMARK    5  A    between atoms: C_15  and  O_16
REMARK    6  A    between atoms: C_17  and  O_18
REMARK    7  A    between atoms: O_18  and  C_19
REMARK    8  A    between atoms: C_24  and  C_25
REMARK                            x       y       z     vdW  Elec       q    Type
REMARK                         _______ _______ _______ _____ _____    ______ ____
ROOT
ATOM      1  C   LIG A   1      -6.785   3.840 121.676  0.00  0.00    +0.130 A 
ATOM      2  C   LIG A   1      -5.680   4.139 122.492  0.00  0.00    +0.034 A 
ATOM      3  C   LIG A   1      -4.411   4.722 121.930  0.00  0.00    +0.051 C 
ATOM      4  C   LIG A   1      -5.760   3.801 123.856  0.00  0.00    +0.137 A 
ATOM      5  C   LIG A   1      -6.885   3.156 124.386  0.00  0.00    +0.101 A 
ATOM      6  C   LIG A   1      -7.023   2.808 125.826  0.00  0.00    +0.174 C 
ATOM      7  C   LIG A   1      -8.253   2.037 126.218  0.00  0.00    +0.129 C 
ATOM      8  C   LIG A   1      -8.680   1.156 125.052  0.00  0.00    +0.211 C 
ATOM      9  O   LIG A   1      -8.991   2.017 123.936  0.00  0.00    -0.483 OA
ATOM     10  O   LIG A   1      -6.222   3.175 126.684  0.00  0.00    -0.292 OA
ATOM     11  C   LIG A   1      -7.935   2.803 123.529  0.00  0.00    +0.142 A 
ATOM     12  C   LIG A   1      -7.929   3.201 122.183  0.00  0.00    +0.034 A 
ATOM     13  C   LIG A   1      -9.086   2.876 121.274  0.00  0.00    +0.051 C 
ENDROOT
BRANCH   8  14
ATOM     14  C   LIG A   1      -7.753  -0.005 124.675  0.00  0.00    -0.003 A 
ATOM     15  C   LIG A   1      -7.687  -0.468 123.353  0.00  0.00    +0.011 A 
ATOM     16  C   LIG A   1      -6.848  -1.529 123.001  0.00  0.00    +0.049 A 
ATOM     17  C   LIG A   1      -6.077  -2.171 123.972  0.00  0.00    +0.159 A 
ATOM     18  C   LIG A   1      -6.144  -1.758 125.304  0.00  0.00    +0.162 A 
ATOM     19  C   LIG A   1      -6.985  -0.682 125.638  0.00  0.00    +0.056 A 
BRANCH  17  20
ATOM     20  O   LIG A   1      -5.275  -3.205 123.580  0.00  0.00    -0.503 OA
ATOM     21  H   LIG A   1      -5.733  -3.730 122.904  0.00  0.00    +0.292 HD
ENDBRANCH  17  20
BRANCH  18  22
ATOM     22  O   LIG A   1      -5.479  -2.270 126.387  0.00  0.00    -0.491 OA
ATOM     23  C   LIG A   1      -6.138  -2.241 127.645  0.00  0.00    +0.277 C 
ENDBRANCH  18  22
ENDBRANCH   8  14
BRANCH   1  24
ATOM     24  O   LIG A   1      -6.790   4.123 120.335  0.00  0.00    -0.506 OA
ATOM     25  H   LIG A   1      -5.984   3.786 119.917  0.00  0.00    +0.292 HD
ENDBRANCH   1  24
BRANCH   4  26
ATOM     26  O   LIG A   1      -4.700   4.105 124.663  0.00  0.00    -0.506 OA
ATOM     27  H   LIG A   1      -4.122   3.324 124.697  0.00  0.00    +0.292 HD
ENDBRANCH   4  26
TORSDOF 5
ENDMDL
MODEL 6
REMARK VINA RESULT:      -6.6      6.530      8.870
REMARK  Name = NuBBE_1995
REMARK  8 active torsions:
REMARK  status: ('A' for Active; 'I' for Inactive)
REMARK    1  A    between atoms: O_1  and  C_2
REMARK    2  A    between atoms: C_3  and  C_4
REMARK    3  A    between atoms: C_5  and  O_6
REMARK    4  A    between atoms: C_10  and  C_12
REMARK    5  A    between atoms: C_15  and  O_16
REMARK    6  A    between atoms: C_17  and  O_18
REMARK    7  A    between atoms: O_18  and  C_19
REMARK    8  A    between atoms: C_24  and  C_25
REMARK                            x       y       z     vdW  Elec       q    Type
REMARK                         _______ _______ _______ _____ _____    ______ ____
ROOT
ATOM      1  C   LIG A   1      -8.753   1.799 131.098  0.00  0.00    +0.130 A 
ATOM      2  C   LIG A   1      -8.460   1.902 129.727  0.00  0.00    +0.034 A 
ATOM      3  C   LIG A   1      -7.939   0.732 128.934  0.00  0.00    +0.051 C 
ATOM      4  C   LIG A   1      -8.588   3.166 129.120  0.00  0.00    +0.137 A 
ATOM      5  C   LIG A   1      -8.963   4.296 129.857  0.00  0.00    +0.101 A 
ATOM      6  C   LIG A   1      -9.139   5.644 129.250  0.00  0.00    +0.174 C 
ATOM      7  C   LIG A   1      -9.457   6.770 130.193  0.00  0.00    +0.129 C 
ATOM      8  C   LIG A   1      -8.809   6.488 131.542  0.00  0.00    +0.211 C 
ATOM      9  O   LIG A   1      -9.372   5.263 132.056  0.00  0.00    -0.483 OA
ATOM     10  O   LIG A   1      -9.099   5.843 128.037  0.00  0.00    -0.292 OA
ATOM     11  C   LIG A   1      -9.173   4.173 131.236  0.00  0.00    +0.142 A 
ATOM     12  C   LIG A   1      -9.139   2.915 131.858  0.00  0.00    +0.034 A 
ATOM     13  C   LIG A   1      -9.426   2.771 133.331  0.00  0.00    +0.051 C 
ENDROOT
BRANCH   8  14
ATOM     14  C   LIG A   1      -7.278   6.519 131.604  0.00  0.00    -0.003 A 
ATOM     15  C   LIG A   1      -6.591   5.886 132.650  0.00  0.00    +0.011 A 
ATOM     16  C   LIG A   1      -5.195   5.913 132.717  0.00  0.00    +0.049 A 
ATOM     17  C   LIG A   1      -4.456   6.600 131.753  0.00  0.00    +0.159 A 
ATOM     18  C   LIG A   1      -5.109   7.269 130.716  0.00  0.00    +0.162 A 
ATOM     19  C   LIG A   1      -6.512   7.223 130.658  0.00  0.00    +0.056 A 
BRANCH  17  20
ATOM     20  O   LIG A   1      -3.094   6.600 131.863  0.00  0.00    -0.503 OA
ATOM     21  H   LIG A   1      -2.768   7.514 131.838  0.00  0.00    +0.292 HD
ENDBRANCH  17  20
BRANCH  18  22
ATOM     22  O   LIG A   1      -4.558   8.001 129.696  0.00  0.00    -0.491 OA
ATOM     23  C   LIG A   1      -3.755   7.316 128.746  0.00  0.00    +0.277 C 
ENDBRANCH  18  22
ENDBRANCH   8  14
BRANCH   1  24
ATOM     24  O   LIG A   1      -8.645   0.610 131.772  0.00  0.00    -0.506 OA
ATOM     25  H   LIG A   1      -9.219  -0.058 131.370  0.00  0.00    +0.292 HD
ENDBRANCH   1  24
BRANCH   4  26
ATOM     26  O   LIG A   1      -8.323   3.273 127.784  0.00  0.00    -0.506 OA
ATOM     27  H   LIG A   1      -7.534   3.832 127.684  0.00  0.00    +0.292 HD
ENDBRANCH   4  26
TORSDOF 5
ENDMDL
MODEL 7
REMARK VINA RESULT:      -6.6      3.129      5.914
REMARK  Name = NuBBE_1995
REMARK  8 active torsions:
REMARK  status: ('A' for Active; 'I' for Inactive)
REMARK    1  A    between atoms: O_1  and  C_2
REMARK    2  A    between atoms: C_3  and  C_4
REMARK    3  A    between atoms: C_5  and  O_6
REMARK    4  A    between atoms: C_10  and  C_12
REMARK    5  A    between atoms: C_15  and  O_16
REMARK    6  A    between atoms: C_17  and  O_18
REMARK    7  A    between atoms: O_18  and  C_19
REMARK    8  A    between atoms: C_24  and  C_25
REMARK                            x       y       z     vdW  Elec       q    Type
REMARK                         _______ _______ _______ _____ _____    ______ ____
ROOT
ATOM      1  C   LIG A   1      -6.644  -1.620 129.862  0.00  0.00    +0.130 A 
ATOM      2  C   LIG A   1      -7.619  -0.608 129.919  0.00  0.00    +0.034 A 
ATOM      3  C   LIG A   1      -8.656  -0.563 131.010  0.00  0.00    +0.051 C 
ATOM      4  C   LIG A   1      -7.654   0.331 128.871  0.00  0.00    +0.137 A 
ATOM      5  C   LIG A   1      -6.773   0.250 127.785  0.00  0.00    +0.101 A 
ATOM      6  C   LIG A   1      -6.756   1.238 126.673  0.00  0.00    +0.174 C 
ATOM      7  C   LIG A   1      -5.811   0.958 125.538  0.00  0.00    +0.129 C 
ATOM      8  C   LIG A   1      -5.652  -0.548 125.383  0.00  0.00    +0.211 C 
ATOM      9  O   LIG A   1      -5.091  -1.063 126.609  0.00  0.00    -0.483 OA
ATOM     10  O   LIG A   1      -7.421   2.272 126.685  0.00  0.00    -0.292 OA
ATOM     11  C   LIG A   1      -5.866  -0.815 127.722  0.00  0.00    +0.142 A 
ATOM     12  C   LIG A   1      -5.744  -1.720 128.789  0.00  0.00    +0.034 A 
ATOM     13  C   LIG A   1      -4.726  -2.830 128.749  0.00  0.00    +0.051 C 
ENDROOT
BRANCH   8  14
ATOM     14  C   LIG A   1      -6.876  -1.337 124.903  0.00  0.00    -0.003 A 
ATOM     15  C   LIG A   1      -7.004  -2.703 125.189  0.00  0.00    +0.011 A 
ATOM     16  C   LIG A   1      -8.114  -3.431 124.752  0.00  0.00    +0.049 A 
ATOM     17  C   LIG A   1      -9.109  -2.812 123.993  0.00  0.00    +0.159 A 
ATOM     18  C   LIG A   1      -8.998  -1.460 123.663  0.00  0.00    +0.162 A 
ATOM     19  C   LIG A   1      -7.880  -0.741 124.119  0.00  0.00    +0.056 A 
BRANCH  17  20
ATOM     20  O   LIG A   1     -10.174  -3.565 123.587  0.00  0.00    -0.503 OA
ATOM     21  H   LIG A   1     -10.212  -3.574 122.617  0.00  0.00    +0.292 HD
ENDBRANCH  17  20
BRANCH  18  22
ATOM     22  O   LIG A   1      -9.858  -0.692 122.923  0.00  0.00    -0.491 OA
ATOM     23  C   LIG A   1      -9.716   0.719 122.992  0.00  0.00    +0.277 C 
ENDBRANCH  18  22
ENDBRANCH   8  14
BRANCH   1  24
ATOM     24  O   LIG A   1      -6.545  -2.582 130.832  0.00  0.00    -0.506 OA
ATOM     25  H   LIG A   1      -5.614  -2.784 131.011  0.00  0.00    +0.292 HD
ENDBRANCH   1  24
BRANCH   4  26
ATOM     26  O   LIG A   1      -8.585   1.331 128.927  0.00  0.00    -0.506 OA
ATOM     27  H   LIG A   1      -8.111   2.165 129.084  0.00  0.00    +0.292 HD
ENDBRANCH   4  26
TORSDOF 5
ENDMDL
MODEL 8
REMARK VINA RESULT:      -6.6      2.711      5.628
REMARK  Name = NuBBE_1995
REMARK  8 active torsions:
REMARK  status: ('A' for Active; 'I' for Inactive)
REMARK    1  A    between atoms: O_1  and  C_2
REMARK    2  A    between atoms: C_3  and  C_4
REMARK    3  A    between atoms: C_5  and  O_6
REMARK    4  A    between atoms: C_10  and  C_12
REMARK    5  A    between atoms: C_15  and  O_16
REMARK    6  A    between atoms: C_17  and  O_18
REMARK    7  A    between atoms: O_18  and  C_19
REMARK    8  A    between atoms: C_24  and  C_25
REMARK                            x       y       z     vdW  Elec       q    Type
REMARK                         _______ _______ _______ _____ _____    ______ ____
ROOT
ATOM      1  C   LIG A   1      -7.823   1.664 129.251  0.00  0.00    +0.130 A 
ATOM      2  C   LIG A   1      -8.456   2.913 129.122  0.00  0.00    +0.034 A 
ATOM      3  C   LIG A   1      -9.570   3.339 130.041  0.00  0.00    +0.051 C 
ATOM      4  C   LIG A   1      -8.074   3.735 128.045  0.00  0.00    +0.137 A 
ATOM      5  C   LIG A   1      -7.119   3.319 127.109  0.00  0.00    +0.101 A 
ATOM      6  C   LIG A   1      -6.665   4.168 125.974  0.00  0.00    +0.174 C 
ATOM      7  C   LIG A   1      -5.701   3.540 125.007  0.00  0.00    +0.129 C 
ATOM      8  C   LIG A   1      -5.972   2.043 124.936  0.00  0.00    +0.211 C 
ATOM      9  O   LIG A   1      -5.756   1.491 126.252  0.00  0.00    -0.483 OA
ATOM     10  O   LIG A   1      -6.993   5.346 125.846  0.00  0.00    -0.292 OA
ATOM     11  C   LIG A   1      -6.565   2.038 127.224  0.00  0.00    +0.142 A 
ATOM     12  C   LIG A   1      -6.856   1.225 128.331  0.00  0.00    +0.034 A 
ATOM     13  C   LIG A   1      -6.213  -0.129 128.489  0.00  0.00    +0.051 C 
ENDROOT
BRANCH   8  14
ATOM     14  C   LIG A   1      -7.298   1.600 124.308  0.00  0.00    -0.003 A 
ATOM     15  C   LIG A   1      -8.048   2.485 123.520  0.00  0.00    +0.011 A 
ATOM     16  C   LIG A   1      -9.260   2.091 122.947  0.00  0.00    +0.049 A 
ATOM     17  C   LIG A   1      -9.764   0.809 123.174  0.00  0.00    +0.159 A 
ATOM     18  C   LIG A   1      -9.060  -0.087 123.980  0.00  0.00    +0.162 A 
ATOM     19  C   LIG A   1      -7.837   0.322 124.540  0.00  0.00    +0.056 A 
BRANCH  17  20
ATOM     20  O   LIG A   1     -10.955   0.471 122.595  0.00  0.00    -0.503 OA
ATOM     21  H   LIG A   1     -10.814  -0.257 121.969  0.00  0.00    +0.292 HD
ENDBRANCH  17  20
BRANCH  18  22
ATOM     22  O   LIG A   1      -9.399  -1.370 124.324  0.00  0.00    -0.491 OA
ATOM     23  C   LIG A   1      -9.029  -2.415 123.437  0.00  0.00    +0.277 C 
ENDBRANCH  18  22
ENDBRANCH   8  14
BRANCH   1  24
ATOM     24  O   LIG A   1      -8.140   0.794 130.262  0.00  0.00    -0.506 OA
ATOM     25  H   LIG A   1      -8.231   1.272 131.100  0.00  0.00    +0.292 HD
ENDBRANCH   1  24
BRANCH   4  26
ATOM     26  O   LIG A   1      -8.669   4.959 127.922  0.00  0.00    -0.506 OA
ATOM     27  H   LIG A   1      -9.507   4.930 128.414  0.00  0.00    +0.292 HD
ENDBRANCH   4  26
TORSDOF 5
ENDMDL
MODEL 9
REMARK VINA RESULT:      -6.6      4.675      7.418
REMARK  Name = NuBBE_1995
REMARK  8 active torsions:
REMARK  status: ('A' for Active; 'I' for Inactive)
REMARK    1  A    between atoms: O_1  and  C_2
REMARK    2  A    between atoms: C_3  and  C_4
REMARK    3  A    between atoms: C_5  and  O_6
REMARK    4  A    between atoms: C_10  and  C_12
REMARK    5  A    between atoms: C_15  and  O_16
REMARK    6  A    between atoms: C_17  and  O_18
REMARK    7  A    between atoms: O_18  and  C_19
REMARK    8  A    between atoms: C_24  and  C_25
REMARK                            x       y       z     vdW  Elec       q    Type
REMARK                         _______ _______ _______ _____ _____    ______ ____
ROOT
ATOM      1  C   LIG A   1      -5.706   4.135 131.122  0.00  0.00    +0.130 A 
ATOM      2  C   LIG A   1      -5.519   5.503 130.860  0.00  0.00    +0.034 A 
ATOM      3  C   LIG A   1      -6.311   6.566 131.575  0.00  0.00    +0.051 C 
ATOM      4  C   LIG A   1      -4.618   5.860 129.839  0.00  0.00    +0.137 A 
ATOM      5  C   LIG A   1      -3.949   4.891 129.081  0.00  0.00    +0.101 A 
ATOM      6  C   LIG A   1      -2.967   5.224 128.014  0.00  0.00    +0.174 C 
ATOM      7  C   LIG A   1      -2.404   4.070 127.233  0.00  0.00    +0.129 C 
ATOM      8  C   LIG A   1      -3.448   2.965 127.157  0.00  0.00    +0.211 C 
ATOM      9  O   LIG A   1      -3.736   2.534 128.504  0.00  0.00    -0.483 OA
ATOM     10  O   LIG A   1      -2.568   6.368 127.805  0.00  0.00    -0.292 OA
ATOM     11  C   LIG A   1      -4.217   3.537 129.317  0.00  0.00    +0.142 A 
ATOM     12  C   LIG A   1      -5.042   3.142 130.383  0.00  0.00    +0.034 A 
ATOM     13  C   LIG A   1      -5.282   1.684 130.677  0.00  0.00    +0.051 C 
ENDROOT
BRANCH   8  14
ATOM     14  C   LIG A   1      -4.710   3.247 126.333  0.00  0.00    -0.003 A 
ATOM     15  C   LIG A   1      -5.961   2.778 126.756  0.00  0.00    +0.011 A 
ATOM     16  C   LIG A   1      -7.116   3.027 126.010  0.00  0.00    +0.049 A 
ATOM     17  C   LIG A   1      -7.039   3.729 124.805  0.00  0.00    +0.159 A 
ATOM     18  C   LIG A   1      -5.805   4.183 124.337  0.00  0.00    +0.162 A 
ATOM     19  C   LIG A   1      -4.655   3.932 125.106  0.00  0.00    +0.056 A 
BRANCH  17  20
ATOM     20  O   LIG A   1      -8.195   3.945 124.109  0.00  0.00    -0.503 OA
ATOM     21  H   LIG A   1      -8.945   3.586 124.609  0.00  0.00    +0.292 HD
ENDBRANCH  17  20
BRANCH  18  22
ATOM     22  O   LIG A   1      -5.533   4.869 123.183  0.00  0.00    -0.491 OA
ATOM     23  C   LIG A   1      -5.358   4.119 121.990  0.00  0.00    +0.277 C 
ENDBRANCH  18  22
ENDBRANCH   8  14
BRANCH   1  24
ATOM     24  O   LIG A   1      -6.572   3.696 132.090  0.00  0.00    -0.506 OA
ATOM     25  H   LIG A   1      -6.299   2.826 132.415  0.00  0.00    +0.292 HD
ENDBRANCH   1  24
BRANCH   4  26
ATOM     26  O   LIG A   1      -4.414   7.189 129.589  0.00  0.00    -0.506 OA
ATOM     27  H   LIG A   1      -4.242   7.625 130.441  0.00  0.00    +0.292 HD
ENDBRANCH   4  26
TORSDOF 5
ENDMDL
