MODEL 1
REMARK VINA RESULT:      -6.3      0.000      0.000
REMARK  Name = NuBBE_1082
REMARK  15 active torsions:
REMARK  status: ('A' for Active; 'I' for Inactive)
REMARK    1  A    between atoms: O_1  and  C_2
REMARK    2  A    between atoms: C_2  and  C_4
REMARK    3  A    between atoms: C_2  and  C_21
REMARK    4  A    between atoms: C_4  and  C_6
REMARK    5  A    between atoms: C_4  and  O_20
REMARK    6  A    between atoms: C_7  and  O_8
REMARK    7  A    between atoms: O_8  and  C_9
REMARK    8  A    between atoms: C_12  and  C_13
REMARK    9  A    between atoms: C_13  and  C_14
REMARK   10  A    between atoms: C_14  and  C_15
REMARK   11  A    between atoms: C_15  and  O_16
REMARK   12  A    between atoms: C_18  and  O_19
REMARK   13  A    between atoms: C_21  and  C_22
REMARK   14  A    between atoms: C_21  and  C_23
REMARK   15  A    between atoms: C_21  and  O_24
REMARK                            x       y       z     vdW  Elec       q    Type
REMARK                         _______ _______ _______ _____ _____    ______ ____
ROOT
ATOM      1  C   LIG A   1      -6.403   3.738 124.470  0.00  0.00    +0.067 A 
ATOM      2  C   LIG A   1      -7.296   2.661 124.660  0.00  0.00    +0.129 A 
ATOM      3  C   LIG A   1      -7.720   1.887 123.576  0.00  0.00    +0.046 A 
ATOM      4  C   LIG A   1      -7.223   2.125 122.300  0.00  0.00    +0.011 A 
ATOM      5  C   LIG A   1      -6.280   3.134 122.074  0.00  0.00    -0.005 A 
ATOM      6  C   LIG A   1      -5.886   3.934 123.165  0.00  0.00    +0.129 A 
ENDROOT
BRANCH   2   7
ATOM      7  O   LIG A   1      -7.799   2.454 125.911  0.00  0.00    -0.495 OA
ATOM      8  C   LIG A   1      -8.188   1.131 126.254  0.00  0.00    +0.277 C 
ENDBRANCH   2   7
BRANCH   6   9
ATOM      9  O   LIG A   1      -4.965   4.936 123.003  0.00  0.00    -0.506 OA
ATOM     10  H   LIG A   1      -4.110   4.675 123.379  0.00  0.00    +0.292 HD
ENDBRANCH   6   9
BRANCH   1  11
ATOM     11  C   LIG A   1      -5.953   4.664 125.619  0.00  0.00    +0.183 C 
BRANCH  11  12
ATOM     12  O   LIG A   1      -6.079   6.033 125.200  0.00  0.00    -0.384 OA
ATOM     13  H   LIG A   1      -5.265   6.244 124.707  0.00  0.00    +0.210 HD
ENDBRANCH  11  12
BRANCH  11  14
ATOM     14  C   LIG A   1      -4.527   4.413 126.211  0.00  0.00    +0.178 C 
BRANCH  14  15
ATOM     15  C   LIG A   1      -4.219   5.092 127.582  0.00  0.00    +0.089 C 
ATOM     16  C   LIG A   1      -5.129   4.612 128.711  0.00  0.00    +0.044 C 
ATOM     17  C   LIG A   1      -2.752   4.809 127.958  0.00  0.00    +0.044 C 
BRANCH  15  18
ATOM     18  O   LIG A   1      -4.334   6.520 127.499  0.00  0.00    -0.387 OA
ATOM     19  H   LIG A   1      -5.114   6.776 128.037  0.00  0.00    +0.210 HD
ENDBRANCH  15  18
ENDBRANCH  14  15
BRANCH  14  20
ATOM     20  O   LIG A   1      -4.271   3.002 126.287  0.00  0.00    -0.386 OA
ATOM     21  H   LIG A   1      -3.814   2.768 125.460  0.00  0.00    +0.210 HD
ENDBRANCH  14  20
ENDBRANCH  11  14
ENDBRANCH   1  11
BRANCH   5  22
ATOM     22  C   LIG A   1      -5.760   3.287 120.661  0.00  0.00    +0.050 C 
BRANCH  22  23
ATOM     23  C   LIG A   1      -6.496   4.376 119.889  0.00  0.00    +0.125 C 
BRANCH  23  24
ATOM     24  C   LIG A   1      -5.547   5.494 119.525  0.00  0.00    +0.305 C 
ATOM     25  O   LIG A   1      -4.779   6.076 120.251  0.00  0.00    -0.251 OA
BRANCH  24  26
ATOM     26  O   LIG A   1      -5.636   5.815 118.217  0.00  0.00    -0.481 OA
ATOM     27  H   LIG A   1      -5.157   5.080 117.765  0.00  0.00    +0.295 HD
ENDBRANCH  24  26
ENDBRANCH  23  24
ENDBRANCH  22  23
ENDBRANCH   5  22
TORSDOF 12
ENDMDL
MODEL 2
REMARK VINA RESULT:      -6.1      2.266      5.005
REMARK  Name = NuBBE_1082
REMARK  15 active torsions:
REMARK  status: ('A' for Active; 'I' for Inactive)
REMARK    1  A    between atoms: O_1  and  C_2
REMARK    2  A    between atoms: C_2  and  C_4
REMARK    3  A    between atoms: C_2  and  C_21
REMARK    4  A    between atoms: C_4  and  C_6
REMARK    5  A    between atoms: C_4  and  O_20
REMARK    6  A    between atoms: C_7  and  O_8
REMARK    7  A    between atoms: O_8  and  C_9
REMARK    8  A    between atoms: C_12  and  C_13
REMARK    9  A    between atoms: C_13  and  C_14
REMARK   10  A    between atoms: C_14  and  C_15
REMARK   11  A    between atoms: C_15  and  O_16
REMARK   12  A    between atoms: C_18  and  O_19
REMARK   13  A    between atoms: C_21  and  C_22
REMARK   14  A    between atoms: C_21  and  C_23
REMARK   15  A    between atoms: C_21  and  O_24
REMARK                            x       y       z     vdW  Elec       q    Type
REMARK                         _______ _______ _______ _____ _____    ______ ____
ROOT
ATOM      1  C   LIG A   1      -7.852   1.982 124.495  0.00  0.00    +0.067 A 
ATOM      2  C   LIG A   1      -6.797   2.478 125.292  0.00  0.00    +0.129 A 
ATOM      3  C   LIG A   1      -5.806   3.291 124.736  0.00  0.00    +0.046 A 
ATOM      4  C   LIG A   1      -5.872   3.676 123.402  0.00  0.00    +0.011 A 
ATOM      5  C   LIG A   1      -6.937   3.270 122.591  0.00  0.00    -0.005 A 
ATOM      6  C   LIG A   1      -7.913   2.421 123.148  0.00  0.00    +0.129 A 
ENDROOT
BRANCH   2   7
ATOM      7  O   LIG A   1      -6.727   2.072 126.592  0.00  0.00    -0.495 OA
ATOM      8  C   LIG A   1      -6.450   3.059 127.576  0.00  0.00    +0.277 C 
ENDBRANCH   2   7
BRANCH   6   9
ATOM      9  O   LIG A   1      -8.979   1.992 122.400  0.00  0.00    -0.506 OA
ATOM     10  H   LIG A   1      -8.710   1.275 121.805  0.00  0.00    +0.292 HD
ENDBRANCH   6   9
BRANCH   1  11
ATOM     11  C   LIG A   1      -8.936   1.031 125.040  0.00  0.00    +0.183 C 
BRANCH  11  12
ATOM     12  O   LIG A   1      -9.348   1.482 126.342  0.00  0.00    -0.384 OA
ATOM     13  H   LIG A   1      -9.938   2.244 126.194  0.00  0.00    +0.210 HD
ENDBRANCH  11  12
BRANCH  11  14
ATOM     14  C   LIG A   1      -8.581  -0.491 125.089  0.00  0.00    +0.178 C 
BRANCH  14  15
ATOM     15  C   LIG A   1      -8.740  -1.281 123.752  0.00  0.00    +0.089 C 
ATOM     16  C   LIG A   1      -7.459  -1.322 122.920  0.00  0.00    +0.044 C 
ATOM     17  C   LIG A   1      -9.181  -2.721 124.074  0.00  0.00    +0.044 C 
BRANCH  15  18
ATOM     18  O   LIG A   1      -9.780  -0.726 122.933  0.00  0.00    -0.387 OA
ATOM     19  H   LIG A   1      -9.777  -1.225 122.089  0.00  0.00    +0.210 HD
ENDBRANCH  15  18
ENDBRANCH  14  15
BRANCH  14  20
ATOM     20  O   LIG A   1      -7.256  -0.667 125.614  0.00  0.00    -0.386 OA
ATOM     21  H   LIG A   1      -6.650  -0.507 124.869  0.00  0.00    +0.210 HD
ENDBRANCH  14  20
ENDBRANCH  11  14
ENDBRANCH   1  11
BRANCH   5  22
ATOM     22  C   LIG A   1      -6.949   3.778 121.165  0.00  0.00    +0.050 C 
BRANCH  22  23
ATOM     23  C   LIG A   1      -5.549   3.862 120.568  0.00  0.00    +0.125 C 
BRANCH  23  24
ATOM     24  C   LIG A   1      -5.289   5.250 120.031  0.00  0.00    +0.305 C 
ATOM     25  O   LIG A   1      -4.634   6.127 120.540  0.00  0.00    -0.251 OA
BRANCH  24  26
ATOM     26  O   LIG A   1      -5.895   5.445 118.842  0.00  0.00    -0.481 OA
ATOM     27  H   LIG A   1      -5.302   6.086 118.381  0.00  0.00    +0.295 HD
ENDBRANCH  24  26
ENDBRANCH  23  24
ENDBRANCH  22  23
ENDBRANCH   5  22
TORSDOF 12
ENDMDL
MODEL 3
REMARK VINA RESULT:      -6.0      1.943      2.366
REMARK  Name = NuBBE_1082
REMARK  15 active torsions:
REMARK  status: ('A' for Active; 'I' for Inactive)
REMARK    1  A    between atoms: O_1  and  C_2
REMARK    2  A    between atoms: C_2  and  C_4
REMARK    3  A    between atoms: C_2  and  C_21
REMARK    4  A    between atoms: C_4  and  C_6
REMARK    5  A    between atoms: C_4  and  O_20
REMARK    6  A    between atoms: C_7  and  O_8
REMARK    7  A    between atoms: O_8  and  C_9
REMARK    8  A    between atoms: C_12  and  C_13
REMARK    9  A    between atoms: C_13  and  C_14
REMARK   10  A    between atoms: C_14  and  C_15
REMARK   11  A    between atoms: C_15  and  O_16
REMARK   12  A    between atoms: C_18  and  O_19
REMARK   13  A    between atoms: C_21  and  C_22
REMARK   14  A    between atoms: C_21  and  C_23
REMARK   15  A    between atoms: C_21  and  O_24
REMARK                            x       y       z     vdW  Elec       q    Type
REMARK                         _______ _______ _______ _____ _____    ______ ____
ROOT
ATOM      1  C   LIG A   1      -7.871   3.620 124.741  0.00  0.00    +0.067 A 
ATOM      2  C   LIG A   1      -8.496   2.407 124.378  0.00  0.00    +0.129 A 
ATOM      3  C   LIG A   1      -8.156   1.758 123.189  0.00  0.00    +0.046 A 
ATOM      4  C   LIG A   1      -7.153   2.262 122.370  0.00  0.00    +0.011 A 
ATOM      5  C   LIG A   1      -6.454   3.420 122.723  0.00  0.00    -0.005 A 
ATOM      6  C   LIG A   1      -6.828   4.090 123.904  0.00  0.00    +0.129 A 
ENDROOT
BRANCH   2   7
ATOM      7  O   LIG A   1      -9.498   1.936 125.176  0.00  0.00    -0.495 OA
ATOM      8  C   LIG A   1      -9.432   0.576 125.583  0.00  0.00    +0.277 C 
ENDBRANCH   2   7
BRANCH   6   9
ATOM      9  O   LIG A   1      -6.177   5.231 124.300  0.00  0.00    -0.506 OA
ATOM     10  H   LIG A   1      -5.216   5.113 124.233  0.00  0.00    +0.292 HD
ENDBRANCH   6   9
BRANCH   1  11
ATOM     11  C   LIG A   1      -8.252   4.411 126.009  0.00  0.00    +0.183 C 
BRANCH  11  12
ATOM     12  O   LIG A   1      -8.439   5.794 125.664  0.00  0.00    -0.384 OA
ATOM     13  H   LIG A   1      -7.884   6.308 126.279  0.00  0.00    +0.210 HD
ENDBRANCH  11  12
BRANCH  11  14
ATOM     14  C   LIG A   1      -7.287   4.290 127.233  0.00  0.00    +0.178 C 
BRANCH  14  15
ATOM     15  C   LIG A   1      -7.947   3.926 128.600  0.00  0.00    +0.089 C 
ATOM     16  C   LIG A   1      -8.375   2.462 128.691  0.00  0.00    +0.044 C 
ATOM     17  C   LIG A   1      -6.949   4.233 129.732  0.00  0.00    +0.044 C 
BRANCH  15  18
ATOM     18  O   LIG A   1      -9.100   4.740 128.861  0.00  0.00    -0.387 OA
ATOM     19  H   LIG A   1      -8.772   5.600 129.201  0.00  0.00    +0.210 HD
ENDBRANCH  15  18
ENDBRANCH  14  15
BRANCH  14  20
ATOM     20  O   LIG A   1      -6.229   3.367 126.932  0.00  0.00    -0.386 OA
ATOM     21  H   LIG A   1      -6.531   2.858 126.158  0.00  0.00    +0.210 HD
ENDBRANCH  14  20
ENDBRANCH  11  14
ENDBRANCH   1  11
BRANCH   5  22
ATOM     22  C   LIG A   1      -5.346   3.867 121.792  0.00  0.00    +0.050 C 
BRANCH  22  23
ATOM     23  C   LIG A   1      -5.855   4.162 120.387  0.00  0.00    +0.125 C 
BRANCH  23  24
ATOM     24  C   LIG A   1      -5.259   5.452 119.872  0.00  0.00    +0.305 C 
ATOM     25  O   LIG A   1      -4.587   6.248 120.480  0.00  0.00    -0.251 OA
BRANCH  24  26
ATOM     26  O   LIG A   1      -5.563   5.657 118.574  0.00  0.00    -0.481 OA
ATOM     27  H   LIG A   1      -4.999   6.426 118.321  0.00  0.00    +0.295 HD
ENDBRANCH  24  26
ENDBRANCH  23  24
ENDBRANCH  22  23
ENDBRANCH   5  22
TORSDOF 12
ENDMDL
MODEL 4
REMARK VINA RESULT:      -5.9      6.839      9.029
REMARK  Name = NuBBE_1082
REMARK  15 active torsions:
REMARK  status: ('A' for Active; 'I' for Inactive)
REMARK    1  A    between atoms: O_1  and  C_2
REMARK    2  A    between atoms: C_2  and  C_4
REMARK    3  A    between atoms: C_2  and  C_21
REMARK    4  A    between atoms: C_4  and  C_6
REMARK    5  A    between atoms: C_4  and  O_20
REMARK    6  A    between atoms: C_7  and  O_8
REMARK    7  A    between atoms: O_8  and  C_9
REMARK    8  A    between atoms: C_12  and  C_13
REMARK    9  A    between atoms: C_13  and  C_14
REMARK   10  A    between atoms: C_14  and  C_15
REMARK   11  A    between atoms: C_15  and  O_16
REMARK   12  A    between atoms: C_18  and  O_19
REMARK   13  A    between atoms: C_21  and  C_22
REMARK   14  A    between atoms: C_21  and  C_23
REMARK   15  A    between atoms: C_21  and  O_24
REMARK                            x       y       z     vdW  Elec       q    Type
REMARK                         _______ _______ _______ _____ _____    ______ ____
ROOT
ATOM      1  C   LIG A   1      -9.027   5.342 132.448  0.00  0.00    +0.067 A 
ATOM      2  C   LIG A   1      -7.720   5.823 132.216  0.00  0.00    +0.129 A 
ATOM      3  C   LIG A   1      -7.477   6.775 131.223  0.00  0.00    +0.046 A 
ATOM      4  C   LIG A   1      -8.525   7.311 130.485  0.00  0.00    +0.011 A 
ATOM      5  C   LIG A   1      -9.846   6.920 130.728  0.00  0.00    -0.005 A 
ATOM      6  C   LIG A   1     -10.080   5.933 131.705  0.00  0.00    +0.129 A 
ENDROOT
BRANCH   2   7
ATOM      7  O   LIG A   1      -6.695   5.271 132.928  0.00  0.00    -0.495 OA
ATOM      8  C   LIG A   1      -5.376   5.444 132.426  0.00  0.00    +0.277 C 
ENDBRANCH   2   7
BRANCH   6   9
ATOM      9  O   LIG A   1     -11.354   5.511 131.986  0.00  0.00    -0.506 OA
ATOM     10  H   LIG A   1     -11.365   4.558 132.162  0.00  0.00    +0.292 HD
ENDBRANCH   6   9
BRANCH   1  11
ATOM     11  C   LIG A   1      -9.343   4.247 133.487  0.00  0.00    +0.183 C 
BRANCH  11  12
ATOM     12  O   LIG A   1      -8.788   4.627 134.757  0.00  0.00    -0.384 OA
ATOM     13  H   LIG A   1      -9.081   3.953 135.397  0.00  0.00    +0.210 HD
ENDBRANCH  11  12
BRANCH  11  14
ATOM     14  C   LIG A   1      -8.909   2.788 133.129  0.00  0.00    +0.178 C 
BRANCH  14  15
ATOM     15  C   LIG A   1      -9.417   2.231 131.762  0.00  0.00    +0.089 C 
ATOM     16  C   LIG A   1      -8.573   2.688 130.573  0.00  0.00    +0.044 C 
ATOM     17  C   LIG A   1      -9.418   0.692 131.821  0.00  0.00    +0.044 C 
BRANCH  15  18
ATOM     18  O   LIG A   1     -10.777   2.615 131.511  0.00  0.00    -0.387 OA
ATOM     19  H   LIG A   1     -11.119   2.017 130.812  0.00  0.00    +0.210 HD
ENDBRANCH  15  18
ENDBRANCH  14  15
BRANCH  14  20
ATOM     20  O   LIG A   1      -7.480   2.668 133.212  0.00  0.00    -0.386 OA
ATOM     21  H   LIG A   1      -7.308   1.802 133.622  0.00  0.00    +0.210 HD
ENDBRANCH  14  20
ENDBRANCH  11  14
ENDBRANCH   1  11
BRANCH   5  22
ATOM     22  C   LIG A   1     -10.926   7.593 129.907  0.00  0.00    +0.050 C 
BRANCH  22  23
ATOM     23  C   LIG A   1     -11.353   6.751 128.711  0.00  0.00    +0.125 C 
BRANCH  23  24
ATOM     24  C   LIG A   1     -10.561   7.140 127.484  0.00  0.00    +0.305 C 
ATOM     25  O   LIG A   1      -9.780   6.461 126.865  0.00  0.00    -0.251 OA
BRANCH  24  26
ATOM     26  O   LIG A   1     -10.818   8.410 127.109  0.00  0.00    -0.481 OA
ATOM     27  H   LIG A   1     -10.970   8.879 127.964  0.00  0.00    +0.295 HD
ENDBRANCH  24  26
ENDBRANCH  23  24
ENDBRANCH  22  23
ENDBRANCH   5  22
TORSDOF 12
ENDMDL
MODEL 5
REMARK VINA RESULT:      -5.9      6.158     10.055
REMARK  Name = NuBBE_1082
REMARK  15 active torsions:
REMARK  status: ('A' for Active; 'I' for Inactive)
REMARK    1  A    between atoms: O_1  and  C_2
REMARK    2  A    between atoms: C_2  and  C_4
REMARK    3  A    between atoms: C_2  and  C_21
REMARK    4  A    between atoms: C_4  and  C_6
REMARK    5  A    between atoms: C_4  and  O_20
REMARK    6  A    between atoms: C_7  and  O_8
REMARK    7  A    between atoms: O_8  and  C_9
REMARK    8  A    between atoms: C_12  and  C_13
REMARK    9  A    between atoms: C_13  and  C_14
REMARK   10  A    between atoms: C_14  and  C_15
REMARK   11  A    between atoms: C_15  and  O_16
REMARK   12  A    between atoms: C_18  and  O_19
REMARK   13  A    between atoms: C_21  and  C_22
REMARK   14  A    between atoms: C_21  and  C_23
REMARK   15  A    between atoms: C_21  and  O_24
REMARK                            x       y       z     vdW  Elec       q    Type
REMARK                         _______ _______ _______ _____ _____    ______ ____
ROOT
ATOM      1  C   LIG A   1      -9.345   5.329 130.137  0.00  0.00    +0.067 A 
ATOM      2  C   LIG A   1      -8.911   4.150 129.491  0.00  0.00    +0.129 A 
ATOM      3  C   LIG A   1      -8.534   3.028 130.234  0.00  0.00    +0.046 A 
ATOM      4  C   LIG A   1      -8.636   3.031 131.620  0.00  0.00    +0.011 A 
ATOM      5  C   LIG A   1      -9.129   4.149 132.301  0.00  0.00    -0.005 A 
ATOM      6  C   LIG A   1      -9.472   5.289 131.548  0.00  0.00    +0.129 A 
ENDROOT
BRANCH   2   7
ATOM      7  O   LIG A   1      -8.790   4.167 128.133  0.00  0.00    -0.495 OA
ATOM      8  C   LIG A   1      -7.540   3.778 127.578  0.00  0.00    +0.277 C 
ENDBRANCH   2   7
BRANCH   6   9
ATOM      9  O   LIG A   1      -9.961   6.414 132.162  0.00  0.00    -0.506 OA
ATOM     10  H   LIG A   1      -9.483   7.201 131.859  0.00  0.00    +0.292 HD
ENDBRANCH   6   9
BRANCH   1  11
ATOM     11  C   LIG A   1      -9.712   6.615 129.370  0.00  0.00    +0.183 C 
BRANCH  11  12
ATOM     12  O   LIG A   1      -9.008   7.727 129.949  0.00  0.00    -0.384 OA
ATOM     13  H   LIG A   1      -8.597   7.395 130.768  0.00  0.00    +0.210 HD
ENDBRANCH  11  12
BRANCH  11  14
ATOM     14  C   LIG A   1     -11.234   6.952 129.243  0.00  0.00    +0.178 C 
BRANCH  14  15
ATOM     15  C   LIG A   1     -11.630   7.939 128.101  0.00  0.00    +0.089 C 
ATOM     16  C   LIG A   1     -11.932   7.239 126.777  0.00  0.00    +0.044 C 
ATOM     17  C   LIG A   1     -12.869   8.741 128.544  0.00  0.00    +0.044 C 
BRANCH  15  18
ATOM     18  O   LIG A   1     -10.600   8.909 127.862  0.00  0.00    -0.387 OA
ATOM     19  H   LIG A   1     -10.993   9.792 128.032  0.00  0.00    +0.210 HD
ENDBRANCH  15  18
ENDBRANCH  14  15
BRANCH  14  20
ATOM     20  O   LIG A   1     -11.995   5.739 129.136  0.00  0.00    -0.386 OA
ATOM     21  H   LIG A   1     -12.238   5.658 128.196  0.00  0.00    +0.210 HD
ENDBRANCH  14  20
ENDBRANCH  11  14
ENDBRANCH   1  11
BRANCH   5  22
ATOM     22  C   LIG A   1      -9.248   4.042 133.806  0.00  0.00    +0.050 C 
BRANCH  22  23
ATOM     23  C   LIG A   1      -7.902   4.183 134.505  0.00  0.00    +0.125 C 
BRANCH  23  24
ATOM     24  C   LIG A   1      -7.859   5.462 135.310  0.00  0.00    +0.305 C 
ATOM     25  O   LIG A   1      -7.179   5.702 136.277  0.00  0.00    -0.251 OA
BRANCH  24  26
ATOM     26  O   LIG A   1      -8.709   6.387 134.818  0.00  0.00    -0.481 OA
ATOM     27  H   LIG A   1      -8.143   7.190 134.714  0.00  0.00    +0.295 HD
ENDBRANCH  24  26
ENDBRANCH  23  24
ENDBRANCH  22  23
ENDBRANCH   5  22
TORSDOF 12
ENDMDL
MODEL 6
REMARK VINA RESULT:      -5.9      6.530      8.143
REMARK  Name = NuBBE_1082
REMARK  15 active torsions:
REMARK  status: ('A' for Active; 'I' for Inactive)
REMARK    1  A    between atoms: O_1  and  C_2
REMARK    2  A    between atoms: C_2  and  C_4
REMARK    3  A    between atoms: C_2  and  C_21
REMARK    4  A    between atoms: C_4  and  C_6
REMARK    5  A    between atoms: C_4  and  O_20
REMARK    6  A    between atoms: C_7  and  O_8
REMARK    7  A    between atoms: O_8  and  C_9
REMARK    8  A    between atoms: C_12  and  C_13
REMARK    9  A    between atoms: C_13  and  C_14
REMARK   10  A    between atoms: C_14  and  C_15
REMARK   11  A    between atoms: C_15  and  O_16
REMARK   12  A    between atoms: C_18  and  O_19
REMARK   13  A    between atoms: C_21  and  C_22
REMARK   14  A    between atoms: C_21  and  C_23
REMARK   15  A    between atoms: C_21  and  O_24
REMARK                            x       y       z     vdW  Elec       q    Type
REMARK                         _______ _______ _______ _____ _____    ______ ____
ROOT
ATOM      1  C   LIG A   1      -9.391   5.378 130.713  0.00  0.00    +0.067 A 
ATOM      2  C   LIG A   1      -9.963   5.560 131.992  0.00  0.00    +0.129 A 
ATOM      3  C   LIG A   1     -11.078   6.385 132.163  0.00  0.00    +0.046 A 
ATOM      4  C   LIG A   1     -11.682   6.993 131.069  0.00  0.00    +0.011 A 
ATOM      5  C   LIG A   1     -11.197   6.784 129.774  0.00  0.00    -0.005 A 
ATOM      6  C   LIG A   1     -10.051   5.982 129.613  0.00  0.00    +0.129 A 
ENDROOT
BRANCH   2   7
ATOM      7  O   LIG A   1      -9.345   4.981 133.062  0.00  0.00    -0.495 OA
ATOM      8  C   LIG A   1      -8.359   5.743 133.745  0.00  0.00    +0.277 C 
ENDBRANCH   2   7
BRANCH   6   9
ATOM      9  O   LIG A   1      -9.532   5.741 128.367  0.00  0.00    -0.506 OA
ATOM     10  H   LIG A   1     -10.235   5.746 127.700  0.00  0.00    +0.292 HD
ENDBRANCH   6   9
BRANCH   1  11
ATOM     11  C   LIG A   1      -8.124   4.531 130.477  0.00  0.00    +0.183 C 
BRANCH  11  12
ATOM     12  O   LIG A   1      -7.311   5.168 129.477  0.00  0.00    -0.384 OA
ATOM     13  H   LIG A   1      -7.689   6.056 129.341  0.00  0.00    +0.210 HD
ENDBRANCH  11  12
BRANCH  11  14
ATOM     14  C   LIG A   1      -8.339   3.025 130.114  0.00  0.00    +0.178 C 
BRANCH  14  15
ATOM     15  C   LIG A   1      -8.444   2.033 131.314  0.00  0.00    +0.089 C 
ATOM     16  C   LIG A   1      -9.882   1.776 131.760  0.00  0.00    +0.044 C 
ATOM     17  C   LIG A   1      -7.791   0.696 130.912  0.00  0.00    +0.044 C 
BRANCH  15  18
ATOM     18  O   LIG A   1      -7.706   2.504 132.451  0.00  0.00    -0.387 OA
ATOM     19  H   LIG A   1      -8.345   2.963 133.037  0.00  0.00    +0.210 HD
ENDBRANCH  15  18
ENDBRANCH  14  15
BRANCH  14  20
ATOM     20  O   LIG A   1      -9.483   2.888 129.256  0.00  0.00    -0.386 OA
ATOM     21  H   LIG A   1     -10.236   3.254 129.755  0.00  0.00    +0.210 HD
ENDBRANCH  14  20
ENDBRANCH  11  14
ENDBRANCH   1  11
BRANCH   5  22
ATOM     22  C   LIG A   1     -11.949   7.449 128.641  0.00  0.00    +0.050 C 
BRANCH  22  23
ATOM     23  C   LIG A   1     -11.024   8.216 127.704  0.00  0.00    +0.125 C 
BRANCH  23  24
ATOM     24  C   LIG A   1     -11.123   7.663 126.300  0.00  0.00    +0.305 C 
ATOM     25  O   LIG A   1     -10.739   8.176 125.278  0.00  0.00    -0.251 OA
BRANCH  24  26
ATOM     26  O   LIG A   1     -11.722   6.454 126.283  0.00  0.00    -0.481 OA
ATOM     27  H   LIG A   1     -12.605   6.628 126.687  0.00  0.00    +0.295 HD
ENDBRANCH  24  26
ENDBRANCH  23  24
ENDBRANCH  22  23
ENDBRANCH   5  22
TORSDOF 12
ENDMDL
MODEL 7
REMARK VINA RESULT:      -5.7      3.473      6.203
REMARK  Name = NuBBE_1082
REMARK  15 active torsions:
REMARK  status: ('A' for Active; 'I' for Inactive)
REMARK    1  A    between atoms: O_1  and  C_2
REMARK    2  A    between atoms: C_2  and  C_4
REMARK    3  A    between atoms: C_2  and  C_21
REMARK    4  A    between atoms: C_4  and  C_6
REMARK    5  A    between atoms: C_4  and  O_20
REMARK    6  A    between atoms: C_7  and  O_8
REMARK    7  A    between atoms: O_8  and  C_9
REMARK    8  A    between atoms: C_12  and  C_13
REMARK    9  A    between atoms: C_13  and  C_14
REMARK   10  A    between atoms: C_14  and  C_15
REMARK   11  A    between atoms: C_15  and  O_16
REMARK   12  A    between atoms: C_18  and  O_19
REMARK   13  A    between atoms: C_21  and  C_22
REMARK   14  A    between atoms: C_21  and  C_23
REMARK   15  A    between atoms: C_21  and  O_24
REMARK                            x       y       z     vdW  Elec       q    Type
REMARK                         _______ _______ _______ _____ _____    ______ ____
ROOT
ATOM      1  C   LIG A   1      -6.547  -0.084 124.678  0.00  0.00    +0.067 A 
ATOM      2  C   LIG A   1      -5.771  -0.165 125.855  0.00  0.00    +0.129 A 
ATOM      3  C   LIG A   1      -5.237   0.988 126.436  0.00  0.00    +0.046 A 
ATOM      4  C   LIG A   1      -5.510   2.241 125.902  0.00  0.00    +0.011 A 
ATOM      5  C   LIG A   1      -6.334   2.379 124.780  0.00  0.00    -0.005 A 
ATOM      6  C   LIG A   1      -6.839   1.210 124.177  0.00  0.00    +0.129 A 
ENDROOT
BRANCH   2   7
ATOM      7  O   LIG A   1      -5.486  -1.402 126.355  0.00  0.00    -0.495 OA
ATOM      8  C   LIG A   1      -6.244  -1.852 127.470  0.00  0.00    +0.277 C 
ENDBRANCH   2   7
BRANCH   6   9
ATOM      9  O   LIG A   1      -7.653   1.283 123.076  0.00  0.00    -0.506 OA
ATOM     10  H   LIG A   1      -7.695   0.424 122.628  0.00  0.00    +0.292 HD
ENDBRANCH   6   9
BRANCH   1  11
ATOM     11  C   LIG A   1      -7.107  -1.328 123.959  0.00  0.00    +0.183 C 
BRANCH  11  12
ATOM     12  O   LIG A   1      -6.738  -1.277 122.571  0.00  0.00    -0.384 OA
ATOM     13  H   LIG A   1      -6.445  -2.176 122.332  0.00  0.00    +0.210 HD
ENDBRANCH  11  12
BRANCH  11  14
ATOM     14  C   LIG A   1      -8.643  -1.592 124.096  0.00  0.00    +0.178 C 
BRANCH  14  15
ATOM     15  C   LIG A   1      -9.061  -3.028 124.542  0.00  0.00    +0.089 C 
ATOM     16  C   LIG A   1      -7.904  -4.025 124.524  0.00  0.00    +0.044 C 
ATOM     17  C   LIG A   1      -9.647  -2.956 125.965  0.00  0.00    +0.044 C 
BRANCH  15  18
ATOM     18  O   LIG A   1     -10.108  -3.552 123.712  0.00  0.00    -0.387 OA
ATOM     19  H   LIG A   1     -10.361  -2.840 123.087  0.00  0.00    +0.210 HD
ENDBRANCH  15  18
ENDBRANCH  14  15
BRANCH  14  20
ATOM     20  O   LIG A   1      -9.231  -0.612 124.966  0.00  0.00    -0.386 OA
ATOM     21  H   LIG A   1     -10.133  -0.463 124.629  0.00  0.00    +0.210 HD
ENDBRANCH  14  20
ENDBRANCH  11  14
ENDBRANCH   1  11
BRANCH   5  22
ATOM     22  C   LIG A   1      -6.614   3.786 124.299  0.00  0.00    +0.050 C 
BRANCH  22  23
ATOM     23  C   LIG A   1      -5.489   4.335 123.430  0.00  0.00    +0.125 C 
BRANCH  23  24
ATOM     24  C   LIG A   1      -5.747   4.018 121.975  0.00  0.00    +0.305 C 
ATOM     25  O   LIG A   1      -4.933   3.890 121.093  0.00  0.00    -0.251 OA
BRANCH  24  26
ATOM     26  O   LIG A   1      -7.065   3.878 121.722  0.00  0.00    -0.481 OA
ATOM     27  H   LIG A   1      -7.181   4.322 120.848  0.00  0.00    +0.295 HD
ENDBRANCH  24  26
ENDBRANCH  23  24
ENDBRANCH  22  23
ENDBRANCH   5  22
TORSDOF 12
ENDMDL
MODEL 8
REMARK VINA RESULT:      -5.7      4.498      8.449
REMARK  Name = NuBBE_1082
REMARK  15 active torsions:
REMARK  status: ('A' for Active; 'I' for Inactive)
REMARK    1  A    between atoms: O_1  and  C_2
REMARK    2  A    between atoms: C_2  and  C_4
REMARK    3  A    between atoms: C_2  and  C_21
REMARK    4  A    between atoms: C_4  and  C_6
REMARK    5  A    between atoms: C_4  and  O_20
REMARK    6  A    between atoms: C_7  and  O_8
REMARK    7  A    between atoms: O_8  and  C_9
REMARK    8  A    between atoms: C_12  and  C_13
REMARK    9  A    between atoms: C_13  and  C_14
REMARK   10  A    between atoms: C_14  and  C_15
REMARK   11  A    between atoms: C_15  and  O_16
REMARK   12  A    between atoms: C_18  and  O_19
REMARK   13  A    between atoms: C_21  and  C_22
REMARK   14  A    between atoms: C_21  and  C_23
REMARK   15  A    between atoms: C_21  and  O_24
REMARK                            x       y       z     vdW  Elec       q    Type
REMARK                         _______ _______ _______ _____ _____    ______ ____
ROOT
ATOM      1  C   LIG A   1      -8.058  -1.256 126.269  0.00  0.00    +0.067 A 
ATOM      2  C   LIG A   1      -8.947  -2.213 125.732  0.00  0.00    +0.129 A 
ATOM      3  C   LIG A   1      -9.305  -3.344 126.470  0.00  0.00    +0.046 A 
ATOM      4  C   LIG A   1      -8.842  -3.518 127.768  0.00  0.00    +0.011 A 
ATOM      5  C   LIG A   1      -8.019  -2.561 128.370  0.00  0.00    -0.005 A 
ATOM      6  C   LIG A   1      -7.630  -1.442 127.608  0.00  0.00    +0.129 A 
ENDROOT
BRANCH   2   7
ATOM      7  O   LIG A   1      -9.373  -2.046 124.447  0.00  0.00    -0.495 OA
ATOM      8  C   LIG A   1      -9.316  -3.173 123.582  0.00  0.00    +0.277 C 
ENDBRANCH   2   7
BRANCH   6   9
ATOM      9  O   LIG A   1      -6.825  -0.471 128.146  0.00  0.00    -0.506 OA
ATOM     10  H   LIG A   1      -5.970  -0.448 127.688  0.00  0.00    +0.292 HD
ENDBRANCH   6   9
BRANCH   1  11
ATOM     11  C   LIG A   1      -7.578  -0.023 125.476  0.00  0.00    +0.183 C 
BRANCH  11  12
ATOM     12  O   LIG A   1      -6.151   0.093 125.600  0.00  0.00    -0.384 OA
ATOM     13  H   LIG A   1      -5.778  -0.175 124.740  0.00  0.00    +0.210 HD
ENDBRANCH  11  12
BRANCH  11  14
ATOM     14  C   LIG A   1      -8.258   1.344 125.816  0.00  0.00    +0.178 C 
BRANCH  14  15
ATOM     15  C   LIG A   1      -8.880   2.124 124.616  0.00  0.00    +0.089 C 
ATOM     16  C   LIG A   1      -7.965   2.182 123.395  0.00  0.00    +0.044 C 
ATOM     17  C   LIG A   1     -10.210   1.452 124.222  0.00  0.00    +0.044 C 
BRANCH  15  18
ATOM     18  O   LIG A   1      -9.215   3.471 124.981  0.00  0.00    -0.387 OA
ATOM     19  H   LIG A   1      -9.588   3.437 125.888  0.00  0.00    +0.210 HD
ENDBRANCH  15  18
ENDBRANCH  14  15
BRANCH  14  20
ATOM     20  O   LIG A   1      -9.239   1.158 126.849  0.00  0.00    -0.386 OA
ATOM     21  H   LIG A   1      -9.544   2.051 127.091  0.00  0.00    +0.210 HD
ENDBRANCH  14  20
ENDBRANCH  11  14
ENDBRANCH   1  11
BRANCH   5  22
ATOM     22  C   LIG A   1      -7.603  -2.813 129.804  0.00  0.00    +0.050 C 
BRANCH  22  23
ATOM     23  C   LIG A   1      -6.516  -3.875 129.913  0.00  0.00    +0.125 C 
BRANCH  23  24
ATOM     24  C   LIG A   1      -5.150  -3.246 129.764  0.00  0.00    +0.305 C 
ATOM     25  O   LIG A   1      -4.149  -3.754 129.321  0.00  0.00    -0.251 OA
BRANCH  24  26
ATOM     26  O   LIG A   1      -5.139  -1.970 130.201  0.00  0.00    -0.481 OA
ATOM     27  H   LIG A   1      -4.279  -1.618 129.868  0.00  0.00    +0.295 HD
ENDBRANCH  24  26
ENDBRANCH  23  24
ENDBRANCH  22  23
ENDBRANCH   5  22
TORSDOF 12
ENDMDL
MODEL 9
REMARK VINA RESULT:      -5.7      4.731      7.048
REMARK  Name = NuBBE_1082
REMARK  15 active torsions:
REMARK  status: ('A' for Active; 'I' for Inactive)
REMARK    1  A    between atoms: O_1  and  C_2
REMARK    2  A    between atoms: C_2  and  C_4
REMARK    3  A    between atoms: C_2  and  C_21
REMARK    4  A    between atoms: C_4  and  C_6
REMARK    5  A    between atoms: C_4  and  O_20
REMARK    6  A    between atoms: C_7  and  O_8
REMARK    7  A    between atoms: O_8  and  C_9
REMARK    8  A    between atoms: C_12  and  C_13
REMARK    9  A    between atoms: C_13  and  C_14
REMARK   10  A    between atoms: C_14  and  C_15
REMARK   11  A    between atoms: C_15  and  O_16
REMARK   12  A    between atoms: C_18  and  O_19
REMARK   13  A    between atoms: C_21  and  C_22
REMARK   14  A    between atoms: C_21  and  C_23
REMARK   15  A    between atoms: C_21  and  O_24
REMARK                            x       y       z     vdW  Elec       q    Type
REMARK                         _______ _______ _______ _____ _____    ______ ____
ROOT
ATOM      1  C   LIG A   1      -9.053   4.615 129.719  0.00  0.00    +0.067 A 
ATOM      2  C   LIG A   1      -9.202   3.766 130.838  0.00  0.00    +0.129 A 
ATOM      3  C   LIG A   1      -8.901   2.405 130.745  0.00  0.00    +0.046 A 
ATOM      4  C   LIG A   1      -8.391   1.872 129.568  0.00  0.00    +0.011 A 
ATOM      5  C   LIG A   1      -8.156   2.686 128.455  0.00  0.00    -0.005 A 
ATOM      6  C   LIG A   1      -8.497   4.050 128.543  0.00  0.00    +0.129 A 
ENDROOT
BRANCH   2   7
ATOM      7  O   LIG A   1      -9.729   4.295 131.980  0.00  0.00    -0.495 OA
ATOM      8  C   LIG A   1      -9.220   3.822 133.220  0.00  0.00    +0.277 C 
ENDBRANCH   2   7
BRANCH   6   9
ATOM      9  O   LIG A   1      -8.288   4.895 127.484  0.00  0.00    -0.506 OA
ATOM     10  H   LIG A   1      -7.594   4.546 126.903  0.00  0.00    +0.292 HD
ENDBRANCH   6   9
BRANCH   1  11
ATOM     11  C   LIG A   1      -9.430   6.110 129.746  0.00  0.00    +0.183 C 
BRANCH  11  12
ATOM     12  O   LIG A   1      -8.985   6.686 130.986  0.00  0.00    -0.384 OA
ATOM     13  H   LIG A   1      -9.382   7.575 131.033  0.00  0.00    +0.210 HD
ENDBRANCH  11  12
BRANCH  11  14
ATOM     14  C   LIG A   1     -10.933   6.464 129.500  0.00  0.00    +0.178 C 
BRANCH  14  15
ATOM     15  C   LIG A   1     -11.262   7.183 128.155  0.00  0.00    +0.089 C 
ATOM     16  C   LIG A   1     -12.761   7.323 127.897  0.00  0.00    +0.044 C 
ATOM     17  C   LIG A   1     -10.618   8.583 128.169  0.00  0.00    +0.044 C 
BRANCH  15  18
ATOM     18  O   LIG A   1     -10.684   6.496 127.035  0.00  0.00    -0.387 OA
ATOM     19  H   LIG A   1     -11.262   5.728 126.841  0.00  0.00    +0.210 HD
ENDBRANCH  15  18
ENDBRANCH  14  15
BRANCH  14  20
ATOM     20  O   LIG A   1     -11.742   5.285 129.642  0.00  0.00    -0.386 OA
ATOM     21  H   LIG A   1     -12.383   5.485 130.348  0.00  0.00    +0.210 HD
ENDBRANCH  14  20
ENDBRANCH  11  14
ENDBRANCH   1  11
BRANCH   5  22
ATOM     22  C   LIG A   1      -7.555   2.025 127.233  0.00  0.00    +0.050 C 
BRANCH  22  23
ATOM     23  C   LIG A   1      -8.618   1.525 126.263  0.00  0.00    +0.125 C 
BRANCH  23  24
ATOM     24  C   LIG A   1      -8.550   2.295 124.964  0.00  0.00    +0.305 C 
ATOM     25  O   LIG A   1      -8.042   1.948 123.927  0.00  0.00    -0.251 OA
BRANCH  24  26
ATOM     26  O   LIG A   1      -9.152   3.498 125.068  0.00  0.00    -0.481 OA
ATOM     27  H   LIG A   1      -9.781   3.509 124.308  0.00  0.00    +0.295 HD
ENDBRANCH  24  26
ENDBRANCH  23  24
ENDBRANCH  22  23
ENDBRANCH   5  22
TORSDOF 12
ENDMDL
