MODEL 1
REMARK VINA RESULT:      -6.7      0.000      0.000
REMARK  Name = NuBBE_1879
REMARK  16 active torsions:
REMARK  status: ('A' for Active; 'I' for Inactive)
REMARK    1  A    between atoms: C_4  and  O_30
REMARK    2  A    between atoms: C_5  and  O_6
REMARK    3  A    between atoms: O_6  and  C_7
REMARK    4  A    between atoms: C_8  and  O_28
REMARK    5  A    between atoms: C_12  and  C_13
REMARK    6  A    between atoms: C_16  and  O_23
REMARK    7  A    between atoms: C_17  and  O_18
REMARK    8  A    between atoms: O_18  and  C_19
REMARK    9  A    between atoms: C_20  and  O_21
REMARK   10  A    between atoms: O_21  and  C_22
REMARK   11  A    between atoms: O_23  and  C_24
REMARK   12  A    between atoms: C_25  and  O_26
REMARK   13  A    between atoms: O_26  and  C_27
REMARK   14  A    between atoms: O_28  and  C_29
REMARK   15  A    between atoms: O_30  and  C_31
REMARK   16  A    between atoms: C_31  and  C_32
REMARK                            x       y       z     vdW  Elec       q    Type
REMARK                         _______ _______ _______ _____ _____    ______ ____
ROOT
ATOM      1  O   LIG A   1      -7.967  -2.362 126.153  0.00  0.00    -0.283 OA
ATOM      2  C   LIG A   1      -7.882  -1.120 126.107  0.00  0.00    +0.238 A 
ATOM      3  C   LIG A   1      -7.935  -0.347 127.334  0.00  0.00    +0.114 A 
ATOM      4  C   LIG A   1      -7.505  -0.757 128.613  0.00  0.00    +0.191 A 
ATOM      5  C   LIG A   1      -7.598   0.117 129.711  0.00  0.00    +0.205 A 
ATOM      6  C   LIG A   1      -8.179   1.391 129.548  0.00  0.00    +0.169 A 
ATOM      7  C   LIG A   1      -8.599   1.791 128.282  0.00  0.00    +0.096 A 
ATOM      8  C   LIG A   1      -8.458   0.943 127.196  0.00  0.00    +0.147 A 
ATOM      9  O   LIG A   1      -8.816   1.458 125.985  0.00  0.00    -0.451 OA
ATOM     10  C   LIG A   1      -8.208   0.922 124.875  0.00  0.00    +0.184 A 
ATOM     11  C   LIG A   1      -7.752  -0.332 124.840  0.00  0.00    +0.211 A 
ENDROOT
BRANCH  10  12
ATOM     12  C   LIG A   1      -8.118   1.900 123.784  0.00  0.00    +0.067 A 
ATOM     13  C   LIG A   1      -9.157   1.899 122.838  0.00  0.00    +0.019 A 
ATOM     14  C   LIG A   1      -9.077   2.713 121.713  0.00  0.00    +0.050 A 
ATOM     15  C   LIG A   1      -7.925   3.476 121.476  0.00  0.00    +0.165 A 
ATOM     16  C   LIG A   1      -6.863   3.478 122.412  0.00  0.00    +0.204 A 
ATOM     17  C   LIG A   1      -6.987   2.730 123.603  0.00  0.00    +0.176 A 
BRANCH  16  18
ATOM     18  O   LIG A   1      -5.816   4.319 122.146  0.00  0.00    -0.488 OA
ATOM     19  C   LIG A   1      -4.850   3.917 121.181  0.00  0.00    +0.277 C 
ENDBRANCH  16  18
BRANCH  17  20
ATOM     20  O   LIG A   1      -6.071   2.667 124.624  0.00  0.00    -0.491 OA
ATOM     21  C   LIG A   1      -5.959   3.775 125.509  0.00  0.00    +0.277 C 
ENDBRANCH  17  20
BRANCH  15  22
ATOM     22  O   LIG A   1      -7.982   4.188 120.296  0.00  0.00    -0.491 OA
ATOM     23  C   LIG A   1      -9.213   4.133 119.583  0.00  0.00    +0.277 C 
ENDBRANCH  15  22
ENDBRANCH  10  12
BRANCH   5  24
ATOM     24  O   LIG A   1      -6.983  -0.262 130.884  0.00  0.00    -0.488 OA
ATOM     25  C   LIG A   1      -7.869  -0.740 131.900  0.00  0.00    +0.277 C 
ENDBRANCH   5  24
BRANCH  11  26
ATOM     26  O   LIG A   1      -7.105  -0.830 123.684  0.00  0.00    -0.488 OA
ATOM     27  C   LIG A   1      -7.890  -1.706 122.879  0.00  0.00    +0.277 C 
ENDBRANCH  11  26
BRANCH   6  28
ATOM     28  O   LIG A   1      -8.204   2.241 130.621  0.00  0.00    -0.491 OA
ATOM     29  C   LIG A   1      -9.471   2.821 130.911  0.00  0.00    +0.277 C 
ENDBRANCH   6  28
BRANCH   4  30
ATOM     30  O   LIG A   1      -6.780  -1.972 128.719  0.00  0.00    -0.421 OA
BRANCH  30  31
ATOM     31  C   LIG A   1      -7.409  -3.082 129.291  0.00  0.00    +0.309 C 
ATOM     32  C   LIG A   1      -6.397  -3.899 130.041  0.00  0.00    +0.136 C 
ATOM     33  O   LIG A   1      -8.594  -3.380 129.204  0.00  0.00    -0.251 OA
ENDBRANCH  30  31
ENDBRANCH   4  30
TORSDOF 9
ENDMDL
MODEL 2
REMARK VINA RESULT:      -6.7      6.010      8.137
REMARK  Name = NuBBE_1879
REMARK  16 active torsions:
REMARK  status: ('A' for Active; 'I' for Inactive)
REMARK    1  A    between atoms: C_4  and  O_30
REMARK    2  A    between atoms: C_5  and  O_6
REMARK    3  A    between atoms: O_6  and  C_7
REMARK    4  A    between atoms: C_8  and  O_28
REMARK    5  A    between atoms: C_12  and  C_13
REMARK    6  A    between atoms: C_16  and  O_23
REMARK    7  A    between atoms: C_17  and  O_18
REMARK    8  A    between atoms: O_18  and  C_19
REMARK    9  A    between atoms: C_20  and  O_21
REMARK   10  A    between atoms: O_21  and  C_22
REMARK   11  A    between atoms: O_23  and  C_24
REMARK   12  A    between atoms: C_25  and  O_26
REMARK   13  A    between atoms: O_26  and  C_27
REMARK   14  A    between atoms: O_28  and  C_29
REMARK   15  A    between atoms: O_30  and  C_31
REMARK   16  A    between atoms: C_31  and  C_32
REMARK                            x       y       z     vdW  Elec       q    Type
REMARK                         _______ _______ _______ _____ _____    ______ ____
ROOT
ATOM      1  O   LIG A   1      -9.092   1.612 132.409  0.00  0.00    -0.283 OA
ATOM      2  C   LIG A   1      -8.978   2.852 132.442  0.00  0.00    +0.238 A 
ATOM      3  C   LIG A   1      -8.092   3.470 133.412  0.00  0.00    +0.114 A 
ATOM      4  C   LIG A   1      -6.914   2.918 133.953  0.00  0.00    +0.191 A 
ATOM      5  C   LIG A   1      -6.140   3.651 134.872  0.00  0.00    +0.205 A 
ATOM      6  C   LIG A   1      -6.574   4.921 135.302  0.00  0.00    +0.169 A 
ATOM      7  C   LIG A   1      -7.738   5.461 134.761  0.00  0.00    +0.096 A 
ATOM      8  C   LIG A   1      -8.468   4.754 133.819  0.00  0.00    +0.147 A 
ATOM      9  O   LIG A   1      -9.542   5.404 133.284  0.00  0.00    -0.451 OA
ATOM     10  C   LIG A   1      -9.938   5.020 132.026  0.00  0.00    +0.184 A 
ATOM     11  C   LIG A   1      -9.729   3.791 131.549  0.00  0.00    +0.211 A 
ENDROOT
BRANCH  10  12
ATOM     12  C   LIG A   1     -10.580   6.125 131.302  0.00  0.00    +0.067 A 
ATOM     13  C   LIG A   1     -11.906   6.431 131.649  0.00  0.00    +0.019 A 
ATOM     14  C   LIG A   1     -12.615   7.383 130.925  0.00  0.00    +0.050 A 
ATOM     15  C   LIG A   1     -12.040   7.981 129.795  0.00  0.00    +0.165 A 
ATOM     16  C   LIG A   1     -10.708   7.674 129.422  0.00  0.00    +0.204 A 
ATOM     17  C   LIG A   1      -9.954   6.783 130.217  0.00  0.00    +0.176 A 
BRANCH  16  18
ATOM     18  O   LIG A   1     -10.196   8.369 128.360  0.00  0.00    -0.488 OA
ATOM     19  C   LIG A   1     -10.553   7.960 127.044  0.00  0.00    +0.277 C 
ENDBRANCH  16  18
BRANCH  17  20
ATOM     20  O   LIG A   1      -8.645   6.423 130.017  0.00  0.00    -0.491 OA
ATOM     21  C   LIG A   1      -7.639   7.035 130.815  0.00  0.00    +0.277 C 
ENDBRANCH  17  20
BRANCH  15  22
ATOM     22  O   LIG A   1     -12.888   8.862 129.158  0.00  0.00    -0.491 OA
ATOM     23  C   LIG A   1     -13.090  10.119 129.798  0.00  0.00    +0.277 C 
ENDBRANCH  15  22
ENDBRANCH  10  12
BRANCH   5  24
ATOM     24  O   LIG A   1      -4.903   3.147 135.212  0.00  0.00    -0.488 OA
ATOM     25  C   LIG A   1      -3.798   3.781 134.563  0.00  0.00    +0.277 C 
ENDBRANCH   5  24
BRANCH  11  26
ATOM     26  O   LIG A   1     -10.129   3.452 130.234  0.00  0.00    -0.488 OA
ATOM     27  C   LIG A   1      -9.087   2.974 129.388  0.00  0.00    +0.277 C 
ENDBRANCH  11  26
BRANCH   6  28
ATOM     28  O   LIG A   1      -5.772   5.634 136.152  0.00  0.00    -0.491 OA
ATOM     29  C   LIG A   1      -6.209   5.683 137.506  0.00  0.00    +0.277 C 
ENDBRANCH   6  28
BRANCH   4  30
ATOM     30  O   LIG A   1      -6.414   1.716 133.388  0.00  0.00    -0.421 OA
BRANCH  30  31
ATOM     31  C   LIG A   1      -5.565   1.798 132.281  0.00  0.00    +0.309 C 
ATOM     32  C   LIG A   1      -4.474   0.773 132.410  0.00  0.00    +0.136 C 
ATOM     33  O   LIG A   1      -5.656   2.579 131.342  0.00  0.00    -0.251 OA
ENDBRANCH  30  31
ENDBRANCH   4  30
TORSDOF 9
ENDMDL
MODEL 3
REMARK VINA RESULT:      -6.7      3.176      7.012
REMARK  Name = NuBBE_1879
REMARK  16 active torsions:
REMARK  status: ('A' for Active; 'I' for Inactive)
REMARK    1  A    between atoms: C_4  and  O_30
REMARK    2  A    between atoms: C_5  and  O_6
REMARK    3  A    between atoms: O_6  and  C_7
REMARK    4  A    between atoms: C_8  and  O_28
REMARK    5  A    between atoms: C_12  and  C_13
REMARK    6  A    between atoms: C_16  and  O_23
REMARK    7  A    between atoms: C_17  and  O_18
REMARK    8  A    between atoms: O_18  and  C_19
REMARK    9  A    between atoms: C_20  and  O_21
REMARK   10  A    between atoms: O_21  and  C_22
REMARK   11  A    between atoms: O_23  and  C_24
REMARK   12  A    between atoms: C_25  and  O_26
REMARK   13  A    between atoms: O_26  and  C_27
REMARK   14  A    between atoms: O_28  and  C_29
REMARK   15  A    between atoms: O_30  and  C_31
REMARK   16  A    between atoms: C_31  and  C_32
REMARK                            x       y       z     vdW  Elec       q    Type
REMARK                         _______ _______ _______ _____ _____    ______ ____
ROOT
ATOM      1  O   LIG A   1      -5.515  -0.639 125.668  0.00  0.00    -0.283 OA
ATOM      2  C   LIG A   1      -5.706   0.591 125.710  0.00  0.00    +0.238 A 
ATOM      3  C   LIG A   1      -6.579   1.220 124.736  0.00  0.00    +0.114 A 
ATOM      4  C   LIG A   1      -7.690   0.636 124.094  0.00  0.00    +0.191 A 
ATOM      5  C   LIG A   1      -8.461   1.383 123.183  0.00  0.00    +0.205 A 
ATOM      6  C   LIG A   1      -8.087   2.704 122.863  0.00  0.00    +0.169 A 
ATOM      7  C   LIG A   1      -6.990   3.275 123.503  0.00  0.00    +0.096 A 
ATOM      8  C   LIG A   1      -6.266   2.550 124.436  0.00  0.00    +0.147 A 
ATOM      9  O   LIG A   1      -5.265   3.224 125.071  0.00  0.00    -0.451 OA
ATOM     10  C   LIG A   1      -4.910   2.779 126.322  0.00  0.00    +0.184 A 
ATOM     11  C   LIG A   1      -5.064   1.509 126.704  0.00  0.00    +0.211 A 
ENDROOT
BRANCH  10  12
ATOM     12  C   LIG A   1      -4.379   3.868 127.151  0.00  0.00    +0.067 A 
ATOM     13  C   LIG A   1      -2.982   3.955 127.274  0.00  0.00    +0.019 A 
ATOM     14  C   LIG A   1      -2.414   4.884 128.138  0.00  0.00    +0.050 A 
ATOM     15  C   LIG A   1      -3.231   5.681 128.952  0.00  0.00    +0.165 A 
ATOM     16  C   LIG A   1      -4.641   5.597 128.852  0.00  0.00    +0.204 A 
ATOM     17  C   LIG A   1      -5.217   4.726 127.902  0.00  0.00    +0.176 A 
BRANCH  16  18
ATOM     18  O   LIG A   1      -5.361   6.474 129.618  0.00  0.00    -0.488 OA
ATOM     19  C   LIG A   1      -5.741   6.075 130.931  0.00  0.00    +0.277 C 
ENDBRANCH  16  18
BRANCH  17  20
ATOM     20  O   LIG A   1      -6.557   4.566 127.652  0.00  0.00    -0.491 OA
ATOM     21  C   LIG A   1      -7.356   3.893 128.618  0.00  0.00    +0.277 C 
ENDBRANCH  17  20
BRANCH  15  22
ATOM     22  O   LIG A   1      -2.515   6.513 129.787  0.00  0.00    -0.491 OA
ATOM     23  C   LIG A   1      -2.065   5.944 131.012  0.00  0.00    +0.277 C 
ENDBRANCH  15  22
ENDBRANCH  10  12
BRANCH   5  24
ATOM     24  O   LIG A   1      -9.643   0.830 122.743  0.00  0.00    -0.488 OA
ATOM     25  C   LIG A   1     -10.787   1.144 123.541  0.00  0.00    +0.277 C 
ENDBRANCH   5  24
BRANCH  11  26
ATOM     26  O   LIG A   1      -4.712   1.105 128.014  0.00  0.00    -0.488 OA
ATOM     27  C   LIG A   1      -5.799   0.673 128.828  0.00  0.00    +0.277 C 
ENDBRANCH  11  26
BRANCH   6  28
ATOM     28  O   LIG A   1      -8.888   3.424 122.018  0.00  0.00    -0.491 OA
ATOM     29  C   LIG A   1      -8.293   3.792 120.779  0.00  0.00    +0.277 C 
ENDBRANCH   6  28
BRANCH   4  30
ATOM     30  O   LIG A   1      -8.140  -0.629 124.550  0.00  0.00    -0.421 OA
BRANCH  30  31
ATOM     31  C   LIG A   1      -7.948  -1.746 123.731  0.00  0.00    +0.309 C 
ATOM     32  C   LIG A   1      -9.021  -2.759 124.006  0.00  0.00    +0.136 C 
ATOM     33  O   LIG A   1      -7.049  -1.912 122.916  0.00  0.00    -0.251 OA
ENDBRANCH  30  31
ENDBRANCH   4  30
TORSDOF 9
ENDMDL
MODEL 4
REMARK VINA RESULT:      -6.6      2.676      6.551
REMARK  Name = NuBBE_1879
REMARK  16 active torsions:
REMARK  status: ('A' for Active; 'I' for Inactive)
REMARK    1  A    between atoms: C_4  and  O_30
REMARK    2  A    between atoms: C_5  and  O_6
REMARK    3  A    between atoms: O_6  and  C_7
REMARK    4  A    between atoms: C_8  and  O_28
REMARK    5  A    between atoms: C_12  and  C_13
REMARK    6  A    between atoms: C_16  and  O_23
REMARK    7  A    between atoms: C_17  and  O_18
REMARK    8  A    between atoms: O_18  and  C_19
REMARK    9  A    between atoms: C_20  and  O_21
REMARK   10  A    between atoms: O_21  and  C_22
REMARK   11  A    between atoms: O_23  and  C_24
REMARK   12  A    between atoms: C_25  and  O_26
REMARK   13  A    between atoms: O_26  and  C_27
REMARK   14  A    between atoms: O_28  and  C_29
REMARK   15  A    between atoms: O_30  and  C_31
REMARK   16  A    between atoms: C_31  and  C_32
REMARK                            x       y       z     vdW  Elec       q    Type
REMARK                         _______ _______ _______ _____ _____    ______ ____
ROOT
ATOM      1  O   LIG A   1      -6.128  -0.877 128.239  0.00  0.00    -0.283 OA
ATOM      2  C   LIG A   1      -7.078  -0.082 128.111  0.00  0.00    +0.238 A 
ATOM      3  C   LIG A   1      -7.890  -0.114 126.908  0.00  0.00    +0.114 A 
ATOM      4  C   LIG A   1      -8.160  -1.237 126.100  0.00  0.00    +0.191 A 
ATOM      5  C   LIG A   1      -8.990  -1.119 124.970  0.00  0.00    +0.205 A 
ATOM      6  C   LIG A   1      -9.507   0.141 124.606  0.00  0.00    +0.169 A 
ATOM      7  C   LIG A   1      -9.237   1.245 125.409  0.00  0.00    +0.096 A 
ATOM      8  C   LIG A   1      -8.461   1.111 126.549  0.00  0.00    +0.147 A 
ATOM      9  O   LIG A   1      -8.327   2.230 127.317  0.00  0.00    -0.451 OA
ATOM     10  C   LIG A   1      -8.073   2.041 128.654  0.00  0.00    +0.184 A 
ATOM     11  C   LIG A   1      -7.445   0.960 129.122  0.00  0.00    +0.211 A 
ENDROOT
BRANCH  10  12
ATOM     12  C   LIG A   1      -8.594   3.151 129.463  0.00  0.00    +0.067 A 
ATOM     13  C   LIG A   1      -9.855   2.973 130.055  0.00  0.00    +0.019 A 
ATOM     14  C   LIG A   1     -10.462   4.024 130.734  0.00  0.00    +0.050 A 
ATOM     15  C   LIG A   1      -9.857   5.289 130.760  0.00  0.00    +0.165 A 
ATOM     16  C   LIG A   1      -8.591   5.489 130.157  0.00  0.00    +0.204 A 
ATOM     17  C   LIG A   1      -7.929   4.396 129.555  0.00  0.00    +0.176 A 
BRANCH  16  18
ATOM     18  O   LIG A   1      -8.033   6.730 130.306  0.00  0.00    -0.488 OA
ATOM     19  C   LIG A   1      -7.064   6.920 131.332  0.00  0.00    +0.277 C 
ENDBRANCH  16  18
BRANCH  17  20
ATOM     20  O   LIG A   1      -6.686   4.418 128.974  0.00  0.00    -0.491 OA
ATOM     21  C   LIG A   1      -5.548   4.156 129.786  0.00  0.00    +0.277 C 
ENDBRANCH  17  20
BRANCH  15  22
ATOM     22  O   LIG A   1     -10.607   6.233 131.428  0.00  0.00    -0.491 OA
ATOM     23  C   LIG A   1     -11.945   6.414 130.976  0.00  0.00    +0.277 C 
ENDBRANCH  15  22
ENDBRANCH  10  12
BRANCH   5  24
ATOM     24  O   LIG A   1      -9.380  -2.280 124.338  0.00  0.00    -0.488 OA
ATOM     25  C   LIG A   1      -8.572  -2.656 123.220  0.00  0.00    +0.277 C 
ENDBRANCH   5  24
BRANCH  11  26
ATOM     26  O   LIG A   1      -7.234   0.796 130.512  0.00  0.00    -0.488 OA
ATOM     27  C   LIG A   1      -8.069  -0.172 131.142  0.00  0.00    +0.277 C 
ENDBRANCH  11  26
BRANCH   6  28
ATOM     28  O   LIG A   1     -10.357   0.215 123.535  0.00  0.00    -0.491 OA
ATOM     29  C   LIG A   1      -9.965   1.117 122.506  0.00  0.00    +0.277 C 
ENDBRANCH   6  28
BRANCH   4  30
ATOM     30  O   LIG A   1      -7.767  -2.516 126.573  0.00  0.00    -0.421 OA
BRANCH  30  31
ATOM     31  C   LIG A   1      -8.665  -3.249 127.354  0.00  0.00    +0.309 C 
ATOM     32  C   LIG A   1      -8.076  -3.472 128.718  0.00  0.00    +0.136 C 
ATOM     33  O   LIG A   1      -9.762  -3.672 127.010  0.00  0.00    -0.251 OA
ENDBRANCH  30  31
ENDBRANCH   4  30
TORSDOF 9
ENDMDL
MODEL 5
REMARK VINA RESULT:      -6.6      2.476      8.095
REMARK  Name = NuBBE_1879
REMARK  16 active torsions:
REMARK  status: ('A' for Active; 'I' for Inactive)
REMARK    1  A    between atoms: C_4  and  O_30
REMARK    2  A    between atoms: C_5  and  O_6
REMARK    3  A    between atoms: O_6  and  C_7
REMARK    4  A    between atoms: C_8  and  O_28
REMARK    5  A    between atoms: C_12  and  C_13
REMARK    6  A    between atoms: C_16  and  O_23
REMARK    7  A    between atoms: C_17  and  O_18
REMARK    8  A    between atoms: O_18  and  C_19
REMARK    9  A    between atoms: C_20  and  O_21
REMARK   10  A    between atoms: O_21  and  C_22
REMARK   11  A    between atoms: O_23  and  C_24
REMARK   12  A    between atoms: C_25  and  O_26
REMARK   13  A    between atoms: O_26  and  C_27
REMARK   14  A    between atoms: O_28  and  C_29
REMARK   15  A    between atoms: O_30  and  C_31
REMARK   16  A    between atoms: C_31  and  C_32
REMARK                            x       y       z     vdW  Elec       q    Type
REMARK                         _______ _______ _______ _____ _____    ______ ____
ROOT
ATOM      1  O   LIG A   1      -7.373   4.411 124.950  0.00  0.00    -0.283 OA
ATOM      2  C   LIG A   1      -7.537   3.525 125.810  0.00  0.00    +0.238 A 
ATOM      3  C   LIG A   1      -7.982   2.203 125.408  0.00  0.00    +0.114 A 
ATOM      4  C   LIG A   1      -7.731   1.563 124.177  0.00  0.00    +0.191 A 
ATOM      5  C   LIG A   1      -8.210   0.262 123.939  0.00  0.00    +0.205 A 
ATOM      6  C   LIG A   1      -8.998  -0.386 124.911  0.00  0.00    +0.169 A 
ATOM      7  C   LIG A   1      -9.241   0.251 126.126  0.00  0.00    +0.096 A 
ATOM      8  C   LIG A   1      -8.723   1.512 126.373  0.00  0.00    +0.147 A 
ATOM      9  O   LIG A   1      -8.940   2.014 127.622  0.00  0.00    -0.451 OA
ATOM     10  C   LIG A   1      -8.034   2.934 128.090  0.00  0.00    +0.184 A 
ATOM     11  C   LIG A   1      -7.331   3.729 127.279  0.00  0.00    +0.211 A 
ENDROOT
BRANCH  10  12
ATOM     12  C   LIG A   1      -7.939   2.902 129.555  0.00  0.00    +0.067 A 
ATOM     13  C   LIG A   1      -7.001   2.019 130.115  0.00  0.00    +0.019 A 
ATOM     14  C   LIG A   1      -6.941   1.848 131.494  0.00  0.00    +0.050 A 
ATOM     15  C   LIG A   1      -7.869   2.490 132.325  0.00  0.00    +0.165 A 
ATOM     16  C   LIG A   1      -8.831   3.373 131.776  0.00  0.00    +0.204 A 
ATOM     17  C   LIG A   1      -8.826   3.625 130.386  0.00  0.00    +0.176 A 
BRANCH  16  18
ATOM     18  O   LIG A   1      -9.640   4.026 132.666  0.00  0.00    -0.488 OA
ATOM     19  C   LIG A   1      -9.198   5.270 133.199  0.00  0.00    +0.277 C 
ENDBRANCH  16  18
BRANCH  17  20
ATOM     20  O   LIG A   1      -9.658   4.485 129.713  0.00  0.00    -0.491 OA
ATOM     21  C   LIG A   1      -9.318   5.865 129.664  0.00  0.00    +0.277 C 
ENDBRANCH  17  20
BRANCH  15  22
ATOM     22  O   LIG A   1      -7.709   2.178 133.659  0.00  0.00    -0.491 OA
ATOM     23  C   LIG A   1      -6.403   1.775 134.061  0.00  0.00    +0.277 C 
ENDBRANCH  15  22
ENDBRANCH  10  12
BRANCH   5  24
ATOM     24  O   LIG A   1      -7.767  -0.386 122.807  0.00  0.00    -0.488 OA
ATOM     25  C   LIG A   1      -6.606  -1.199 122.995  0.00  0.00    +0.277 C 
ENDBRANCH   5  24
BRANCH  11  26
ATOM     26  O   LIG A   1      -6.386   4.641 127.807  0.00  0.00    -0.488 OA
ATOM     27  C   LIG A   1      -5.021   4.278 127.617  0.00  0.00    +0.277 C 
ENDBRANCH  11  26
BRANCH   6  28
ATOM     28  O   LIG A   1      -9.403  -1.672 124.675  0.00  0.00    -0.491 OA
ATOM     29  C   LIG A   1      -9.145  -2.597 125.726  0.00  0.00    +0.277 C 
ENDBRANCH   6  28
BRANCH   4  30
ATOM     30  O   LIG A   1      -6.806   2.164 123.285  0.00  0.00    -0.421 OA
BRANCH  30  31
ATOM     31  C   LIG A   1      -7.297   2.908 122.209  0.00  0.00    +0.309 C 
ATOM     32  C   LIG A   1      -6.153   3.350 121.342  0.00  0.00    +0.136 C 
ATOM     33  O   LIG A   1      -8.468   3.189 121.984  0.00  0.00    -0.251 OA
ENDBRANCH  30  31
ENDBRANCH   4  30
TORSDOF 9
ENDMDL
MODEL 6
REMARK VINA RESULT:      -6.5      2.028      7.984
REMARK  Name = NuBBE_1879
REMARK  16 active torsions:
REMARK  status: ('A' for Active; 'I' for Inactive)
REMARK    1  A    between atoms: C_4  and  O_30
REMARK    2  A    between atoms: C_5  and  O_6
REMARK    3  A    between atoms: O_6  and  C_7
REMARK    4  A    between atoms: C_8  and  O_28
REMARK    5  A    between atoms: C_12  and  C_13
REMARK    6  A    between atoms: C_16  and  O_23
REMARK    7  A    between atoms: C_17  and  O_18
REMARK    8  A    between atoms: O_18  and  C_19
REMARK    9  A    between atoms: C_20  and  O_21
REMARK   10  A    between atoms: O_21  and  C_22
REMARK   11  A    between atoms: O_23  and  C_24
REMARK   12  A    between atoms: C_25  and  O_26
REMARK   13  A    between atoms: O_26  and  C_27
REMARK   14  A    between atoms: O_28  and  C_29
REMARK   15  A    between atoms: O_30  and  C_31
REMARK   16  A    between atoms: C_31  and  C_32
REMARK                            x       y       z     vdW  Elec       q    Type
REMARK                         _______ _______ _______ _____ _____    ______ ____
ROOT
ATOM      1  O   LIG A   1      -7.088  -2.127 123.845  0.00  0.00    -0.283 OA
ATOM      2  C   LIG A   1      -6.832  -1.580 124.934  0.00  0.00    +0.238 A 
ATOM      3  C   LIG A   1      -6.543  -0.159 124.979  0.00  0.00    +0.114 A 
ATOM      4  C   LIG A   1      -7.038   0.833 124.109  0.00  0.00    +0.191 A 
ATOM      5  C   LIG A   1      -6.686   2.183 124.292  0.00  0.00    +0.205 A 
ATOM      6  C   LIG A   1      -5.783   2.542 125.314  0.00  0.00    +0.169 A 
ATOM      7  C   LIG A   1      -5.299   1.557 126.171  0.00  0.00    +0.096 A 
ATOM      8  C   LIG A   1      -5.691   0.237 126.016  0.00  0.00    +0.147 A 
ATOM      9  O   LIG A   1      -5.233  -0.638 126.957  0.00  0.00    -0.451 OA
ATOM     10  C   LIG A   1      -5.989  -1.762 127.182  0.00  0.00    +0.184 A 
ATOM     11  C   LIG A   1      -6.771  -2.303 126.245  0.00  0.00    +0.211 A 
ENDROOT
BRANCH  10  12
ATOM     12  C   LIG A   1      -5.834  -2.250 128.558  0.00  0.00    +0.067 A 
ATOM     13  C   LIG A   1      -4.750  -3.107 128.814  0.00  0.00    +0.019 A 
ATOM     14  C   LIG A   1      -4.610  -3.702 130.063  0.00  0.00    +0.050 A 
ATOM     15  C   LIG A   1      -5.594  -3.518 131.045  0.00  0.00    +0.165 A 
ATOM     16  C   LIG A   1      -6.701  -2.669 130.800  0.00  0.00    +0.204 A 
ATOM     17  C   LIG A   1      -6.789  -1.984 129.568  0.00  0.00    +0.176 A 
BRANCH  16  18
ATOM     18  O   LIG A   1      -7.565  -2.474 131.843  0.00  0.00    -0.488 OA
ATOM     19  C   LIG A   1      -7.283  -1.435 132.774  0.00  0.00    +0.277 C 
ENDBRANCH  16  18
BRANCH  17  20
ATOM     20  O   LIG A   1      -7.769  -1.096 129.199  0.00  0.00    -0.491 OA
ATOM     21  C   LIG A   1      -7.612   0.275 129.544  0.00  0.00    +0.277 C 
ENDBRANCH  17  20
BRANCH  15  22
ATOM     22  O   LIG A   1      -5.335  -4.214 132.207  0.00  0.00    -0.491 OA
ATOM     23  C   LIG A   1      -4.094  -3.935 132.848  0.00  0.00    +0.277 C 
ENDBRANCH  15  22
ENDBRANCH  10  12
BRANCH   5  24
ATOM     24  O   LIG A   1      -7.354   3.127 123.542  0.00  0.00    -0.488 OA
ATOM     25  C   LIG A   1      -6.745   3.438 122.287  0.00  0.00    +0.277 C 
ENDBRANCH   5  24
BRANCH  11  26
ATOM     26  O   LIG A   1      -7.556  -3.445 126.534  0.00  0.00    -0.488 OA
ATOM     27  C   LIG A   1      -8.959  -3.213 126.616  0.00  0.00    +0.277 C 
ENDBRANCH  11  26
BRANCH   6  28
ATOM     28  O   LIG A   1      -5.503   3.868 125.504  0.00  0.00    -0.491 OA
ATOM     29  C   LIG A   1      -4.974   4.204 126.782  0.00  0.00    +0.277 C 
ENDBRANCH   6  28
BRANCH   4  30
ATOM     30  O   LIG A   1      -8.065   0.475 123.197  0.00  0.00    -0.421 OA
BRANCH  30  31
ATOM     31  C   LIG A   1      -9.392   0.509 123.633  0.00  0.00    +0.309 C 
ATOM     32  C   LIG A   1     -10.298   0.759 122.461  0.00  0.00    +0.136 C 
ATOM     33  O   LIG A   1      -9.791   0.375 124.784  0.00  0.00    -0.251 OA
ENDBRANCH  30  31
ENDBRANCH   4  30
TORSDOF 9
ENDMDL
MODEL 7
REMARK VINA RESULT:      -6.4      2.079      8.009
REMARK  Name = NuBBE_1879
REMARK  16 active torsions:
REMARK  status: ('A' for Active; 'I' for Inactive)
REMARK    1  A    between atoms: C_4  and  O_30
REMARK    2  A    between atoms: C_5  and  O_6
REMARK    3  A    between atoms: O_6  and  C_7
REMARK    4  A    between atoms: C_8  and  O_28
REMARK    5  A    between atoms: C_12  and  C_13
REMARK    6  A    between atoms: C_16  and  O_23
REMARK    7  A    between atoms: C_17  and  O_18
REMARK    8  A    between atoms: O_18  and  C_19
REMARK    9  A    between atoms: C_20  and  O_21
REMARK   10  A    between atoms: O_21  and  C_22
REMARK   11  A    between atoms: O_23  and  C_24
REMARK   12  A    between atoms: C_25  and  O_26
REMARK   13  A    between atoms: O_26  and  C_27
REMARK   14  A    between atoms: O_28  and  C_29
REMARK   15  A    between atoms: O_30  and  C_31
REMARK   16  A    between atoms: C_31  and  C_32
REMARK                            x       y       z     vdW  Elec       q    Type
REMARK                         _______ _______ _______ _____ _____    ______ ____
ROOT
ATOM      1  O   LIG A   1      -7.522   4.336 125.271  0.00  0.00    -0.283 OA
ATOM      2  C   LIG A   1      -7.717   3.392 126.060  0.00  0.00    +0.238 A 
ATOM      3  C   LIG A   1      -8.078   2.084 125.548  0.00  0.00    +0.114 A 
ATOM      4  C   LIG A   1      -7.708   1.531 124.305  0.00  0.00    +0.191 A 
ATOM      5  C   LIG A   1      -8.116   0.231 123.952  0.00  0.00    +0.205 A 
ATOM      6  C   LIG A   1      -8.951  -0.503 124.819  0.00  0.00    +0.169 A 
ATOM      7  C   LIG A   1      -9.311   0.048 126.046  0.00  0.00    +0.096 A 
ATOM      8  C   LIG A   1      -8.863   1.309 126.408  0.00  0.00    +0.147 A 
ATOM      9  O   LIG A   1      -9.196   1.725 127.663  0.00  0.00    -0.451 OA
ATOM     10  C   LIG A   1      -8.364   2.645 128.255  0.00  0.00    +0.184 A 
ATOM     11  C   LIG A   1      -7.633   3.512 127.551  0.00  0.00    +0.211 A 
ENDROOT
BRANCH  10  12
ATOM     12  C   LIG A   1      -8.382   2.525 129.719  0.00  0.00    +0.067 A 
ATOM     13  C   LIG A   1      -9.348   3.275 130.410  0.00  0.00    +0.019 A 
ATOM     14  C   LIG A   1      -9.345   3.303 131.800  0.00  0.00    +0.050 A 
ATOM     15  C   LIG A   1      -8.331   2.653 132.517  0.00  0.00    +0.165 A 
ATOM     16  C   LIG A   1      -7.340   1.904 131.835  0.00  0.00    +0.204 A 
ATOM     17  C   LIG A   1      -7.402   1.791 130.429  0.00  0.00    +0.176 A 
BRANCH  16  18
ATOM     18  O   LIG A   1      -6.441   1.228 132.615  0.00  0.00    -0.488 OA
ATOM     19  C   LIG A   1      -5.171   1.823 132.858  0.00  0.00    +0.277 C 
ENDBRANCH  16  18
BRANCH  17  20
ATOM     20  O   LIG A   1      -6.550   1.067 129.633  0.00  0.00    -0.491 OA
ATOM     21  C   LIG A   1      -6.761  -0.334 129.505  0.00  0.00    +0.277 C 
ENDBRANCH  17  20
BRANCH  15  22
ATOM     22  O   LIG A   1      -8.441   2.818 133.881  0.00  0.00    -0.491 OA
ATOM     23  C   LIG A   1      -8.450   4.161 134.357  0.00  0.00    +0.277 C 
ENDBRANCH  15  22
ENDBRANCH  10  12
BRANCH   5  24
ATOM     24  O   LIG A   1      -7.562  -0.330 122.822  0.00  0.00    -0.488 OA
ATOM     25  C   LIG A   1      -6.477  -1.228 123.068  0.00  0.00    +0.277 C 
ENDBRANCH   5  24
BRANCH  11  26
ATOM     26  O   LIG A   1      -6.768   4.421 128.206  0.00  0.00    -0.488 OA
ATOM     27  C   LIG A   1      -5.380   4.117 128.104  0.00  0.00    +0.277 C 
ENDBRANCH  11  26
BRANCH   6  28
ATOM     28  O   LIG A   1      -9.285  -1.785 124.476  0.00  0.00    -0.491 OA
ATOM     29  C   LIG A   1      -9.310  -2.718 125.550  0.00  0.00    +0.277 C 
ENDBRANCH   6  28
BRANCH   4  30
ATOM     30  O   LIG A   1      -6.741   2.217 123.526  0.00  0.00    -0.421 OA
BRANCH  30  31
ATOM     31  C   LIG A   1      -7.170   2.951 122.417  0.00  0.00    +0.309 C 
ATOM     32  C   LIG A   1      -5.976   3.456 121.658  0.00  0.00    +0.136 C 
ATOM     33  O   LIG A   1      -8.329   3.181 122.092  0.00  0.00    -0.251 OA
ENDBRANCH  30  31
ENDBRANCH   4  30
TORSDOF 9
ENDMDL
MODEL 8
REMARK VINA RESULT:      -6.3      3.574      7.454
REMARK  Name = NuBBE_1879
REMARK  16 active torsions:
REMARK  status: ('A' for Active; 'I' for Inactive)
REMARK    1  A    between atoms: C_4  and  O_30
REMARK    2  A    between atoms: C_5  and  O_6
REMARK    3  A    between atoms: O_6  and  C_7
REMARK    4  A    between atoms: C_8  and  O_28
REMARK    5  A    between atoms: C_12  and  C_13
REMARK    6  A    between atoms: C_16  and  O_23
REMARK    7  A    between atoms: C_17  and  O_18
REMARK    8  A    between atoms: O_18  and  C_19
REMARK    9  A    between atoms: C_20  and  O_21
REMARK   10  A    between atoms: O_21  and  C_22
REMARK   11  A    between atoms: O_23  and  C_24
REMARK   12  A    between atoms: C_25  and  O_26
REMARK   13  A    between atoms: O_26  and  C_27
REMARK   14  A    between atoms: O_28  and  C_29
REMARK   15  A    between atoms: O_30  and  C_31
REMARK   16  A    between atoms: C_31  and  C_32
REMARK                            x       y       z     vdW  Elec       q    Type
REMARK                         _______ _______ _______ _____ _____    ______ ____
ROOT
ATOM      1  O   LIG A   1      -9.262   1.952 127.966  0.00  0.00    -0.283 OA
ATOM      2  C   LIG A   1      -8.028   1.954 127.797  0.00  0.00    +0.238 A 
ATOM      3  C   LIG A   1      -7.426   1.022 126.862  0.00  0.00    +0.114 A 
ATOM      4  C   LIG A   1      -8.016   0.494 125.695  0.00  0.00    +0.191 A 
ATOM      5  C   LIG A   1      -7.296  -0.387 124.868  0.00  0.00    +0.205 A 
ATOM      6  C   LIG A   1      -5.997  -0.794 125.236  0.00  0.00    +0.169 A 
ATOM      7  C   LIG A   1      -5.419  -0.266 126.388  0.00  0.00    +0.096 A 
ATOM      8  C   LIG A   1      -6.116   0.640 127.171  0.00  0.00    +0.147 A 
ATOM      9  O   LIG A   1      -5.434   1.166 128.228  0.00  0.00    -0.451 OA
ATOM     10  C   LIG A   1      -5.831   2.405 128.671  0.00  0.00    +0.184 A 
ATOM     11  C   LIG A   1      -7.080   2.854 128.528  0.00  0.00    +0.211 A 
ENDROOT
BRANCH  10  12
ATOM     12  C   LIG A   1      -4.717   3.142 129.281  0.00  0.00    +0.067 A 
ATOM     13  C   LIG A   1      -4.594   3.070 130.679  0.00  0.00    +0.019 A 
ATOM     14  C   LIG A   1      -3.638   3.838 131.335  0.00  0.00    +0.050 A 
ATOM     15  C   LIG A   1      -2.850   4.748 130.616  0.00  0.00    +0.165 A 
ATOM     16  C   LIG A   1      -2.971   4.843 129.208  0.00  0.00    +0.204 A 
ATOM     17  C   LIG A   1      -3.870   3.991 128.531  0.00  0.00    +0.176 A 
BRANCH  16  18
ATOM     18  O   LIG A   1      -2.102   5.691 128.576  0.00  0.00    -0.488 OA
ATOM     19  C   LIG A   1      -2.567   6.981 128.195  0.00  0.00    +0.277 C 
ENDBRANCH  16  18
BRANCH  17  20
ATOM     20  O   LIG A   1      -4.067   3.929 127.174  0.00  0.00    -0.491 OA
ATOM     21  C   LIG A   1      -3.142   3.192 126.383  0.00  0.00    +0.277 C 
ENDBRANCH  17  20
BRANCH  15  22
ATOM     22  O   LIG A   1      -1.988   5.468 131.417  0.00  0.00    -0.491 OA
ATOM     23  C   LIG A   1      -1.588   4.847 132.634  0.00  0.00    +0.277 C 
ENDBRANCH  15  22
ENDBRANCH  10  12
BRANCH   5  24
ATOM     24  O   LIG A   1      -7.845  -0.711 123.646  0.00  0.00    -0.488 OA
ATOM     25  C   LIG A   1      -8.736  -1.828 123.665  0.00  0.00    +0.277 C 
ENDBRANCH   5  24
BRANCH  11  26
ATOM     26  O   LIG A   1      -7.434   4.150 128.974  0.00  0.00    -0.488 OA
ATOM     27  C   LIG A   1      -8.152   4.193 130.204  0.00  0.00    +0.277 C 
ENDBRANCH  11  26
BRANCH   6  28
ATOM     28  O   LIG A   1      -5.299  -1.606 124.383  0.00  0.00    -0.491 OA
ATOM     29  C   LIG A   1      -5.415  -3.002 124.638  0.00  0.00    +0.277 C 
ENDBRANCH   6  28
BRANCH   4  30
ATOM     30  O   LIG A   1      -9.252   1.039 125.262  0.00  0.00    -0.421 OA
BRANCH  30  31
ATOM     31  C   LIG A   1      -9.236   2.152 124.417  0.00  0.00    +0.309 C 
ATOM     32  C   LIG A   1      -9.660   1.738 123.037  0.00  0.00    +0.136 C 
ATOM     33  O   LIG A   1      -8.917   3.296 124.715  0.00  0.00    -0.251 OA
ENDBRANCH  30  31
ENDBRANCH   4  30
TORSDOF 9
ENDMDL
MODEL 9
REMARK VINA RESULT:      -6.2      3.974      5.947
REMARK  Name = NuBBE_1879
REMARK  16 active torsions:
REMARK  status: ('A' for Active; 'I' for Inactive)
REMARK    1  A    between atoms: C_4  and  O_30
REMARK    2  A    between atoms: C_5  and  O_6
REMARK    3  A    between atoms: O_6  and  C_7
REMARK    4  A    between atoms: C_8  and  O_28
REMARK    5  A    between atoms: C_12  and  C_13
REMARK    6  A    between atoms: C_16  and  O_23
REMARK    7  A    between atoms: C_17  and  O_18
REMARK    8  A    between atoms: O_18  and  C_19
REMARK    9  A    between atoms: C_20  and  O_21
REMARK   10  A    between atoms: O_21  and  C_22
REMARK   11  A    between atoms: O_23  and  C_24
REMARK   12  A    between atoms: C_25  and  O_26
REMARK   13  A    between atoms: O_26  and  C_27
REMARK   14  A    between atoms: O_28  and  C_29
REMARK   15  A    between atoms: O_30  and  C_31
REMARK   16  A    between atoms: C_31  and  C_32
REMARK                            x       y       z     vdW  Elec       q    Type
REMARK                         _______ _______ _______ _____ _____    ______ ____
ROOT
ATOM      1  O   LIG A   1      -7.947  -1.548 132.325  0.00  0.00    -0.283 OA
ATOM      2  C   LIG A   1      -7.686  -0.960 131.259  0.00  0.00    +0.238 A 
ATOM      3  C   LIG A   1      -7.907   0.471 131.150  0.00  0.00    +0.114 A 
ATOM      4  C   LIG A   1      -7.834   1.419 132.191  0.00  0.00    +0.191 A 
ATOM      5  C   LIG A   1      -8.051   2.785 131.927  0.00  0.00    +0.205 A 
ATOM      6  C   LIG A   1      -8.403   3.203 130.628  0.00  0.00    +0.169 A 
ATOM      7  C   LIG A   1      -8.471   2.261 129.605  0.00  0.00    +0.096 A 
ATOM      8  C   LIG A   1      -8.206   0.925 129.862  0.00  0.00    +0.147 A 
ATOM      9  O   LIG A   1      -8.212   0.095 128.779  0.00  0.00    -0.451 OA
ATOM     10  C   LIG A   1      -7.449  -1.045 128.865  0.00  0.00    +0.184 A 
ATOM     11  C   LIG A   1      -7.171  -1.638 130.027  0.00  0.00    +0.211 A 
ENDROOT
BRANCH  10  12
ATOM     12  C   LIG A   1      -6.986  -1.484 127.542  0.00  0.00    +0.067 A 
ATOM     13  C   LIG A   1      -5.794  -0.917 127.062  0.00  0.00    +0.019 A 
ATOM     14  C   LIG A   1      -5.360  -1.194 125.770  0.00  0.00    +0.050 A 
ATOM     15  C   LIG A   1      -6.150  -1.974 124.913  0.00  0.00    +0.165 A 
ATOM     16  C   LIG A   1      -7.362  -2.542 125.377  0.00  0.00    +0.204 A 
ATOM     17  C   LIG A   1      -7.752  -2.343 126.720  0.00  0.00    +0.176 A 
BRANCH  16  18
ATOM     18  O   LIG A   1      -8.026  -3.362 124.504  0.00  0.00    -0.488 OA
ATOM     19  C   LIG A   1      -9.126  -2.828 123.775  0.00  0.00    +0.277 C 
ENDBRANCH  16  18
BRANCH  17  20
ATOM     20  O   LIG A   1      -8.866  -2.863 127.329  0.00  0.00    -0.491 OA
ATOM     21  C   LIG A   1      -8.816  -4.197 127.821  0.00  0.00    +0.277 C 
ENDBRANCH  17  20
BRANCH  15  22
ATOM     22  O   LIG A   1      -5.607  -2.114 123.654  0.00  0.00    -0.491 OA
ATOM     23  C   LIG A   1      -4.690  -3.189 123.477  0.00  0.00    +0.277 C 
ENDBRANCH  15  22
ENDBRANCH  10  12
BRANCH   5  24
ATOM     24  O   LIG A   1      -7.771   3.683 132.934  0.00  0.00    -0.488 OA
ATOM     25  C   LIG A   1      -8.842   3.907 133.854  0.00  0.00    +0.277 C 
ENDBRANCH   5  24
BRANCH  11  26
ATOM     26  O   LIG A   1      -6.355  -2.795 130.067  0.00  0.00    -0.488 OA
ATOM     27  C   LIG A   1      -5.036  -2.589 130.565  0.00  0.00    +0.277 C 
ENDBRANCH  11  26
BRANCH   6  28
ATOM     28  O   LIG A   1      -8.552   4.542 130.389  0.00  0.00    -0.491 OA
ATOM     29  C   LIG A   1      -9.897   5.005 130.322  0.00  0.00    +0.277 C 
ENDBRANCH   6  28
BRANCH   4  30
ATOM     30  O   LIG A   1      -7.323   1.001 133.446  0.00  0.00    -0.421 OA
BRANCH  30  31
ATOM     31  C   LIG A   1      -5.943   1.054 133.660  0.00  0.00    +0.309 C 
ATOM     32  C   LIG A   1      -5.663   1.786 134.942  0.00  0.00    +0.136 C 
ATOM     33  O   LIG A   1      -5.068   0.600 132.932  0.00  0.00    -0.251 OA
ENDBRANCH  30  31
ENDBRANCH   4  30
TORSDOF 9
ENDMDL
