MODEL 1
REMARK VINA RESULT:      -5.7      0.000      0.000
REMARK  Name = NuBBE_31
REMARK  9 active torsions:
REMARK  status: ('A' for Active; 'I' for Inactive)
REMARK    1  A    between atoms: C_1  and  O_2
REMARK    2  A    between atoms: O_2  and  C_3
REMARK    3  A    between atoms: C_4  and  O_5
REMARK    4  A    between atoms: O_5  and  C_6
REMARK    5  A    between atoms: C_7  and  O_8
REMARK    6  A    between atoms: O_8  and  C_9
REMARK    7  A    between atoms: C_11  and  C_12
REMARK    8  A    between atoms: C_13  and  C_14
REMARK    9  A    between atoms: C_14  and  O_15
REMARK                            x       y       z     vdW  Elec       q    Type
REMARK                         _______ _______ _______ _____ _____    ______ ____
ROOT
ATOM      1  C   LIG A   1      -8.617  -1.496 124.821  0.00  0.00    +0.166 A 
ATOM      2  C   LIG A   1      -8.621  -0.184 124.304  0.00  0.00    +0.203 A 
ATOM      3  C   LIG A   1      -7.559   0.239 123.481  0.00  0.00    +0.166 A 
ATOM      4  C   LIG A   1      -6.546  -0.671 123.140  0.00  0.00    +0.057 A 
ATOM      5  C   LIG A   1      -6.577  -1.996 123.591  0.00  0.00    -0.018 A 
ATOM      6  C   LIG A   1      -7.605  -2.390 124.456  0.00  0.00    +0.057 A 
ENDROOT
BRANCH   1   8
ATOM      7  C   LIG A   1      -9.656  -3.188 126.125  0.00  0.00    +0.277 C 
ATOM      8  O   LIG A   1      -9.679  -1.858 125.616  0.00  0.00    -0.491 OA
ENDBRANCH   1   8
BRANCH   2   9
ATOM      9  O   LIG A   1      -9.671   0.604 124.714  0.00  0.00    -0.488 OA
ATOM     10  C   LIG A   1     -10.481   1.171 123.690  0.00  0.00    +0.277 C 
ENDBRANCH   2   9
BRANCH   3  11
ATOM     11  O   LIG A   1      -7.503   1.559 123.111  0.00  0.00    -0.491 OA
ATOM     12  C   LIG A   1      -6.748   2.419 123.957  0.00  0.00    +0.277 C 
ENDBRANCH   3  11
BRANCH   5  13
ATOM     13  C   LIG A   1      -5.504  -2.913 123.174  0.00  0.00    +0.015 C 
ATOM     14  C   LIG A   1      -4.918  -3.804 123.989  0.00  0.00    +0.092 C 
BRANCH  14  15
ATOM     15  C   LIG A   1      -3.891  -4.713 123.470  0.00  0.00    +0.330 C 
ATOM     16  O   LIG A   1      -2.688  -4.521 123.431  0.00  0.00    -0.246 OA
BRANCH  15  17
ATOM     17  O   LIG A   1      -4.451  -5.846 123.025  0.00  0.00    -0.477 OA
ATOM     18  H   LIG A   1      -5.074  -5.545 122.330  0.00  0.00    +0.295 HD
ENDBRANCH  15  17
ENDBRANCH  14  15
ENDBRANCH   5  13
TORSDOF 6
ENDMDL
MODEL 2
REMARK VINA RESULT:      -5.5      4.288      6.478
REMARK  Name = NuBBE_31
REMARK  9 active torsions:
REMARK  status: ('A' for Active; 'I' for Inactive)
REMARK    1  A    between atoms: C_1  and  O_2
REMARK    2  A    between atoms: O_2  and  C_3
REMARK    3  A    between atoms: C_4  and  O_5
REMARK    4  A    between atoms: O_5  and  C_6
REMARK    5  A    between atoms: C_7  and  O_8
REMARK    6  A    between atoms: O_8  and  C_9
REMARK    7  A    between atoms: C_11  and  C_12
REMARK    8  A    between atoms: C_13  and  C_14
REMARK    9  A    between atoms: C_14  and  O_15
REMARK                            x       y       z     vdW  Elec       q    Type
REMARK                         _______ _______ _______ _____ _____    ______ ____
ROOT
ATOM      1  C   LIG A   1      -7.509   1.475 123.802  0.00  0.00    +0.166 A 
ATOM      2  C   LIG A   1      -7.115   1.557 125.154  0.00  0.00    +0.203 A 
ATOM      3  C   LIG A   1      -6.159   2.516 125.538  0.00  0.00    +0.166 A 
ATOM      4  C   LIG A   1      -5.657   3.413 124.582  0.00  0.00    +0.057 A 
ATOM      5  C   LIG A   1      -6.100   3.382 123.254  0.00  0.00    -0.018 A 
ATOM      6  C   LIG A   1      -7.007   2.387 122.868  0.00  0.00    +0.057 A 
ENDROOT
BRANCH   1   8
ATOM      7  C   LIG A   1      -9.706   1.012 123.025  0.00  0.00    +0.277 C 
ATOM      8  O   LIG A   1      -8.449   0.523 123.481  0.00  0.00    -0.491 OA
ENDBRANCH   1   8
BRANCH   2   9
ATOM      9  O   LIG A   1      -7.683   0.622 125.988  0.00  0.00    -0.488 OA
ATOM     10  C   LIG A   1      -8.734   1.075 126.833  0.00  0.00    +0.277 C 
ENDBRANCH   2   9
BRANCH   3  11
ATOM     11  O   LIG A   1      -5.678   2.484 126.823  0.00  0.00    -0.491 OA
ATOM     12  C   LIG A   1      -4.622   3.388 127.125  0.00  0.00    +0.277 C 
ENDBRANCH   3  11
BRANCH   5  13
ATOM     13  C   LIG A   1      -5.563   4.369 122.303  0.00  0.00    +0.015 C 
ATOM     14  C   LIG A   1      -5.686   4.272 120.970  0.00  0.00    +0.092 C 
BRANCH  14  15
ATOM     15  C   LIG A   1      -5.161   5.332 120.103  0.00  0.00    +0.330 C 
ATOM     16  O   LIG A   1      -5.411   5.513 118.924  0.00  0.00    -0.246 OA
BRANCH  15  17
ATOM     17  O   LIG A   1      -4.334   6.131 120.791  0.00  0.00    -0.477 OA
ATOM     18  H   LIG A   1      -3.571   6.258 120.189  0.00  0.00    +0.295 HD
ENDBRANCH  15  17
ENDBRANCH  14  15
ENDBRANCH   5  13
TORSDOF 6
ENDMDL
MODEL 3
REMARK VINA RESULT:      -5.5      4.184      6.612
REMARK  Name = NuBBE_31
REMARK  9 active torsions:
REMARK  status: ('A' for Active; 'I' for Inactive)
REMARK    1  A    between atoms: C_1  and  O_2
REMARK    2  A    between atoms: O_2  and  C_3
REMARK    3  A    between atoms: C_4  and  O_5
REMARK    4  A    between atoms: O_5  and  C_6
REMARK    5  A    between atoms: C_7  and  O_8
REMARK    6  A    between atoms: O_8  and  C_9
REMARK    7  A    between atoms: C_11  and  C_12
REMARK    8  A    between atoms: C_13  and  C_14
REMARK    9  A    between atoms: C_14  and  O_15
REMARK                            x       y       z     vdW  Elec       q    Type
REMARK                         _______ _______ _______ _____ _____    ______ ____
ROOT
ATOM      1  C   LIG A   1      -6.282   2.480 125.538  0.00  0.00    +0.166 A 
ATOM      2  C   LIG A   1      -7.079   1.425 125.047  0.00  0.00    +0.203 A 
ATOM      3  C   LIG A   1      -7.414   1.390 123.680  0.00  0.00    +0.166 A 
ATOM      4  C   LIG A   1      -6.901   2.371 122.818  0.00  0.00    +0.057 A 
ATOM      5  C   LIG A   1      -6.050   3.378 123.289  0.00  0.00    -0.018 A 
ATOM      6  C   LIG A   1      -5.769   3.439 124.659  0.00  0.00    +0.057 A 
ENDROOT
BRANCH   1   8
ATOM      7  C   LIG A   1      -4.648   2.097 127.220  0.00  0.00    +0.277 C 
ATOM      8  O   LIG A   1      -5.981   2.464 126.881  0.00  0.00    -0.491 OA
ENDBRANCH   1   8
BRANCH   2   9
ATOM      9  O   LIG A   1      -7.514   0.528 125.996  0.00  0.00    -0.488 OA
ATOM     10  C   LIG A   1      -8.775   0.798 126.597  0.00  0.00    +0.277 C 
ENDBRANCH   2   9
BRANCH   3  11
ATOM     11  O   LIG A   1      -8.310   0.444 123.250  0.00  0.00    -0.491 OA
ATOM     12  C   LIG A   1      -9.608   0.914 122.904  0.00  0.00    +0.277 C 
ENDBRANCH   3  11
BRANCH   5  13
ATOM     13  C   LIG A   1      -5.516   4.361 122.331  0.00  0.00    +0.015 C 
ATOM     14  C   LIG A   1      -5.690   4.284 121.002  0.00  0.00    +0.092 C 
BRANCH  14  15
ATOM     15  C   LIG A   1      -5.165   5.338 120.129  0.00  0.00    +0.330 C 
ATOM     16  O   LIG A   1      -5.441   5.533 118.958  0.00  0.00    -0.246 OA
BRANCH  15  17
ATOM     17  O   LIG A   1      -4.303   6.115 120.800  0.00  0.00    -0.477 OA
ATOM     18  H   LIG A   1      -4.251   5.701 121.687  0.00  0.00    +0.295 HD
ENDBRANCH  15  17
ENDBRANCH  14  15
ENDBRANCH   5  13
TORSDOF 6
ENDMDL
MODEL 4
REMARK VINA RESULT:      -5.3      5.061      6.405
REMARK  Name = NuBBE_31
REMARK  9 active torsions:
REMARK  status: ('A' for Active; 'I' for Inactive)
REMARK    1  A    between atoms: C_1  and  O_2
REMARK    2  A    between atoms: O_2  and  C_3
REMARK    3  A    between atoms: C_4  and  O_5
REMARK    4  A    between atoms: O_5  and  C_6
REMARK    5  A    between atoms: C_7  and  O_8
REMARK    6  A    between atoms: O_8  and  C_9
REMARK    7  A    between atoms: C_11  and  C_12
REMARK    8  A    between atoms: C_13  and  C_14
REMARK    9  A    between atoms: C_14  and  O_15
REMARK                            x       y       z     vdW  Elec       q    Type
REMARK                         _______ _______ _______ _____ _____    ______ ____
ROOT
ATOM      1  C   LIG A   1      -6.789   3.466 123.221  0.00  0.00    +0.166 A 
ATOM      2  C   LIG A   1      -7.969   3.042 123.867  0.00  0.00    +0.203 A 
ATOM      3  C   LIG A   1      -7.949   2.799 125.254  0.00  0.00    +0.166 A 
ATOM      4  C   LIG A   1      -6.773   3.041 125.980  0.00  0.00    +0.057 A 
ATOM      5  C   LIG A   1      -5.620   3.532 125.354  0.00  0.00    -0.018 A 
ATOM      6  C   LIG A   1      -5.632   3.713 123.966  0.00  0.00    +0.057 A 
ENDROOT
BRANCH   1   8
ATOM      7  C   LIG A   1      -5.794   3.170 121.084  0.00  0.00    +0.277 C 
ATOM      8  O   LIG A   1      -6.864   3.691 121.866  0.00  0.00    -0.491 OA
ENDBRANCH   1   8
BRANCH   2   9
ATOM      9  O   LIG A   1      -9.051   2.845 123.041  0.00  0.00    -0.488 OA
ATOM     10  C   LIG A   1      -9.416   1.495 122.778  0.00  0.00    +0.277 C 
ENDBRANCH   2   9
BRANCH   3  11
ATOM     11  O   LIG A   1      -9.060   2.246 125.838  0.00  0.00    -0.491 OA
ATOM     12  C   LIG A   1      -8.824   1.252 126.828  0.00  0.00    +0.277 C 
ENDBRANCH   3  11
BRANCH   5  13
ATOM     13  C   LIG A   1      -4.426   3.797 126.173  0.00  0.00    +0.015 C 
ATOM     14  C   LIG A   1      -3.398   2.942 126.302  0.00  0.00    +0.092 C 
BRANCH  14  15
ATOM     15  C   LIG A   1      -2.227   3.314 127.100  0.00  0.00    +0.330 C 
ATOM     16  O   LIG A   1      -2.136   4.236 127.892  0.00  0.00    -0.246 OA
BRANCH  15  17
ATOM     17  O   LIG A   1      -1.209   2.477 126.856  0.00  0.00    -0.477 OA
ATOM     18  H   LIG A   1      -0.559   3.028 126.370  0.00  0.00    +0.295 HD
ENDBRANCH  15  17
ENDBRANCH  14  15
ENDBRANCH   5  13
TORSDOF 6
ENDMDL
MODEL 5
REMARK VINA RESULT:      -5.3      9.049     11.584
REMARK  Name = NuBBE_31
REMARK  9 active torsions:
REMARK  status: ('A' for Active; 'I' for Inactive)
REMARK    1  A    between atoms: C_1  and  O_2
REMARK    2  A    between atoms: O_2  and  C_3
REMARK    3  A    between atoms: C_4  and  O_5
REMARK    4  A    between atoms: O_5  and  C_6
REMARK    5  A    between atoms: C_7  and  O_8
REMARK    6  A    between atoms: O_8  and  C_9
REMARK    7  A    between atoms: C_11  and  C_12
REMARK    8  A    between atoms: C_13  and  C_14
REMARK    9  A    between atoms: C_14  and  O_15
REMARK                            x       y       z     vdW  Elec       q    Type
REMARK                         _______ _______ _______ _____ _____    ______ ____
ROOT
ATOM      1  C   LIG A   1      -9.572   5.782 129.311  0.00  0.00    +0.166 A 
ATOM      2  C   LIG A   1     -10.770   6.495 129.100  0.00  0.00    +0.203 A 
ATOM      3  C   LIG A   1     -11.524   6.925 130.209  0.00  0.00    +0.166 A 
ATOM      4  C   LIG A   1     -11.041   6.688 131.505  0.00  0.00    +0.057 A 
ATOM      5  C   LIG A   1      -9.815   6.044 131.718  0.00  0.00    -0.018 A 
ATOM      6  C   LIG A   1      -9.102   5.569 130.611  0.00  0.00    +0.057 A 
ENDROOT
BRANCH   1   8
ATOM      7  C   LIG A   1      -7.992   4.283 128.361  0.00  0.00    +0.277 C 
ATOM      8  O   LIG A   1      -8.873   5.389 128.193  0.00  0.00    -0.491 OA
ENDBRANCH   1   8
BRANCH   2   9
ATOM      9  O   LIG A   1     -11.130   6.662 127.782  0.00  0.00    -0.488 OA
ATOM     10  C   LIG A   1     -10.809   7.913 127.187  0.00  0.00    +0.277 C 
ENDBRANCH   2   9
BRANCH   3  11
ATOM     11  O   LIG A   1     -12.757   7.484 129.986  0.00  0.00    -0.491 OA
ATOM     12  C   LIG A   1     -12.823   8.904 130.030  0.00  0.00    +0.277 C 
ENDBRANCH   3  11
BRANCH   5  13
ATOM     13  C   LIG A   1      -9.345   5.853 133.099  0.00  0.00    +0.015 C 
ATOM     14  C   LIG A   1      -8.084   5.527 133.425  0.00  0.00    +0.092 C 
BRANCH  14  15
ATOM     15  C   LIG A   1      -7.694   5.408 134.833  0.00  0.00    +0.330 C 
ATOM     16  O   LIG A   1      -6.851   4.665 135.306  0.00  0.00    -0.246 OA
BRANCH  15  17
ATOM     17  O   LIG A   1      -8.402   6.259 135.588  0.00  0.00    -0.477 OA
ATOM     18  H   LIG A   1      -7.838   7.060 135.635  0.00  0.00    +0.295 HD
ENDBRANCH  15  17
ENDBRANCH  14  15
ENDBRANCH   5  13
TORSDOF 6
ENDMDL
MODEL 6
REMARK VINA RESULT:      -5.1      3.691      4.713
REMARK  Name = NuBBE_31
REMARK  9 active torsions:
REMARK  status: ('A' for Active; 'I' for Inactive)
REMARK    1  A    between atoms: C_1  and  O_2
REMARK    2  A    between atoms: O_2  and  C_3
REMARK    3  A    between atoms: C_4  and  O_5
REMARK    4  A    between atoms: O_5  and  C_6
REMARK    5  A    between atoms: C_7  and  O_8
REMARK    6  A    between atoms: O_8  and  C_9
REMARK    7  A    between atoms: C_11  and  C_12
REMARK    8  A    between atoms: C_13  and  C_14
REMARK    9  A    between atoms: C_14  and  O_15
REMARK                            x       y       z     vdW  Elec       q    Type
REMARK                         _______ _______ _______ _____ _____    ______ ____
ROOT
ATOM      1  C   LIG A   1      -8.287  -1.342 125.826  0.00  0.00    +0.166 A 
ATOM      2  C   LIG A   1      -7.761  -2.001 124.695  0.00  0.00    +0.203 A 
ATOM      3  C   LIG A   1      -6.457  -2.529 124.747  0.00  0.00    +0.166 A 
ATOM      4  C   LIG A   1      -5.725  -2.446 125.941  0.00  0.00    +0.057 A 
ATOM      5  C   LIG A   1      -6.271  -1.857 127.089  0.00  0.00    -0.018 A 
ATOM      6  C   LIG A   1      -7.545  -1.283 127.011  0.00  0.00    +0.057 A 
ENDROOT
BRANCH   1   8
ATOM      7  C   LIG A   1      -9.688   0.571 125.689  0.00  0.00    +0.277 C 
ATOM      8  O   LIG A   1      -9.566  -0.847 125.723  0.00  0.00    -0.491 OA
ENDBRANCH   1   8
BRANCH   2   9
ATOM      9  O   LIG A   1      -8.581  -2.015 123.591  0.00  0.00    -0.488 OA
ATOM     10  C   LIG A   1      -9.361  -3.187 123.390  0.00  0.00    +0.277 C 
ENDBRANCH   2   9
BRANCH   3  11
ATOM     11  O   LIG A   1      -5.908  -3.032 123.594  0.00  0.00    -0.491 OA
ATOM     12  C   LIG A   1      -4.762  -3.862 123.750  0.00  0.00    +0.277 C 
ENDBRANCH   3  11
BRANCH   5  13
ATOM     13  C   LIG A   1      -5.468  -1.828 128.322  0.00  0.00    +0.015 C 
ATOM     14  C   LIG A   1      -4.541  -2.747 128.636  0.00  0.00    +0.092 C 
BRANCH  14  15
ATOM     15  C   LIG A   1      -3.752  -2.608 129.864  0.00  0.00    +0.330 C 
ATOM     16  O   LIG A   1      -4.152  -2.695 131.012  0.00  0.00    -0.246 OA
BRANCH  15  17
ATOM     17  O   LIG A   1      -2.467  -2.367 129.569  0.00  0.00    -0.477 OA
ATOM     18  H   LIG A   1      -2.505  -1.885 128.716  0.00  0.00    +0.295 HD
ENDBRANCH  15  17
ENDBRANCH  14  15
ENDBRANCH   5  13
TORSDOF 6
ENDMDL
MODEL 7
REMARK VINA RESULT:      -5.1      5.218      6.375
REMARK  Name = NuBBE_31
REMARK  9 active torsions:
REMARK  status: ('A' for Active; 'I' for Inactive)
REMARK    1  A    between atoms: C_1  and  O_2
REMARK    2  A    between atoms: O_2  and  C_3
REMARK    3  A    between atoms: C_4  and  O_5
REMARK    4  A    between atoms: O_5  and  C_6
REMARK    5  A    between atoms: C_7  and  O_8
REMARK    6  A    between atoms: O_8  and  C_9
REMARK    7  A    between atoms: C_11  and  C_12
REMARK    8  A    between atoms: C_13  and  C_14
REMARK    9  A    between atoms: C_14  and  O_15
REMARK                            x       y       z     vdW  Elec       q    Type
REMARK                         _______ _______ _______ _____ _____    ______ ____
ROOT
ATOM      1  C   LIG A   1      -7.799   2.984 125.328  0.00  0.00    +0.166 A 
ATOM      2  C   LIG A   1      -7.899   3.091 123.925  0.00  0.00    +0.203 A 
ATOM      3  C   LIG A   1      -6.784   3.526 123.183  0.00  0.00    +0.166 A 
ATOM      4  C   LIG A   1      -5.575   3.788 123.844  0.00  0.00    +0.057 A 
ATOM      5  C   LIG A   1      -5.450   3.612 125.228  0.00  0.00    -0.018 A 
ATOM      6  C   LIG A   1      -6.579   3.236 125.965  0.00  0.00    +0.057 A 
ENDROOT
BRANCH   1   8
ATOM      7  C   LIG A   1      -8.784   1.322 126.711  0.00  0.00    +0.277 C 
ATOM      8  O   LIG A   1      -8.916   2.551 126.004  0.00  0.00    -0.491 OA
ENDBRANCH   1   8
BRANCH   2   9
ATOM      9  O   LIG A   1      -9.139   2.803 123.403  0.00  0.00    -0.488 OA
ATOM     10  C   LIG A   1      -9.327   1.487 122.895  0.00  0.00    +0.277 C 
ENDBRANCH   2   9
BRANCH   3  11
ATOM     11  O   LIG A   1      -6.944   3.767 121.842  0.00  0.00    -0.491 OA
ATOM     12  C   LIG A   1      -5.806   3.537 121.019  0.00  0.00    +0.277 C 
ENDBRANCH   3  11
BRANCH   5  13
ATOM     13  C   LIG A   1      -4.147   3.872 125.861  0.00  0.00    +0.015 C 
ATOM     14  C   LIG A   1      -3.988   4.581 126.991  0.00  0.00    +0.092 C 
BRANCH  14  15
ATOM     15  C   LIG A   1      -2.654   4.744 127.576  0.00  0.00    +0.330 C 
ATOM     16  O   LIG A   1      -2.325   5.517 128.459  0.00  0.00    -0.246 OA
BRANCH  15  17
ATOM     17  O   LIG A   1      -1.787   3.896 127.007  0.00  0.00    -0.477 OA
ATOM     18  H   LIG A   1      -0.954   4.038 127.505  0.00  0.00    +0.295 HD
ENDBRANCH  15  17
ENDBRANCH  14  15
ENDBRANCH   5  13
TORSDOF 6
ENDMDL
MODEL 8
REMARK VINA RESULT:      -5.1     10.541     12.171
REMARK  Name = NuBBE_31
REMARK  9 active torsions:
REMARK  status: ('A' for Active; 'I' for Inactive)
REMARK    1  A    between atoms: C_1  and  O_2
REMARK    2  A    between atoms: O_2  and  C_3
REMARK    3  A    between atoms: C_4  and  O_5
REMARK    4  A    between atoms: O_5  and  C_6
REMARK    5  A    between atoms: C_7  and  O_8
REMARK    6  A    between atoms: O_8  and  C_9
REMARK    7  A    between atoms: C_11  and  C_12
REMARK    8  A    between atoms: C_13  and  C_14
REMARK    9  A    between atoms: C_14  and  O_15
REMARK                            x       y       z     vdW  Elec       q    Type
REMARK                         _______ _______ _______ _____ _____    ______ ____
ROOT
ATOM      1  C   LIG A   1      -8.294   5.720 132.939  0.00  0.00    +0.166 A 
ATOM      2  C   LIG A   1      -6.982   6.090 132.576  0.00  0.00    +0.203 A 
ATOM      3  C   LIG A   1      -6.764   6.758 131.356  0.00  0.00    +0.166 A 
ATOM      4  C   LIG A   1      -7.862   7.098 130.550  0.00  0.00    +0.057 A 
ATOM      5  C   LIG A   1      -9.172   6.797 130.942  0.00  0.00    -0.018 A 
ATOM      6  C   LIG A   1      -9.374   6.081 132.127  0.00  0.00    +0.057 A 
ENDROOT
BRANCH   1   8
ATOM      7  C   LIG A   1      -9.013   3.766 134.082  0.00  0.00    +0.277 C 
ATOM      8  O   LIG A   1      -8.450   5.072 134.142  0.00  0.00    -0.491 OA
ENDBRANCH   1   8
BRANCH   2   9
ATOM      9  O   LIG A   1      -5.998   5.699 133.455  0.00  0.00    -0.488 OA
ATOM     10  C   LIG A   1      -5.399   4.431 133.218  0.00  0.00    +0.277 C 
ENDBRANCH   2   9
BRANCH   3  11
ATOM     11  O   LIG A   1      -5.472   6.976 130.950  0.00  0.00    -0.491 OA
ATOM     12  C   LIG A   1      -4.939   6.046 130.014  0.00  0.00    +0.277 C 
ENDBRANCH   3  11
BRANCH   5  13
ATOM     13  C   LIG A   1     -10.285   7.208 130.070  0.00  0.00    +0.015 C 
ATOM     14  C   LIG A   1     -10.137   7.962 128.968  0.00  0.00    +0.092 C 
BRANCH  14  15
ATOM     15  C   LIG A   1     -11.299   8.279 128.132  0.00  0.00    +0.330 C 
ATOM     16  O   LIG A   1     -11.638   7.727 127.100  0.00  0.00    -0.246 OA
BRANCH  15  17
ATOM     17  O   LIG A   1     -11.992   9.296 128.661  0.00  0.00    -0.477 OA
ATOM     18  H   LIG A   1     -11.421  10.078 128.507  0.00  0.00    +0.295 HD
ENDBRANCH  15  17
ENDBRANCH  14  15
ENDBRANCH   5  13
TORSDOF 6
ENDMDL
MODEL 9
REMARK VINA RESULT:      -5.0      3.441      4.026
REMARK  Name = NuBBE_31
REMARK  9 active torsions:
REMARK  status: ('A' for Active; 'I' for Inactive)
REMARK    1  A    between atoms: C_1  and  O_2
REMARK    2  A    between atoms: O_2  and  C_3
REMARK    3  A    between atoms: C_4  and  O_5
REMARK    4  A    between atoms: O_5  and  C_6
REMARK    5  A    between atoms: C_7  and  O_8
REMARK    6  A    between atoms: O_8  and  C_9
REMARK    7  A    between atoms: C_11  and  C_12
REMARK    8  A    between atoms: C_13  and  C_14
REMARK    9  A    between atoms: C_14  and  O_15
REMARK                            x       y       z     vdW  Elec       q    Type
REMARK                         _______ _______ _______ _____ _____    ______ ____
ROOT
ATOM      1  C   LIG A   1      -9.038  -1.806 125.638  0.00  0.00    +0.166 A 
ATOM      2  C   LIG A   1      -9.221  -0.412 125.748  0.00  0.00    +0.203 A 
ATOM      3  C   LIG A   1      -8.553   0.295 126.766  0.00  0.00    +0.166 A 
ATOM      4  C   LIG A   1      -7.671  -0.389 127.617  0.00  0.00    +0.057 A 
ATOM      5  C   LIG A   1      -7.431  -1.760 127.464  0.00  0.00    -0.018 A 
ATOM      6  C   LIG A   1      -8.143  -2.465 126.487  0.00  0.00    +0.057 A 
ENDROOT
BRANCH   1   8
ATOM      7  C   LIG A   1      -8.904  -3.013 123.595  0.00  0.00    +0.277 C 
ATOM      8  O   LIG A   1      -9.711  -2.447 124.623  0.00  0.00    -0.491 OA
ENDBRANCH   1   8
BRANCH   2   9
ATOM      9  O   LIG A   1     -10.110   0.135 124.852  0.00  0.00    -0.488 OA
ATOM     10  C   LIG A   1      -9.552   0.803 123.727  0.00  0.00    +0.277 C 
ENDBRANCH   2   9
BRANCH   3  11
ATOM     11  O   LIG A   1      -8.858   1.619 126.952  0.00  0.00    -0.491 OA
ATOM     12  C   LIG A   1      -7.819   2.551 126.674  0.00  0.00    +0.277 C 
ENDBRANCH   3  11
BRANCH   5  13
ATOM     13  C   LIG A   1      -6.470  -2.416 128.366  0.00  0.00    +0.015 C 
ATOM     14  C   LIG A   1      -5.136  -2.322 128.240  0.00  0.00    +0.092 C 
BRANCH  14  15
ATOM     15  C   LIG A   1      -4.256  -2.969 129.217  0.00  0.00    +0.330 C 
ATOM     16  O   LIG A   1      -4.462  -4.006 129.823  0.00  0.00    -0.246 OA
BRANCH  15  17
ATOM     17  O   LIG A   1      -3.131  -2.258 129.376  0.00  0.00    -0.477 OA
ATOM     18  H   LIG A   1      -2.708  -2.657 130.166  0.00  0.00    +0.295 HD
ENDBRANCH  15  17
ENDBRANCH  14  15
ENDBRANCH   5  13
TORSDOF 6
ENDMDL
