MODEL 1
REMARK VINA RESULT:      -4.9      0.000      0.000
REMARK  Name = NuBBE_1498
REMARK  18 active torsions:
REMARK  status: ('A' for Active; 'I' for Inactive)
REMARK    1  A    between atoms: C_1  and  C_2
REMARK    2  A    between atoms: C_1  and  C_15
REMARK    3  A    between atoms: C_2  and  C_3
REMARK    4  A    between atoms: C_3  and  C_4
REMARK    5  A    between atoms: C_4  and  C_5
REMARK    6  A    between atoms: C_5  and  C_6
REMARK    7  A    between atoms: C_6  and  C_7
REMARK    8  A    between atoms: C_7  and  C_8
REMARK    9  A    between atoms: C_8  and  C_9
REMARK   10  A    between atoms: C_9  and  C_10
REMARK   11  A    between atoms: C_10  and  C_11
REMARK   12  A    between atoms: C_11  and  C_12
REMARK   13  A    between atoms: C_12  and  C_13
REMARK   14  A    between atoms: C_13  and  C_14
REMARK   15  A    between atoms: C_15  and  C_16
REMARK   16  A    between atoms: C_16  and  O_18
REMARK   17  A    between atoms: O_18  and  C_19
REMARK   18  A    between atoms: C_19  and  C_20
REMARK                            x       y       z     vdW  Elec       q    Type
REMARK                         _______ _______ _______ _____ _____    ______ ____
ROOT
ATOM      1  C   LIG A   1      -9.099  -3.099 126.411  0.00  0.00    -0.000 C 
ENDROOT
BRANCH   1   2
ATOM      2  C   LIG A   1      -8.606  -3.772 125.121  0.00  0.00    -0.000 C 
BRANCH   2   3
ATOM      3  C   LIG A   1      -9.415  -3.294 123.909  0.00  0.00    -0.000 C 
BRANCH   3   4
ATOM      4  C   LIG A   1      -8.621  -2.364 122.981  0.00  0.00    -0.000 C 
BRANCH   4   5
ATOM      5  C   LIG A   1      -8.730  -0.878 123.370  0.00  0.00    -0.000 C 
BRANCH   5   6
ATOM      6  C   LIG A   1      -7.434  -0.105 123.116  0.00  0.00    -0.000 C 
BRANCH   6   7
ATOM      7  C   LIG A   1      -6.923   0.636 124.353  0.00  0.00    -0.000 C 
BRANCH   7   8
ATOM      8  C   LIG A   1      -6.716  -0.304 125.551  0.00  0.00    -0.000 C 
BRANCH   8   9
ATOM      9  C   LIG A   1      -5.376  -1.050 125.519  0.00  0.00    -0.000 C 
BRANCH   9  10
ATOM     10  C   LIG A   1      -5.506  -2.543 125.208  0.00  0.00    -0.003 C 
ATOM     11  C   LIG A   1      -5.033  -2.913 123.811  0.00  0.00    +0.004 C 
ENDBRANCH   9  10
ENDBRANCH   8   9
ENDBRANCH   7   8
ENDBRANCH   6   7
ENDBRANCH   5   6
ENDBRANCH   4   5
ENDBRANCH   3   4
ENDBRANCH   2   3
ENDBRANCH   1   2
BRANCH   1  12
ATOM     12  C   LIG A   1      -9.075  -4.043 127.622  0.00  0.00    +0.000 C 
BRANCH  12  13
ATOM     13  C   LIG A   1      -8.467  -3.355 128.853  0.00  0.00    +0.000 C 
BRANCH  13  14
ATOM     14  C   LIG A   1      -7.470  -2.254 128.471  0.00  0.00    +0.011 C 
BRANCH  14  15
ATOM     15  C   LIG A   1      -6.609  -1.795 129.651  0.00  0.00    +0.120 C 
BRANCH  15  16
ATOM     16  C   LIG A   1      -5.224  -2.371 129.651  0.00  0.00    +0.307 C 
ATOM     17  O   LIG A   1      -4.522  -2.456 128.645  0.00  0.00    -0.251 OA
BRANCH  16  18
ATOM     18  O   LIG A   1      -4.878  -2.814 130.889  0.00  0.00    -0.465 OA
BRANCH  18  19
ATOM     19  C   LIG A   1      -5.780  -3.764 131.472  0.00  0.00    +0.228 C 
ATOM     20  C   LIG A   1      -5.584  -5.131 130.841  0.00  0.00    +0.048 C 
ENDBRANCH  18  19
ENDBRANCH  16  18
ENDBRANCH  15  16
ENDBRANCH  14  15
ENDBRANCH  13  14
ENDBRANCH  12  13
ENDBRANCH   1  12
TORSDOF 16
ENDMDL
MODEL 2
REMARK VINA RESULT:      -4.7      1.655      2.461
REMARK  Name = NuBBE_1498
REMARK  18 active torsions:
REMARK  status: ('A' for Active; 'I' for Inactive)
REMARK    1  A    between atoms: C_1  and  C_2
REMARK    2  A    between atoms: C_1  and  C_15
REMARK    3  A    between atoms: C_2  and  C_3
REMARK    4  A    between atoms: C_3  and  C_4
REMARK    5  A    between atoms: C_4  and  C_5
REMARK    6  A    between atoms: C_5  and  C_6
REMARK    7  A    between atoms: C_6  and  C_7
REMARK    8  A    between atoms: C_7  and  C_8
REMARK    9  A    between atoms: C_8  and  C_9
REMARK   10  A    between atoms: C_9  and  C_10
REMARK   11  A    between atoms: C_10  and  C_11
REMARK   12  A    between atoms: C_11  and  C_12
REMARK   13  A    between atoms: C_12  and  C_13
REMARK   14  A    between atoms: C_13  and  C_14
REMARK   15  A    between atoms: C_15  and  C_16
REMARK   16  A    between atoms: C_16  and  O_18
REMARK   17  A    between atoms: O_18  and  C_19
REMARK   18  A    between atoms: C_19  and  C_20
REMARK                            x       y       z     vdW  Elec       q    Type
REMARK                         _______ _______ _______ _____ _____    ______ ____
ROOT
ATOM      1  C   LIG A   1      -8.665  -3.571 128.335  0.00  0.00    -0.000 C 
ENDROOT
BRANCH   1   2
ATOM      2  C   LIG A   1      -8.215  -2.933 127.012  0.00  0.00    -0.000 C 
BRANCH   2   3
ATOM      3  C   LIG A   1      -9.296  -3.083 125.935  0.00  0.00    -0.000 C 
BRANCH   3   4
ATOM      4  C   LIG A   1      -8.767  -3.697 124.631  0.00  0.00    -0.000 C 
BRANCH   4   5
ATOM      5  C   LIG A   1      -9.327  -3.018 123.368  0.00  0.00    -0.000 C 
BRANCH   5   6
ATOM      6  C   LIG A   1      -8.251  -2.277 122.571  0.00  0.00    -0.000 C 
BRANCH   6   7
ATOM      7  C   LIG A   1      -7.644  -1.096 123.330  0.00  0.00    -0.000 C 
BRANCH   7   8
ATOM      8  C   LIG A   1      -6.212  -1.384 123.808  0.00  0.00    -0.000 C 
BRANCH   8   9
ATOM      9  C   LIG A   1      -5.575  -2.604 123.130  0.00  0.00    -0.000 C 
BRANCH   9  10
ATOM     10  C   LIG A   1      -4.792  -3.506 124.087  0.00  0.00    -0.003 C 
ATOM     11  C   LIG A   1      -4.428  -4.855 123.485  0.00  0.00    +0.004 C 
ENDBRANCH   9  10
ENDBRANCH   8   9
ENDBRANCH   7   8
ENDBRANCH   6   7
ENDBRANCH   5   6
ENDBRANCH   4   5
ENDBRANCH   3   4
ENDBRANCH   2   3
ENDBRANCH   1   2
BRANCH   1  12
ATOM     12  C   LIG A   1      -7.639  -3.390 129.463  0.00  0.00    +0.000 C 
BRANCH  12  13
ATOM     13  C   LIG A   1      -6.303  -2.857 128.922  0.00  0.00    +0.000 C 
BRANCH  13  14
ATOM     14  C   LIG A   1      -5.108  -3.322 129.762  0.00  0.00    +0.011 C 
BRANCH  14  15
ATOM     15  C   LIG A   1      -4.831  -2.410 130.960  0.00  0.00    +0.120 C 
BRANCH  15  16
ATOM     16  C   LIG A   1      -3.558  -2.732 131.686  0.00  0.00    +0.307 C 
ATOM     17  O   LIG A   1      -2.668  -1.909 131.895  0.00  0.00    -0.251 OA
BRANCH  16  18
ATOM     18  O   LIG A   1      -3.513  -4.044 132.039  0.00  0.00    -0.465 OA
BRANCH  18  19
ATOM     19  C   LIG A   1      -4.086  -4.354 133.316  0.00  0.00    +0.228 C 
ATOM     20  C   LIG A   1      -3.738  -5.776 133.716  0.00  0.00    +0.048 C 
ENDBRANCH  18  19
ENDBRANCH  16  18
ENDBRANCH  15  16
ENDBRANCH  14  15
ENDBRANCH  13  14
ENDBRANCH  12  13
ENDBRANCH   1  12
TORSDOF 16
ENDMDL
MODEL 3
REMARK VINA RESULT:      -4.7      1.440      2.592
REMARK  Name = NuBBE_1498
REMARK  18 active torsions:
REMARK  status: ('A' for Active; 'I' for Inactive)
REMARK    1  A    between atoms: C_1  and  C_2
REMARK    2  A    between atoms: C_1  and  C_15
REMARK    3  A    between atoms: C_2  and  C_3
REMARK    4  A    between atoms: C_3  and  C_4
REMARK    5  A    between atoms: C_4  and  C_5
REMARK    6  A    between atoms: C_5  and  C_6
REMARK    7  A    between atoms: C_6  and  C_7
REMARK    8  A    between atoms: C_7  and  C_8
REMARK    9  A    between atoms: C_8  and  C_9
REMARK   10  A    between atoms: C_9  and  C_10
REMARK   11  A    between atoms: C_10  and  C_11
REMARK   12  A    between atoms: C_11  and  C_12
REMARK   13  A    between atoms: C_12  and  C_13
REMARK   14  A    between atoms: C_13  and  C_14
REMARK   15  A    between atoms: C_15  and  C_16
REMARK   16  A    between atoms: C_16  and  O_18
REMARK   17  A    between atoms: O_18  and  C_19
REMARK   18  A    between atoms: C_19  and  C_20
REMARK                            x       y       z     vdW  Elec       q    Type
REMARK                         _______ _______ _______ _____ _____    ______ ____
ROOT
ATOM      1  C   LIG A   1      -8.117  -2.455 127.998  0.00  0.00    -0.000 C 
ENDROOT
BRANCH   1   2
ATOM      2  C   LIG A   1      -8.812  -3.591 127.233  0.00  0.00    -0.000 C 
BRANCH   2   3
ATOM      3  C   LIG A   1      -9.241  -3.129 125.835  0.00  0.00    -0.000 C 
BRANCH   3   4
ATOM      4  C   LIG A   1      -8.978  -1.637 125.585  0.00  0.00    -0.000 C 
BRANCH   4   5
ATOM      5  C   LIG A   1      -8.857  -1.283 124.091  0.00  0.00    -0.000 C 
BRANCH   5   6
ATOM      6  C   LIG A   1      -7.404  -1.111 123.642  0.00  0.00    -0.000 C 
BRANCH   6   7
ATOM      7  C   LIG A   1      -6.496  -0.551 124.738  0.00  0.00    -0.000 C 
BRANCH   7   8
ATOM      8  C   LIG A   1      -5.391  -1.541 125.141  0.00  0.00    -0.000 C 
BRANCH   8   9
ATOM      9  C   LIG A   1      -5.597  -2.952 124.575  0.00  0.00    -0.000 C 
BRANCH   9  10
ATOM     10  C   LIG A   1      -4.541  -3.368 123.549  0.00  0.00    -0.003 C 
ATOM     11  C   LIG A   1      -4.335  -4.873 123.469  0.00  0.00    +0.004 C 
ENDBRANCH   9  10
ENDBRANCH   8   9
ENDBRANCH   7   8
ENDBRANCH   6   7
ENDBRANCH   5   6
ENDBRANCH   4   5
ENDBRANCH   3   4
ENDBRANCH   2   3
ENDBRANCH   1   2
BRANCH   1  12
ATOM     12  C   LIG A   1      -6.783  -2.887 128.624  0.00  0.00    +0.000 C 
BRANCH  12  13
ATOM     13  C   LIG A   1      -6.989  -3.459 130.035  0.00  0.00    +0.000 C 
BRANCH  13  14
ATOM     14  C   LIG A   1      -5.893  -4.459 130.423  0.00  0.00    +0.011 C 
BRANCH  14  15
ATOM     15  C   LIG A   1      -4.482  -3.931 130.152  0.00  0.00    +0.120 C 
BRANCH  15  16
ATOM     16  C   LIG A   1      -3.803  -3.364 131.364  0.00  0.00    +0.307 C 
ATOM     17  O   LIG A   1      -3.238  -4.053 132.211  0.00  0.00    -0.251 OA
BRANCH  16  18
ATOM     18  O   LIG A   1      -3.933  -2.012 131.411  0.00  0.00    -0.465 OA
BRANCH  18  19
ATOM     19  C   LIG A   1      -3.739  -1.335 130.162  0.00  0.00    +0.228 C 
ATOM     20  C   LIG A   1      -4.700  -0.166 130.044  0.00  0.00    +0.048 C 
ENDBRANCH  18  19
ENDBRANCH  16  18
ENDBRANCH  15  16
ENDBRANCH  14  15
ENDBRANCH  13  14
ENDBRANCH  12  13
ENDBRANCH   1  12
TORSDOF 16
ENDMDL
MODEL 4
REMARK VINA RESULT:      -4.7      3.600      7.273
REMARK  Name = NuBBE_1498
REMARK  18 active torsions:
REMARK  status: ('A' for Active; 'I' for Inactive)
REMARK    1  A    between atoms: C_1  and  C_2
REMARK    2  A    between atoms: C_1  and  C_15
REMARK    3  A    between atoms: C_2  and  C_3
REMARK    4  A    between atoms: C_3  and  C_4
REMARK    5  A    between atoms: C_4  and  C_5
REMARK    6  A    between atoms: C_5  and  C_6
REMARK    7  A    between atoms: C_6  and  C_7
REMARK    8  A    between atoms: C_7  and  C_8
REMARK    9  A    between atoms: C_8  and  C_9
REMARK   10  A    between atoms: C_9  and  C_10
REMARK   11  A    between atoms: C_10  and  C_11
REMARK   12  A    between atoms: C_11  and  C_12
REMARK   13  A    between atoms: C_12  and  C_13
REMARK   14  A    between atoms: C_13  and  C_14
REMARK   15  A    between atoms: C_15  and  C_16
REMARK   16  A    between atoms: C_16  and  O_18
REMARK   17  A    between atoms: O_18  and  C_19
REMARK   18  A    between atoms: C_19  and  C_20
REMARK                            x       y       z     vdW  Elec       q    Type
REMARK                         _______ _______ _______ _____ _____    ______ ____
ROOT
ATOM      1  C   LIG A   1      -6.520   0.253 125.091  0.00  0.00    -0.000 C 
ENDROOT
BRANCH   1   2
ATOM      2  C   LIG A   1      -5.996  -1.159 125.396  0.00  0.00    -0.000 C 
BRANCH   2   3
ATOM      3  C   LIG A   1      -5.672  -1.915 124.102  0.00  0.00    -0.000 C 
BRANCH   3   4
ATOM      4  C   LIG A   1      -6.918  -2.480 123.404  0.00  0.00    -0.000 C 
BRANCH   4   5
ATOM      5  C   LIG A   1      -7.703  -3.477 124.276  0.00  0.00    -0.000 C 
BRANCH   5   6
ATOM      6  C   LIG A   1      -9.177  -3.094 124.428  0.00  0.00    -0.000 C 
BRANCH   6   7
ATOM      7  C   LIG A   1      -9.597  -2.881 125.884  0.00  0.00    -0.000 C 
BRANCH   7   8
ATOM      8  C   LIG A   1      -8.652  -3.585 126.871  0.00  0.00    -0.000 C 
BRANCH   8   9
ATOM      9  C   LIG A   1      -8.079  -2.648 127.943  0.00  0.00    -0.000 C 
BRANCH   9  10
ATOM     10  C   LIG A   1      -8.138  -3.220 129.361  0.00  0.00    -0.003 C 
ATOM     11  C   LIG A   1      -6.796  -3.728 129.865  0.00  0.00    +0.004 C 
ENDBRANCH   9  10
ENDBRANCH   8   9
ENDBRANCH   7   8
ENDBRANCH   6   7
ENDBRANCH   5   6
ENDBRANCH   4   5
ENDBRANCH   3   4
ENDBRANCH   2   3
ENDBRANCH   1   2
BRANCH   1  12
ATOM     12  C   LIG A   1      -8.019   0.409 125.389  0.00  0.00    +0.000 C 
BRANCH  12  13
ATOM     13  C   LIG A   1      -8.599   1.649 124.691  0.00  0.00    +0.000 C 
BRANCH  13  14
ATOM     14  C   LIG A   1      -8.368   1.624 123.176  0.00  0.00    +0.011 C 
BRANCH  14  15
ATOM     15  C   LIG A   1      -8.062   3.008 122.597  0.00  0.00    +0.120 C 
BRANCH  15  16
ATOM     16  C   LIG A   1      -6.624   3.416 122.730  0.00  0.00    +0.307 C 
ATOM     17  O   LIG A   1      -6.144   3.891 123.757  0.00  0.00    -0.251 OA
BRANCH  16  18
ATOM     18  O   LIG A   1      -5.952   3.229 121.564  0.00  0.00    -0.465 OA
BRANCH  18  19
ATOM     19  C   LIG A   1      -6.491   3.921 120.429  0.00  0.00    +0.228 C 
ATOM     20  C   LIG A   1      -5.496   4.947 119.918  0.00  0.00    +0.048 C 
ENDBRANCH  18  19
ENDBRANCH  16  18
ENDBRANCH  15  16
ENDBRANCH  14  15
ENDBRANCH  13  14
ENDBRANCH  12  13
ENDBRANCH   1  12
TORSDOF 16
ENDMDL
MODEL 5
REMARK VINA RESULT:      -4.6      1.395      2.389
REMARK  Name = NuBBE_1498
REMARK  18 active torsions:
REMARK  status: ('A' for Active; 'I' for Inactive)
REMARK    1  A    between atoms: C_1  and  C_2
REMARK    2  A    between atoms: C_1  and  C_15
REMARK    3  A    between atoms: C_2  and  C_3
REMARK    4  A    between atoms: C_3  and  C_4
REMARK    5  A    between atoms: C_4  and  C_5
REMARK    6  A    between atoms: C_5  and  C_6
REMARK    7  A    between atoms: C_6  and  C_7
REMARK    8  A    between atoms: C_7  and  C_8
REMARK    9  A    between atoms: C_8  and  C_9
REMARK   10  A    between atoms: C_9  and  C_10
REMARK   11  A    between atoms: C_10  and  C_11
REMARK   12  A    between atoms: C_11  and  C_12
REMARK   13  A    between atoms: C_12  and  C_13
REMARK   14  A    between atoms: C_13  and  C_14
REMARK   15  A    between atoms: C_15  and  C_16
REMARK   16  A    between atoms: C_16  and  O_18
REMARK   17  A    between atoms: O_18  and  C_19
REMARK   18  A    between atoms: C_19  and  C_20
REMARK                            x       y       z     vdW  Elec       q    Type
REMARK                         _______ _______ _______ _____ _____    ______ ____
ROOT
ATOM      1  C   LIG A   1      -8.502  -3.701 126.364  0.00  0.00    -0.000 C 
ENDROOT
BRANCH   1   2
ATOM      2  C   LIG A   1      -9.271  -2.787 125.398  0.00  0.00    -0.000 C 
BRANCH   2   3
ATOM      3  C   LIG A   1      -9.346  -3.407 123.998  0.00  0.00    -0.000 C 
BRANCH   3   4
ATOM      4  C   LIG A   1      -8.767  -2.498 122.903  0.00  0.00    -0.000 C 
BRANCH   4   5
ATOM      5  C   LIG A   1      -7.632  -1.588 123.406  0.00  0.00    -0.000 C 
BRANCH   5   6
ATOM      6  C   LIG A   1      -6.259  -2.261 123.328  0.00  0.00    -0.000 C 
BRANCH   6   7
ATOM      7  C   LIG A   1      -5.558  -2.357 124.684  0.00  0.00    -0.000 C 
BRANCH   7   8
ATOM      8  C   LIG A   1      -5.441  -0.991 125.378  0.00  0.00    -0.000 C 
BRANCH   8   9
ATOM      9  C   LIG A   1      -6.041  -0.969 126.790  0.00  0.00    -0.000 C 
BRANCH   9  10
ATOM     10  C   LIG A   1      -7.333  -0.156 126.901  0.00  0.00    -0.003 C 
ATOM     11  C   LIG A   1      -7.691   0.218 128.332  0.00  0.00    +0.004 C 
ENDBRANCH   9  10
ENDBRANCH   8   9
ENDBRANCH   7   8
ENDBRANCH   6   7
ENDBRANCH   5   6
ENDBRANCH   4   5
ENDBRANCH   3   4
ENDBRANCH   2   3
ENDBRANCH   1   2
BRANCH   1  12
ATOM     12  C   LIG A   1      -8.912  -3.499 127.830  0.00  0.00    +0.000 C 
BRANCH  12  13
ATOM     13  C   LIG A   1      -7.706  -3.641 128.771  0.00  0.00    +0.000 C 
BRANCH  13  14
ATOM     14  C   LIG A   1      -7.945  -2.967 130.127  0.00  0.00    +0.011 C 
BRANCH  14  15
ATOM     15  C   LIG A   1      -6.844  -3.273 131.146  0.00  0.00    +0.120 C 
BRANCH  15  16
ATOM     16  C   LIG A   1      -5.754  -2.243 131.189  0.00  0.00    +0.307 C 
ATOM     17  O   LIG A   1      -5.959  -1.032 131.129  0.00  0.00    -0.251 OA
BRANCH  16  18
ATOM     18  O   LIG A   1      -4.529  -2.828 131.261  0.00  0.00    -0.465 OA
BRANCH  18  19
ATOM     19  C   LIG A   1      -3.627  -2.492 130.198  0.00  0.00    +0.228 C 
ATOM     20  C   LIG A   1      -3.994  -3.254 128.937  0.00  0.00    +0.048 C 
ENDBRANCH  18  19
ENDBRANCH  16  18
ENDBRANCH  15  16
ENDBRANCH  14  15
ENDBRANCH  13  14
ENDBRANCH  12  13
ENDBRANCH   1  12
TORSDOF 16
ENDMDL
MODEL 6
REMARK VINA RESULT:      -4.6      2.929      6.959
REMARK  Name = NuBBE_1498
REMARK  18 active torsions:
REMARK  status: ('A' for Active; 'I' for Inactive)
REMARK    1  A    between atoms: C_1  and  C_2
REMARK    2  A    between atoms: C_1  and  C_15
REMARK    3  A    between atoms: C_2  and  C_3
REMARK    4  A    between atoms: C_3  and  C_4
REMARK    5  A    between atoms: C_4  and  C_5
REMARK    6  A    between atoms: C_5  and  C_6
REMARK    7  A    between atoms: C_6  and  C_7
REMARK    8  A    between atoms: C_7  and  C_8
REMARK    9  A    between atoms: C_8  and  C_9
REMARK   10  A    between atoms: C_9  and  C_10
REMARK   11  A    between atoms: C_10  and  C_11
REMARK   12  A    between atoms: C_11  and  C_12
REMARK   13  A    between atoms: C_12  and  C_13
REMARK   14  A    between atoms: C_13  and  C_14
REMARK   15  A    between atoms: C_15  and  C_16
REMARK   16  A    between atoms: C_16  and  O_18
REMARK   17  A    between atoms: O_18  and  C_19
REMARK   18  A    between atoms: C_19  and  C_20
REMARK                            x       y       z     vdW  Elec       q    Type
REMARK                         _______ _______ _______ _____ _____    ______ ____
ROOT
ATOM      1  C   LIG A   1      -9.091  -3.960 127.685  0.00  0.00    -0.000 C 
ENDROOT
BRANCH   1   2
ATOM      2  C   LIG A   1      -8.444  -3.294 128.909  0.00  0.00    -0.000 C 
BRANCH   2   3
ATOM      3  C   LIG A   1      -7.407  -2.248 128.481  0.00  0.00    -0.000 C 
BRANCH   3   4
ATOM      4  C   LIG A   1      -7.165  -1.168 129.544  0.00  0.00    -0.000 C 
BRANCH   4   5
ATOM      5  C   LIG A   1      -7.868  -1.462 130.882  0.00  0.00    -0.000 C 
BRANCH   5   6
ATOM      6  C   LIG A   1      -6.890  -1.881 131.982  0.00  0.00    -0.000 C 
BRANCH   6   7
ATOM      7  C   LIG A   1      -7.086  -3.326 132.445  0.00  0.00    -0.000 C 
BRANCH   7   8
ATOM      8  C   LIG A   1      -5.807  -4.165 132.295  0.00  0.00    -0.000 C 
BRANCH   8   9
ATOM      9  C   LIG A   1      -5.394  -4.395 130.836  0.00  0.00    -0.000 C 
BRANCH   9  10
ATOM     10  C   LIG A   1      -4.068  -3.732 130.456  0.00  0.00    -0.003 C 
ATOM     11  C   LIG A   1      -3.979  -3.355 128.985  0.00  0.00    +0.004 C 
ENDBRANCH   9  10
ENDBRANCH   8   9
ENDBRANCH   7   8
ENDBRANCH   6   7
ENDBRANCH   5   6
ENDBRANCH   4   5
ENDBRANCH   3   4
ENDBRANCH   2   3
ENDBRANCH   1   2
BRANCH   1  12
ATOM     12  C   LIG A   1      -8.467  -3.502 126.358  0.00  0.00    +0.000 C 
BRANCH  12  13
ATOM     13  C   LIG A   1      -9.510  -2.830 125.454  0.00  0.00    +0.000 C 
BRANCH  13  14
ATOM     14  C   LIG A   1      -9.497  -3.397 124.029  0.00  0.00    +0.011 C 
BRANCH  14  15
ATOM     15  C   LIG A   1      -8.519  -2.666 123.106  0.00  0.00    +0.120 C 
BRANCH  15  16
ATOM     16  C   LIG A   1      -8.583  -1.170 123.216  0.00  0.00    +0.307 C 
ATOM     17  O   LIG A   1      -7.629  -0.472 123.551  0.00  0.00    -0.251 OA
BRANCH  16  18
ATOM     18  O   LIG A   1      -9.832  -0.712 122.936  0.00  0.00    -0.465 OA
BRANCH  18  19
ATOM     19  C   LIG A   1      -9.938   0.709 122.771  0.00  0.00    +0.228 C 
ATOM     20  C   LIG A   1     -10.460   1.348 124.046  0.00  0.00    +0.048 C 
ENDBRANCH  18  19
ENDBRANCH  16  18
ENDBRANCH  15  16
ENDBRANCH  14  15
ENDBRANCH  13  14
ENDBRANCH  12  13
ENDBRANCH   1  12
TORSDOF 16
ENDMDL
MODEL 7
REMARK VINA RESULT:      -4.5      2.400      6.569
REMARK  Name = NuBBE_1498
REMARK  18 active torsions:
REMARK  status: ('A' for Active; 'I' for Inactive)
REMARK    1  A    between atoms: C_1  and  C_2
REMARK    2  A    between atoms: C_1  and  C_15
REMARK    3  A    between atoms: C_2  and  C_3
REMARK    4  A    between atoms: C_3  and  C_4
REMARK    5  A    between atoms: C_4  and  C_5
REMARK    6  A    between atoms: C_5  and  C_6
REMARK    7  A    between atoms: C_6  and  C_7
REMARK    8  A    between atoms: C_7  and  C_8
REMARK    9  A    between atoms: C_8  and  C_9
REMARK   10  A    between atoms: C_9  and  C_10
REMARK   11  A    between atoms: C_10  and  C_11
REMARK   12  A    between atoms: C_11  and  C_12
REMARK   13  A    between atoms: C_12  and  C_13
REMARK   14  A    between atoms: C_13  and  C_14
REMARK   15  A    between atoms: C_15  and  C_16
REMARK   16  A    between atoms: C_16  and  O_18
REMARK   17  A    between atoms: O_18  and  C_19
REMARK   18  A    between atoms: C_19  and  C_20
REMARK                            x       y       z     vdW  Elec       q    Type
REMARK                         _______ _______ _______ _____ _____    ______ ____
ROOT
ATOM      1  C   LIG A   1      -7.449  -2.128 128.749  0.00  0.00    -0.000 C 
ENDROOT
BRANCH   1   2
ATOM      2  C   LIG A   1      -7.681  -1.141 129.903  0.00  0.00    -0.000 C 
BRANCH   2   3
ATOM      3  C   LIG A   1      -7.390  -1.801 131.256  0.00  0.00    -0.000 C 
BRANCH   3   4
ATOM      4  C   LIG A   1      -6.669  -0.868 132.240  0.00  0.00    -0.000 C 
BRANCH   4   5
ATOM      5  C   LIG A   1      -5.183  -1.219 132.433  0.00  0.00    -0.000 C 
BRANCH   5   6
ATOM      6  C   LIG A   1      -4.290  -0.623 131.341  0.00  0.00    -0.000 C 
BRANCH   6   7
ATOM      7  C   LIG A   1      -3.694  -1.679 130.408  0.00  0.00    -0.000 C 
BRANCH   7   8
ATOM      8  C   LIG A   1      -3.824  -3.101 130.978  0.00  0.00    -0.000 C 
BRANCH   8   9
ATOM      9  C   LIG A   1      -4.619  -4.052 130.074  0.00  0.00    -0.000 C 
BRANCH   9  10
ATOM     10  C   LIG A   1      -5.533  -5.013 130.837  0.00  0.00    -0.003 C 
ATOM     11  C   LIG A   1      -5.354  -4.946 132.347  0.00  0.00    +0.004 C 
ENDBRANCH   9  10
ENDBRANCH   8   9
ENDBRANCH   7   8
ENDBRANCH   6   7
ENDBRANCH   5   6
ENDBRANCH   4   5
ENDBRANCH   3   4
ENDBRANCH   2   3
ENDBRANCH   1   2
BRANCH   1  12
ATOM     12  C   LIG A   1      -8.183  -3.462 128.949  0.00  0.00    +0.000 C 
BRANCH  12  13
ATOM     13  C   LIG A   1      -8.954  -3.870 127.684  0.00  0.00    +0.000 C 
BRANCH  13  14
ATOM     14  C   LIG A   1      -8.674  -2.930 126.505  0.00  0.00    +0.011 C 
BRANCH  14  15
ATOM     15  C   LIG A   1      -8.358  -3.679 125.208  0.00  0.00    +0.120 C 
BRANCH  15  16
ATOM     16  C   LIG A   1      -7.378  -2.968 124.321  0.00  0.00    +0.307 C 
ATOM     17  O   LIG A   1      -7.651  -2.566 123.191  0.00  0.00    -0.251 OA
BRANCH  16  18
ATOM     18  O   LIG A   1      -6.160  -2.871 124.915  0.00  0.00    -0.465 OA
BRANCH  18  19
ATOM     19  C   LIG A   1      -5.037  -2.961 124.026  0.00  0.00    +0.228 C 
ATOM     20  C   LIG A   1      -4.688  -4.416 123.767  0.00  0.00    +0.048 C 
ENDBRANCH  18  19
ENDBRANCH  16  18
ENDBRANCH  15  16
ENDBRANCH  14  15
ENDBRANCH  13  14
ENDBRANCH  12  13
ENDBRANCH   1  12
TORSDOF 16
ENDMDL
MODEL 8
REMARK VINA RESULT:      -4.5      1.987      3.508
REMARK  Name = NuBBE_1498
REMARK  18 active torsions:
REMARK  status: ('A' for Active; 'I' for Inactive)
REMARK    1  A    between atoms: C_1  and  C_2
REMARK    2  A    between atoms: C_1  and  C_15
REMARK    3  A    between atoms: C_2  and  C_3
REMARK    4  A    between atoms: C_3  and  C_4
REMARK    5  A    between atoms: C_4  and  C_5
REMARK    6  A    between atoms: C_5  and  C_6
REMARK    7  A    between atoms: C_6  and  C_7
REMARK    8  A    between atoms: C_7  and  C_8
REMARK    9  A    between atoms: C_8  and  C_9
REMARK   10  A    between atoms: C_9  and  C_10
REMARK   11  A    between atoms: C_10  and  C_11
REMARK   12  A    between atoms: C_11  and  C_12
REMARK   13  A    between atoms: C_12  and  C_13
REMARK   14  A    between atoms: C_13  and  C_14
REMARK   15  A    between atoms: C_15  and  C_16
REMARK   16  A    between atoms: C_16  and  O_18
REMARK   17  A    between atoms: O_18  and  C_19
REMARK   18  A    between atoms: C_19  and  C_20
REMARK                            x       y       z     vdW  Elec       q    Type
REMARK                         _______ _______ _______ _____ _____    ______ ____
ROOT
ATOM      1  C   LIG A   1      -9.243  -2.798 123.513  0.00  0.00    -0.000 C 
ENDROOT
BRANCH   1   2
ATOM      2  C   LIG A   1      -8.307  -2.309 122.397  0.00  0.00    -0.000 C 
BRANCH   2   3
ATOM      3  C   LIG A   1      -6.961  -1.853 122.971  0.00  0.00    -0.000 C 
BRANCH   3   4
ATOM      4  C   LIG A   1      -6.907  -0.346 123.260  0.00  0.00    -0.000 C 
BRANCH   4   5
ATOM      5  C   LIG A   1      -6.514  -0.019 124.712  0.00  0.00    -0.000 C 
BRANCH   5   6
ATOM      6  C   LIG A   1      -7.579   0.803 125.441  0.00  0.00    -0.000 C 
BRANCH   6   7
ATOM      7  C   LIG A   1      -8.996   0.546 124.924  0.00  0.00    -0.000 C 
BRANCH   7   8
ATOM      8  C   LIG A   1      -9.682   1.833 124.440  0.00  0.00    -0.000 C 
BRANCH   8   9
ATOM      9  C   LIG A   1      -8.697   2.914 123.977  0.00  0.00    -0.000 C 
BRANCH   9  10
ATOM     10  C   LIG A   1      -8.483   2.951 122.462  0.00  0.00    -0.003 C 
ATOM     11  C   LIG A   1      -7.042   3.228 122.061  0.00  0.00    +0.004 C 
ENDBRANCH   9  10
ENDBRANCH   8   9
ENDBRANCH   7   8
ENDBRANCH   6   7
ENDBRANCH   5   6
ENDBRANCH   4   5
ENDBRANCH   3   4
ENDBRANCH   2   3
ENDBRANCH   1   2
BRANCH   1  12
ATOM     12  C   LIG A   1      -8.546  -3.737 124.507  0.00  0.00    +0.000 C 
BRANCH  12  13
ATOM     13  C   LIG A   1      -8.765  -3.277 125.957  0.00  0.00    +0.000 C 
BRANCH  13  14
ATOM     14  C   LIG A   1      -7.472  -2.771 126.607  0.00  0.00    +0.011 C 
BRANCH  14  15
ATOM     15  C   LIG A   1      -7.725  -1.940 127.868  0.00  0.00    +0.120 C 
BRANCH  15  16
ATOM     16  C   LIG A   1      -7.776  -2.751 129.129  0.00  0.00    +0.307 C 
ATOM     17  O   LIG A   1      -8.757  -3.407 129.477  0.00  0.00    -0.251 OA
BRANCH  16  18
ATOM     18  O   LIG A   1      -6.623  -2.628 129.838  0.00  0.00    -0.465 OA
BRANCH  18  19
ATOM     19  C   LIG A   1      -6.503  -3.505 130.967  0.00  0.00    +0.228 C 
ATOM     20  C   LIG A   1      -5.680  -4.726 130.598  0.00  0.00    +0.048 C 
ENDBRANCH  18  19
ENDBRANCH  16  18
ENDBRANCH  15  16
ENDBRANCH  14  15
ENDBRANCH  13  14
ENDBRANCH  12  13
ENDBRANCH   1  12
TORSDOF 16
ENDMDL
MODEL 9
REMARK VINA RESULT:      -4.5      1.941      3.859
REMARK  Name = NuBBE_1498
REMARK  18 active torsions:
REMARK  status: ('A' for Active; 'I' for Inactive)
REMARK    1  A    between atoms: C_1  and  C_2
REMARK    2  A    between atoms: C_1  and  C_15
REMARK    3  A    between atoms: C_2  and  C_3
REMARK    4  A    between atoms: C_3  and  C_4
REMARK    5  A    between atoms: C_4  and  C_5
REMARK    6  A    between atoms: C_5  and  C_6
REMARK    7  A    between atoms: C_6  and  C_7
REMARK    8  A    between atoms: C_7  and  C_8
REMARK    9  A    between atoms: C_8  and  C_9
REMARK   10  A    between atoms: C_9  and  C_10
REMARK   11  A    between atoms: C_10  and  C_11
REMARK   12  A    between atoms: C_11  and  C_12
REMARK   13  A    between atoms: C_12  and  C_13
REMARK   14  A    between atoms: C_13  and  C_14
REMARK   15  A    between atoms: C_15  and  C_16
REMARK   16  A    between atoms: C_16  and  O_18
REMARK   17  A    between atoms: O_18  and  C_19
REMARK   18  A    between atoms: C_19  and  C_20
REMARK                            x       y       z     vdW  Elec       q    Type
REMARK                         _______ _______ _______ _____ _____    ______ ____
ROOT
ATOM      1  C   LIG A   1      -6.885  -2.683 128.780  0.00  0.00    -0.000 C 
ENDROOT
BRANCH   1   2
ATOM      2  C   LIG A   1      -8.149  -3.516 129.046  0.00  0.00    -0.000 C 
BRANCH   2   3
ATOM      3  C   LIG A   1      -8.893  -3.817 127.740  0.00  0.00    -0.000 C 
BRANCH   3   4
ATOM      4  C   LIG A   1      -8.636  -2.772 126.644  0.00  0.00    -0.000 C 
BRANCH   4   5
ATOM      5  C   LIG A   1      -9.569  -2.923 125.429  0.00  0.00    -0.000 C 
BRANCH   5   6
ATOM      6  C   LIG A   1      -8.862  -3.530 124.215  0.00  0.00    -0.000 C 
BRANCH   6   7
ATOM      7  C   LIG A   1      -8.590  -2.513 123.105  0.00  0.00    -0.000 C 
BRANCH   7   8
ATOM      8  C   LIG A   1      -7.216  -1.840 123.255  0.00  0.00    -0.000 C 
BRANCH   8   9
ATOM      9  C   LIG A   1      -6.097  -2.816 123.642  0.00  0.00    -0.000 C 
BRANCH   9  10
ATOM     10  C   LIG A   1      -5.446  -2.507 124.993  0.00  0.00    -0.003 C 
ATOM     11  C   LIG A   1      -5.552  -1.044 125.394  0.00  0.00    +0.004 C 
ENDBRANCH   9  10
ENDBRANCH   8   9
ENDBRANCH   7   8
ENDBRANCH   6   7
ENDBRANCH   5   6
ENDBRANCH   4   5
ENDBRANCH   3   4
ENDBRANCH   2   3
ENDBRANCH   1   2
BRANCH   1  12
ATOM     12  C   LIG A   1      -5.671  -3.169 129.585  0.00  0.00    +0.000 C 
BRANCH  12  13
ATOM     13  C   LIG A   1      -6.097  -4.114 130.719  0.00  0.00    +0.000 C 
BRANCH  13  14
ATOM     14  C   LIG A   1      -5.623  -3.624 132.093  0.00  0.00    +0.011 C 
BRANCH  14  15
ATOM     15  C   LIG A   1      -5.800  -2.115 132.280  0.00  0.00    +0.120 C 
BRANCH  15  16
ATOM     16  C   LIG A   1      -7.106  -1.730 132.911  0.00  0.00    +0.307 C 
ATOM     17  O   LIG A   1      -7.284  -1.678 134.127  0.00  0.00    -0.251 OA
BRANCH  16  18
ATOM     18  O   LIG A   1      -8.055  -1.492 131.968  0.00  0.00    -0.465 OA
BRANCH  18  19
ATOM     19  C   LIG A   1      -8.015  -0.186 131.376  0.00  0.00    +0.228 C 
ATOM     20  C   LIG A   1      -9.237   0.614 131.787  0.00  0.00    +0.048 C 
ENDBRANCH  18  19
ENDBRANCH  16  18
ENDBRANCH  15  16
ENDBRANCH  14  15
ENDBRANCH  13  14
ENDBRANCH  12  13
ENDBRANCH   1  12
TORSDOF 16
ENDMDL
