MODEL 1
REMARK VINA RESULT:      -6.3      0.000      0.000
REMARK  Name = NuBBE_1020
REMARK  10 active torsions:
REMARK  status: ('A' for Active; 'I' for Inactive)
REMARK    1  A    between atoms: C_1  and  C_2
REMARK    2  A    between atoms: C_2  and  C_21
REMARK    3  A    between atoms: C_8  and  O_9
REMARK    4  A    between atoms: O_9  and  C_10
REMARK    5  A    between atoms: C_11  and  C_16
REMARK    6  A    between atoms: C_12  and  O_13
REMARK    7  A    between atoms: O_13  and  C_14
REMARK    8  A    between atoms: C_16  and  C_17
REMARK    9  A    between atoms: C_17  and  C_18
REMARK   10  A    between atoms: C_18  and  O_19
REMARK                            x       y       z     vdW  Elec       q    Type
REMARK                         _______ _______ _______ _____ _____    ______ ____
ROOT
ATOM      1  C   LIG A   1      -8.237  -1.796 130.201  0.00  0.00    +0.060 C 
ATOM      2  C   LIG A   1      -7.456  -2.823 129.366  0.00  0.00    +0.123 C 
ATOM      3  O   LIG A   1      -6.468  -2.118 128.583  0.00  0.00    -0.481 OA
ATOM      4  C   LIG A   1      -6.892  -1.620 127.370  0.00  0.00    +0.136 A 
ATOM      5  C   LIG A   1      -7.964  -2.143 126.636  0.00  0.00    +0.059 A 
ATOM      6  C   LIG A   1      -8.584  -3.360 127.201  0.00  0.00    +0.015 C 
ATOM      7  C   LIG A   1      -8.367  -3.656 128.494  0.00  0.00    +0.020 C 
ATOM      8  C   LIG A   1      -8.358  -1.494 125.415  0.00  0.00    +0.137 A 
ATOM      9  C   LIG A   1      -7.577  -0.417 124.872  0.00  0.00    +0.037 A 
ATOM     10  C   LIG A   1      -6.439   0.019 125.617  0.00  0.00    +0.130 A 
ATOM     11  C   LIG A   1      -6.154  -0.554 126.870  0.00  0.00    +0.092 A 
ATOM     12  C   LIG A   1      -6.683  -3.751 130.324  0.00  0.00    +0.060 C 
ENDROOT
BRANCH   8  13
ATOM     13  O   LIG A   1      -9.483  -2.019 124.807  0.00  0.00    -0.494 OA
ATOM     14  C   LIG A   1      -9.356  -2.970 123.751  0.00  0.00    +0.277 C 
ENDBRANCH   8  13
BRANCH  10  15
ATOM     15  O   LIG A   1      -5.473   0.959 125.292  0.00  0.00    -0.495 OA
ATOM     16  C   LIG A   1      -4.859   1.697 126.321  0.00  0.00    +0.277 C 
ENDBRANCH  10  15
BRANCH   9  17
ATOM     17  C   LIG A   1      -7.886   0.185 123.502  0.00  0.00    +0.053 C 
BRANCH  17  18
ATOM     18  C   LIG A   1      -8.850   1.428 123.519  0.00  0.00    +0.125 C 
BRANCH  18  19
ATOM     19  C   LIG A   1     -10.290   0.982 123.211  0.00  0.00    +0.305 C 
ATOM     20  O   LIG A   1     -10.680   0.318 122.318  0.00  0.00    -0.251 OA
BRANCH  19  21
ATOM     21  O   LIG A   1     -11.129   1.427 124.172  0.00  0.00    -0.481 OA
ATOM     22  H   LIG A   1     -11.180   0.652 124.774  0.00  0.00    +0.295 HD
ENDBRANCH  19  21
ENDBRANCH  18  19
ENDBRANCH  17  18
ENDBRANCH   9  17
TORSDOF 6
ENDMDL
MODEL 2
REMARK VINA RESULT:      -6.2      2.854      4.413
REMARK  Name = NuBBE_1020
REMARK  10 active torsions:
REMARK  status: ('A' for Active; 'I' for Inactive)
REMARK    1  A    between atoms: C_1  and  C_2
REMARK    2  A    between atoms: C_2  and  C_21
REMARK    3  A    between atoms: C_8  and  O_9
REMARK    4  A    between atoms: O_9  and  C_10
REMARK    5  A    between atoms: C_11  and  C_16
REMARK    6  A    between atoms: C_12  and  O_13
REMARK    7  A    between atoms: O_13  and  C_14
REMARK    8  A    between atoms: C_16  and  C_17
REMARK    9  A    between atoms: C_17  and  C_18
REMARK   10  A    between atoms: C_18  and  O_19
REMARK                            x       y       z     vdW  Elec       q    Type
REMARK                         _______ _______ _______ _____ _____    ______ ____
ROOT
ATOM      1  C   LIG A   1      -7.115  -3.791 124.427  0.00  0.00    +0.060 C 
ATOM      2  C   LIG A   1      -5.984  -2.855 123.971  0.00  0.00    +0.123 C 
ATOM      3  O   LIG A   1      -5.461  -2.173 125.133  0.00  0.00    -0.481 OA
ATOM      4  C   LIG A   1      -6.115  -1.019 125.509  0.00  0.00    +0.136 A 
ATOM      5  C   LIG A   1      -6.856  -0.214 124.635  0.00  0.00    +0.059 A 
ATOM      6  C   LIG A   1      -6.826  -0.625 123.216  0.00  0.00    +0.015 C 
ATOM      7  C   LIG A   1      -6.446  -1.879 122.914  0.00  0.00    +0.020 C 
ATOM      8  C   LIG A   1      -7.552   0.929 125.160  0.00  0.00    +0.137 A 
ATOM      9  C   LIG A   1      -7.374   1.333 126.527  0.00  0.00    +0.037 A 
ATOM     10  C   LIG A   1      -6.533   0.526 127.353  0.00  0.00    +0.130 A 
ATOM     11  C   LIG A   1      -5.968  -0.657 126.842  0.00  0.00    +0.092 A 
ATOM     12  C   LIG A   1      -4.834  -3.711 123.404  0.00  0.00    +0.060 C 
ENDROOT
BRANCH   8  13
ATOM     13  O   LIG A   1      -8.335   1.611 124.246  0.00  0.00    -0.494 OA
ATOM     14  C   LIG A   1      -9.744   1.391 124.195  0.00  0.00    +0.277 C 
ENDBRANCH   8  13
BRANCH  10  15
ATOM     15  O   LIG A   1      -6.119   0.726 128.661  0.00  0.00    -0.495 OA
ATOM     16  C   LIG A   1      -4.889   1.366 128.901  0.00  0.00    +0.277 C 
ENDBRANCH  10  15
BRANCH   9  17
ATOM     17  C   LIG A   1      -7.979   2.629 127.065  0.00  0.00    +0.053 C 
BRANCH  17  18
ATOM     18  C   LIG A   1      -7.226   3.945 126.646  0.00  0.00    +0.125 C 
BRANCH  18  19
ATOM     19  C   LIG A   1      -8.125   4.799 125.736  0.00  0.00    +0.305 C 
ATOM     20  O   LIG A   1      -8.916   5.619 126.042  0.00  0.00    -0.251 OA
BRANCH  19  21
ATOM     21  O   LIG A   1      -7.867   4.527 124.439  0.00  0.00    -0.481 OA
ATOM     22  H   LIG A   1      -8.097   5.376 124.000  0.00  0.00    +0.295 HD
ENDBRANCH  19  21
ENDBRANCH  18  19
ENDBRANCH  17  18
ENDBRANCH   9  17
TORSDOF 6
ENDMDL
MODEL 3
REMARK VINA RESULT:      -6.1      7.790     10.482
REMARK  Name = NuBBE_1020
REMARK  10 active torsions:
REMARK  status: ('A' for Active; 'I' for Inactive)
REMARK    1  A    between atoms: C_1  and  C_2
REMARK    2  A    between atoms: C_2  and  C_21
REMARK    3  A    between atoms: C_8  and  O_9
REMARK    4  A    between atoms: O_9  and  C_10
REMARK    5  A    between atoms: C_11  and  C_16
REMARK    6  A    between atoms: C_12  and  O_13
REMARK    7  A    between atoms: O_13  and  C_14
REMARK    8  A    between atoms: C_16  and  C_17
REMARK    9  A    between atoms: C_17  and  C_18
REMARK   10  A    between atoms: C_18  and  O_19
REMARK                            x       y       z     vdW  Elec       q    Type
REMARK                         _______ _______ _______ _____ _____    ______ ____
ROOT
ATOM      1  C   LIG A   1     -13.114   7.241 130.303  0.00  0.00    +0.060 C 
ATOM      2  C   LIG A   1     -12.121   6.908 129.178  0.00  0.00    +0.123 C 
ATOM      3  O   LIG A   1     -11.755   5.515 129.290  0.00  0.00    -0.481 OA
ATOM      4  C   LIG A   1     -10.714   5.224 130.145  0.00  0.00    +0.136 A 
ATOM      5  C   LIG A   1      -9.703   6.130 130.491  0.00  0.00    +0.059 A 
ATOM      6  C   LIG A   1      -9.756   7.433 129.798  0.00  0.00    +0.015 C 
ATOM      7  C   LIG A   1     -10.906   7.807 129.210  0.00  0.00    +0.020 C 
ATOM      8  C   LIG A   1      -8.707   5.732 131.450  0.00  0.00    +0.137 A 
ATOM      9  C   LIG A   1      -8.654   4.381 131.934  0.00  0.00    +0.037 A 
ATOM     10  C   LIG A   1      -9.657   3.471 131.478  0.00  0.00    +0.130 A 
ATOM     11  C   LIG A   1     -10.691   3.925 130.639  0.00  0.00    +0.092 A 
ATOM     12  C   LIG A   1     -12.837   7.071 127.824  0.00  0.00    +0.060 C 
ENDROOT
BRANCH   8  13
ATOM     13  O   LIG A   1      -7.806   6.718 131.804  0.00  0.00    -0.494 OA
ATOM     14  C   LIG A   1      -6.538   6.807 131.154  0.00  0.00    +0.277 C 
ENDBRANCH   8  13
BRANCH  10  15
ATOM     15  O   LIG A   1      -9.792   2.111 131.708  0.00  0.00    -0.495 OA
ATOM     16  C   LIG A   1      -8.926   1.215 131.052  0.00  0.00    +0.277 C 
ENDBRANCH  10  15
BRANCH   9  17
ATOM     17  C   LIG A   1      -7.516   3.895 132.831  0.00  0.00    +0.053 C 
BRANCH  17  18
ATOM     18  C   LIG A   1      -7.824   3.912 134.373  0.00  0.00    +0.125 C 
BRANCH  18  19
ATOM     19  C   LIG A   1      -7.367   5.246 134.987  0.00  0.00    +0.305 C 
ATOM     20  O   LIG A   1      -6.389   5.864 134.761  0.00  0.00    -0.251 OA
BRANCH  19  21
ATOM     21  O   LIG A   1      -8.299   5.702 135.853  0.00  0.00    -0.481 OA
ATOM     22  H   LIG A   1      -8.470   4.909 136.408  0.00  0.00    +0.295 HD
ENDBRANCH  19  21
ENDBRANCH  18  19
ENDBRANCH  17  18
ENDBRANCH   9  17
TORSDOF 6
ENDMDL
MODEL 4
REMARK VINA RESULT:      -6.0      2.921      5.223
REMARK  Name = NuBBE_1020
REMARK  10 active torsions:
REMARK  status: ('A' for Active; 'I' for Inactive)
REMARK    1  A    between atoms: C_1  and  C_2
REMARK    2  A    between atoms: C_2  and  C_21
REMARK    3  A    between atoms: C_8  and  O_9
REMARK    4  A    between atoms: O_9  and  C_10
REMARK    5  A    between atoms: C_11  and  C_16
REMARK    6  A    between atoms: C_12  and  O_13
REMARK    7  A    between atoms: O_13  and  C_14
REMARK    8  A    between atoms: C_16  and  C_17
REMARK    9  A    between atoms: C_17  and  C_18
REMARK   10  A    between atoms: C_18  and  O_19
REMARK                            x       y       z     vdW  Elec       q    Type
REMARK                         _______ _______ _______ _____ _____    ______ ____
ROOT
ATOM      1  C   LIG A   1      -7.374  -2.550 123.505  0.00  0.00    +0.060 C 
ATOM      2  C   LIG A   1      -8.691  -2.768 124.268  0.00  0.00    +0.123 C 
ATOM      3  O   LIG A   1      -9.214  -1.476 124.650  0.00  0.00    -0.481 OA
ATOM      4  C   LIG A   1      -8.743  -0.953 125.834  0.00  0.00    +0.136 A 
ATOM      5  C   LIG A   1      -8.241  -1.723 126.891  0.00  0.00    +0.059 A 
ATOM      6  C   LIG A   1      -8.331  -3.187 126.706  0.00  0.00    +0.015 C 
ATOM      7  C   LIG A   1      -8.511  -3.671 125.466  0.00  0.00    +0.020 C 
ATOM      8  C   LIG A   1      -7.711  -1.058 128.051  0.00  0.00    +0.137 A 
ATOM      9  C   LIG A   1      -7.829   0.366 128.197  0.00  0.00    +0.037 A 
ATOM     10  C   LIG A   1      -8.432   1.096 127.127  0.00  0.00    +0.130 A 
ATOM     11  C   LIG A   1      -8.825   0.429 125.952  0.00  0.00    +0.092 A 
ATOM     12  C   LIG A   1      -9.720  -3.396 123.308  0.00  0.00    +0.060 C 
ENDROOT
BRANCH   8  13
ATOM     13  O   LIG A   1      -7.152  -1.891 129.001  0.00  0.00    -0.494 OA
ATOM     14  C   LIG A   1      -5.747  -2.145 129.003  0.00  0.00    +0.277 C 
ENDBRANCH   8  13
BRANCH  10  15
ATOM     15  O   LIG A   1      -8.750   2.443 127.040  0.00  0.00    -0.495 OA
ATOM     16  C   LIG A   1      -7.773   3.351 126.591  0.00  0.00    +0.277 C 
ENDBRANCH  10  15
BRANCH   9  17
ATOM     17  C   LIG A   1      -7.415   1.077 129.485  0.00  0.00    +0.053 C 
BRANCH  17  18
ATOM     18  C   LIG A   1      -8.585   1.372 130.493  0.00  0.00    +0.125 C 
BRANCH  18  19
ATOM     19  C   LIG A   1      -8.893   2.879 130.517  0.00  0.00    +0.305 C 
ATOM     20  O   LIG A   1      -8.379   3.726 131.157  0.00  0.00    -0.251 OA
BRANCH  19  21
ATOM     21  O   LIG A   1      -9.863   3.169 129.623  0.00  0.00    -0.481 OA
ATOM     22  H   LIG A   1     -10.078   2.282 129.258  0.00  0.00    +0.295 HD
ENDBRANCH  19  21
ENDBRANCH  18  19
ENDBRANCH  17  18
ENDBRANCH   9  17
TORSDOF 6
ENDMDL
MODEL 5
REMARK VINA RESULT:      -5.9      2.433      5.649
REMARK  Name = NuBBE_1020
REMARK  10 active torsions:
REMARK  status: ('A' for Active; 'I' for Inactive)
REMARK    1  A    between atoms: C_1  and  C_2
REMARK    2  A    between atoms: C_2  and  C_21
REMARK    3  A    between atoms: C_8  and  O_9
REMARK    4  A    between atoms: O_9  and  C_10
REMARK    5  A    between atoms: C_11  and  C_16
REMARK    6  A    between atoms: C_12  and  O_13
REMARK    7  A    between atoms: O_13  and  C_14
REMARK    8  A    between atoms: C_16  and  C_17
REMARK    9  A    between atoms: C_17  and  C_18
REMARK   10  A    between atoms: C_18  and  O_19
REMARK                            x       y       z     vdW  Elec       q    Type
REMARK                         _______ _______ _______ _____ _____    ______ ____
ROOT
ATOM      1  C   LIG A   1      -7.366  -2.529 123.506  0.00  0.00    +0.060 C 
ATOM      2  C   LIG A   1      -8.688  -2.738 124.262  0.00  0.00    +0.123 C 
ATOM      3  O   LIG A   1      -9.180  -1.447 124.686  0.00  0.00    -0.481 OA
ATOM      4  C   LIG A   1      -8.696  -0.973 125.886  0.00  0.00    +0.136 A 
ATOM      5  C   LIG A   1      -8.214  -1.789 126.917  0.00  0.00    +0.059 A 
ATOM      6  C   LIG A   1      -8.340  -3.243 126.686  0.00  0.00    +0.015 C 
ATOM      7  C   LIG A   1      -8.530  -3.683 125.431  0.00  0.00    +0.020 C 
ATOM      8  C   LIG A   1      -7.669  -1.174 128.098  0.00  0.00    +0.137 A 
ATOM      9  C   LIG A   1      -7.752   0.248 128.289  0.00  0.00    +0.037 A 
ATOM     10  C   LIG A   1      -8.336   1.025 127.243  0.00  0.00    +0.130 A 
ATOM     11  C   LIG A   1      -8.745   0.406 126.048  0.00  0.00    +0.092 A 
ATOM     12  C   LIG A   1      -9.731  -3.310 123.283  0.00  0.00    +0.060 C 
ENDROOT
BRANCH   8  13
ATOM     13  O   LIG A   1      -7.130  -2.050 129.021  0.00  0.00    -0.494 OA
ATOM     14  C   LIG A   1      -5.733  -2.343 129.010  0.00  0.00    +0.277 C 
ENDBRANCH   8  13
BRANCH  10  15
ATOM     15  O   LIG A   1      -8.621   2.382 127.200  0.00  0.00    -0.495 OA
ATOM     16  C   LIG A   1      -7.878   3.212 126.339  0.00  0.00    +0.277 C 
ENDBRANCH  10  15
BRANCH   9  17
ATOM     17  C   LIG A   1      -7.321   0.906 129.599  0.00  0.00    +0.053 C 
BRANCH  17  18
ATOM     18  C   LIG A   1      -8.429   0.968 130.713  0.00  0.00    +0.125 C 
BRANCH  18  19
ATOM     19  C   LIG A   1      -7.945   0.238 131.978  0.00  0.00    +0.305 C 
ATOM     20  O   LIG A   1      -7.791   0.669 133.064  0.00  0.00    -0.251 OA
BRANCH  19  21
ATOM     21  O   LIG A   1      -7.741  -1.070 131.709  0.00  0.00    -0.481 OA
ATOM     22  H   LIG A   1      -6.825  -1.066 131.352  0.00  0.00    +0.295 HD
ENDBRANCH  19  21
ENDBRANCH  18  19
ENDBRANCH  17  18
ENDBRANCH   9  17
TORSDOF 6
ENDMDL
MODEL 6
REMARK VINA RESULT:      -5.9      1.775      3.440
REMARK  Name = NuBBE_1020
REMARK  10 active torsions:
REMARK  status: ('A' for Active; 'I' for Inactive)
REMARK    1  A    between atoms: C_1  and  C_2
REMARK    2  A    between atoms: C_2  and  C_21
REMARK    3  A    between atoms: C_8  and  O_9
REMARK    4  A    between atoms: O_9  and  C_10
REMARK    5  A    between atoms: C_11  and  C_16
REMARK    6  A    between atoms: C_12  and  O_13
REMARK    7  A    between atoms: O_13  and  C_14
REMARK    8  A    between atoms: C_16  and  C_17
REMARK    9  A    between atoms: C_17  and  C_18
REMARK   10  A    between atoms: C_18  and  O_19
REMARK                            x       y       z     vdW  Elec       q    Type
REMARK                         _______ _______ _______ _____ _____    ______ ____
ROOT
ATOM      1  C   LIG A   1      -4.890  -3.036 128.870  0.00  0.00    +0.060 C 
ATOM      2  C   LIG A   1      -6.213  -2.854 129.631  0.00  0.00    +0.123 C 
ATOM      3  O   LIG A   1      -7.298  -3.233 128.756  0.00  0.00    -0.481 OA
ATOM      4  C   LIG A   1      -7.775  -2.252 127.914  0.00  0.00    +0.136 A 
ATOM      5  C   LIG A   1      -7.675  -0.879 128.170  0.00  0.00    +0.059 A 
ATOM      6  C   LIG A   1      -7.095  -0.519 129.481  0.00  0.00    +0.015 C 
ATOM      7  C   LIG A   1      -6.382  -1.443 130.147  0.00  0.00    +0.020 C 
ATOM      8  C   LIG A   1      -8.149   0.052 127.182  0.00  0.00    +0.137 A 
ATOM      9  C   LIG A   1      -8.850  -0.410 126.016  0.00  0.00    +0.037 A 
ATOM     10  C   LIG A   1      -9.003  -1.820 125.848  0.00  0.00    +0.130 A 
ATOM     11  C   LIG A   1      -8.418  -2.707 126.770  0.00  0.00    +0.092 A 
ATOM     12  C   LIG A   1      -6.237  -3.835 130.819  0.00  0.00    +0.060 C 
ENDROOT
BRANCH   8  13
ATOM     13  O   LIG A   1      -7.925   1.384 127.475  0.00  0.00    -0.494 OA
ATOM     14  C   LIG A   1      -6.724   2.027 127.047  0.00  0.00    +0.277 C 
ENDBRANCH   8  13
BRANCH  10  15
ATOM     15  O   LIG A   1      -9.702  -2.527 124.881  0.00  0.00    -0.495 OA
ATOM     16  C   LIG A   1      -9.017  -2.992 123.742  0.00  0.00    +0.277 C 
ENDBRANCH  10  15
BRANCH   9  17
ATOM     17  C   LIG A   1      -9.496   0.565 125.031  0.00  0.00    +0.053 C 
BRANCH  17  18
ATOM     18  C   LIG A   1      -8.538   1.123 123.916  0.00  0.00    +0.125 C 
BRANCH  18  19
ATOM     19  C   LIG A   1      -8.858   2.602 123.639  0.00  0.00    +0.305 C 
ATOM     20  O   LIG A   1      -8.871   3.172 122.607  0.00  0.00    -0.251 OA
BRANCH  19  21
ATOM     21  O   LIG A   1      -9.196   3.227 124.788  0.00  0.00    -0.481 OA
ATOM     22  H   LIG A   1      -9.877   3.867 124.481  0.00  0.00    +0.295 HD
ENDBRANCH  19  21
ENDBRANCH  18  19
ENDBRANCH  17  18
ENDBRANCH   9  17
TORSDOF 6
ENDMDL
MODEL 7
REMARK VINA RESULT:      -5.9      2.427      5.425
REMARK  Name = NuBBE_1020
REMARK  10 active torsions:
REMARK  status: ('A' for Active; 'I' for Inactive)
REMARK    1  A    between atoms: C_1  and  C_2
REMARK    2  A    between atoms: C_2  and  C_21
REMARK    3  A    between atoms: C_8  and  O_9
REMARK    4  A    between atoms: O_9  and  C_10
REMARK    5  A    between atoms: C_11  and  C_16
REMARK    6  A    between atoms: C_12  and  O_13
REMARK    7  A    between atoms: O_13  and  C_14
REMARK    8  A    between atoms: C_16  and  C_17
REMARK    9  A    between atoms: C_17  and  C_18
REMARK   10  A    between atoms: C_18  and  O_19
REMARK                            x       y       z     vdW  Elec       q    Type
REMARK                         _______ _______ _______ _____ _____    ______ ____
ROOT
ATOM      1  C   LIG A   1      -2.100   3.090 126.730  0.00  0.00    +0.060 C 
ATOM      2  C   LIG A   1      -3.387   3.517 127.455  0.00  0.00    +0.123 C 
ATOM      3  O   LIG A   1      -4.266   2.374 127.534  0.00  0.00    -0.481 OA
ATOM      4  C   LIG A   1      -5.083   2.155 126.446  0.00  0.00    +0.136 A 
ATOM      5  C   LIG A   1      -5.494   3.155 125.557  0.00  0.00    +0.059 A 
ATOM      6  C   LIG A   1      -5.071   4.527 125.907  0.00  0.00    +0.015 C 
ATOM      7  C   LIG A   1      -4.058   4.689 126.776  0.00  0.00    +0.020 C 
ATOM      8  C   LIG A   1      -6.291   2.792 124.416  0.00  0.00    +0.137 A 
ATOM      9  C   LIG A   1      -6.787   1.452 124.265  0.00  0.00    +0.037 A 
ATOM     10  C   LIG A   1      -6.411   0.489 125.251  0.00  0.00    +0.130 A 
ATOM     11  C   LIG A   1      -5.527   0.848 126.286  0.00  0.00    +0.092 A 
ATOM     12  C   LIG A   1      -3.032   3.906 128.903  0.00  0.00    +0.060 C 
ENDROOT
BRANCH   8  13
ATOM     13  O   LIG A   1      -6.571   3.825 123.542  0.00  0.00    -0.494 OA
ATOM     14  C   LIG A   1      -5.791   4.004 122.360  0.00  0.00    +0.277 C 
ENDBRANCH   8  13
BRANCH  10  15
ATOM     15  O   LIG A   1      -6.811  -0.830 125.401  0.00  0.00    -0.495 OA
ATOM     16  C   LIG A   1      -7.953  -1.117 126.172  0.00  0.00    +0.277 C 
ENDBRANCH  10  15
BRANCH   9  17
ATOM     17  C   LIG A   1      -7.760   1.079 123.147  0.00  0.00    +0.053 C 
BRANCH  17  18
ATOM     18  C   LIG A   1      -9.037   1.991 123.039  0.00  0.00    +0.125 C 
BRANCH  18  19
ATOM     19  C   LIG A   1     -10.309   1.131 123.133  0.00  0.00    +0.305 C 
ATOM     20  O   LIG A   1     -10.680   0.283 122.402  0.00  0.00    -0.251 OA
BRANCH  19  21
ATOM     21  O   LIG A   1     -10.994   1.437 124.256  0.00  0.00    -0.481 OA
ATOM     22  H   LIG A   1     -11.879   1.672 123.899  0.00  0.00    +0.295 HD
ENDBRANCH  19  21
ENDBRANCH  18  19
ENDBRANCH  17  18
ENDBRANCH   9  17
TORSDOF 6
ENDMDL
MODEL 8
REMARK VINA RESULT:      -5.8      2.737      5.308
REMARK  Name = NuBBE_1020
REMARK  10 active torsions:
REMARK  status: ('A' for Active; 'I' for Inactive)
REMARK    1  A    between atoms: C_1  and  C_2
REMARK    2  A    between atoms: C_2  and  C_21
REMARK    3  A    between atoms: C_8  and  O_9
REMARK    4  A    between atoms: O_9  and  C_10
REMARK    5  A    between atoms: C_11  and  C_16
REMARK    6  A    between atoms: C_12  and  O_13
REMARK    7  A    between atoms: O_13  and  C_14
REMARK    8  A    between atoms: C_16  and  C_17
REMARK    9  A    between atoms: C_17  and  C_18
REMARK   10  A    between atoms: C_18  and  O_19
REMARK                            x       y       z     vdW  Elec       q    Type
REMARK                         _______ _______ _______ _____ _____    ______ ____
ROOT
ATOM      1  C   LIG A   1      -7.401  -2.638 123.416  0.00  0.00    +0.060 C 
ATOM      2  C   LIG A   1      -8.799  -2.326 123.974  0.00  0.00    +0.123 C 
ATOM      3  O   LIG A   1      -9.295  -1.136 123.322  0.00  0.00    -0.481 OA
ATOM      4  C   LIG A   1      -8.925   0.066 123.883  0.00  0.00    +0.136 A 
ATOM      5  C   LIG A   1      -8.574   0.233 125.228  0.00  0.00    +0.059 A 
ATOM      6  C   LIG A   1      -8.715  -0.970 126.074  0.00  0.00    +0.015 C 
ATOM      7  C   LIG A   1      -8.788  -2.173 125.478  0.00  0.00    +0.020 C 
ATOM      8  C   LIG A   1      -8.136   1.526 125.681  0.00  0.00    +0.137 A 
ATOM      9  C   LIG A   1      -8.199   2.668 124.811  0.00  0.00    +0.037 A 
ATOM     10  C   LIG A   1      -8.650   2.458 123.472  0.00  0.00    +0.130 A 
ATOM     11  C   LIG A   1      -8.951   1.159 123.024  0.00  0.00    +0.092 A 
ATOM     12  C   LIG A   1      -9.751  -3.475 123.588  0.00  0.00    +0.060 C 
ENDROOT
BRANCH   8  13
ATOM     13  O   LIG A   1      -7.719   1.577 126.998  0.00  0.00    -0.494 OA
ATOM     14  C   LIG A   1      -8.651   1.861 128.041  0.00  0.00    +0.277 C 
ENDBRANCH   8  13
BRANCH  10  15
ATOM     15  O   LIG A   1      -8.891   3.379 122.463  0.00  0.00    -0.495 OA
ATOM     16  C   LIG A   1      -7.954   3.517 121.422  0.00  0.00    +0.277 C 
ENDBRANCH  10  15
BRANCH   9  17
ATOM     17  C   LIG A   1      -7.886   4.077 125.314  0.00  0.00    +0.053 C 
BRANCH  17  18
ATOM     18  C   LIG A   1      -6.465   4.627 124.925  0.00  0.00    +0.125 C 
BRANCH  18  19
ATOM     19  C   LIG A   1      -5.453   4.307 126.038  0.00  0.00    +0.305 C 
ATOM     20  O   LIG A   1      -4.279   4.226 125.966  0.00  0.00    -0.251 OA
BRANCH  19  21
ATOM     21  O   LIG A   1      -6.093   4.159 127.219  0.00  0.00    -0.481 OA
ATOM     22  H   LIG A   1      -6.659   3.373 127.049  0.00  0.00    +0.295 HD
ENDBRANCH  19  21
ENDBRANCH  18  19
ENDBRANCH  17  18
ENDBRANCH   9  17
TORSDOF 6
ENDMDL
MODEL 9
REMARK VINA RESULT:      -5.8      6.782      9.351
REMARK  Name = NuBBE_1020
REMARK  10 active torsions:
REMARK  status: ('A' for Active; 'I' for Inactive)
REMARK    1  A    between atoms: C_1  and  C_2
REMARK    2  A    between atoms: C_2  and  C_21
REMARK    3  A    between atoms: C_8  and  O_9
REMARK    4  A    between atoms: O_9  and  C_10
REMARK    5  A    between atoms: C_11  and  C_16
REMARK    6  A    between atoms: C_12  and  O_13
REMARK    7  A    between atoms: O_13  and  C_14
REMARK    8  A    between atoms: C_16  and  C_17
REMARK    9  A    between atoms: C_17  and  C_18
REMARK   10  A    between atoms: C_18  and  O_19
REMARK                            x       y       z     vdW  Elec       q    Type
REMARK                         _______ _______ _______ _____ _____    ______ ____
ROOT
ATOM      1  C   LIG A   1     -12.546   7.156 131.313  0.00  0.00    +0.060 C 
ATOM      2  C   LIG A   1     -12.191   6.882 129.842  0.00  0.00    +0.123 C 
ATOM      3  O   LIG A   1     -11.897   5.475 129.698  0.00  0.00    -0.481 OA
ATOM      4  C   LIG A   1     -10.602   5.091 129.968  0.00  0.00    +0.136 A 
ATOM      5  C   LIG A   1      -9.492   5.939 129.865  0.00  0.00    +0.059 A 
ATOM      6  C   LIG A   1      -9.775   7.293 129.345  0.00  0.00    +0.015 C 
ATOM      7  C   LIG A   1     -11.042   7.741 129.367  0.00  0.00    +0.020 C 
ATOM      8  C   LIG A   1      -8.196   5.442 130.241  0.00  0.00    +0.137 A 
ATOM      9  C   LIG A   1      -8.010   4.056 130.573  0.00  0.00    +0.037 A 
ATOM     10  C   LIG A   1      -9.163   3.213 130.574  0.00  0.00    +0.130 A 
ATOM     11  C   LIG A   1     -10.436   3.758 130.324  0.00  0.00    +0.092 A 
ATOM     12  C   LIG A   1     -13.432   7.168 128.974  0.00  0.00    +0.060 C 
ENDROOT
BRANCH   8  13
ATOM     13  O   LIG A   1      -7.175   6.373 130.200  0.00  0.00    -0.494 OA
ATOM     14  C   LIG A   1      -6.575   6.842 131.407  0.00  0.00    +0.277 C 
ENDBRANCH   8  13
BRANCH  10  15
ATOM     15  O   LIG A   1      -9.259   1.843 130.764  0.00  0.00    -0.495 OA
ATOM     16  C   LIG A   1      -9.702   1.352 132.007  0.00  0.00    +0.277 C 
ENDBRANCH  10  15
BRANCH   9  17
ATOM     17  C   LIG A   1      -6.620   3.472 130.824  0.00  0.00    +0.053 C 
BRANCH  17  18
ATOM     18  C   LIG A   1      -5.787   3.145 129.531  0.00  0.00    +0.125 C 
BRANCH  18  19
ATOM     19  C   LIG A   1      -4.744   4.249 129.283  0.00  0.00    +0.305 C 
ATOM     20  O   LIG A   1      -3.670   4.366 129.753  0.00  0.00    -0.251 OA
BRANCH  19  21
ATOM     21  O   LIG A   1      -5.203   5.122 128.360  0.00  0.00    -0.481 OA
ATOM     22  H   LIG A   1      -5.342   5.934 128.896  0.00  0.00    +0.295 HD
ENDBRANCH  19  21
ENDBRANCH  18  19
ENDBRANCH  17  18
ENDBRANCH   9  17
TORSDOF 6
ENDMDL
