MODEL 1
REMARK VINA RESULT:      -8.8      0.000      0.000
REMARK  Name = NuBBE_12
REMARK  2 active torsions:
REMARK  status: ('A' for Active; 'I' for Inactive)
REMARK    1  A    between atoms: C_9  and  C_10
REMARK    2  A    between atoms: C_16  and  C_22
REMARK                            x       y       z     vdW  Elec       q    Type
REMARK                         _______ _______ _______ _____ _____    ______ ____
ROOT
ATOM      1  C   LIG A   1      -8.426   2.300 123.155  0.00  0.00    +0.154 C 
ATOM      2  C   LIG A   1      -7.332   1.340 123.639  0.00  0.00    +0.056 C 
ATOM      3  C   LIG A   1      -6.619   1.812 124.879  0.00  0.00    +0.167 C 
ATOM      4  O   LIG A   1      -7.475   1.502 125.985  0.00  0.00    -0.371 OA
ATOM      5  C   LIG A   1      -8.413   0.480 125.582  0.00  0.00    +0.154 C 
ATOM      6  C   LIG A   1      -8.107   0.142 124.118  0.00  0.00    +0.056 C 
ATOM      7  C   LIG A   1      -9.323   0.141 123.222  0.00  0.00    +0.167 C 
ATOM      8  O   LIG A   1      -9.598   1.505 122.886  0.00  0.00    -0.371 OA
ENDROOT
BRANCH   1  16
ATOM      9  C   LIG A   1      -8.682   4.065 119.760  0.00  0.00    +0.050 A 
ATOM     10  C   LIG A   1      -7.384   4.506 119.625  0.00  0.00    +0.166 A 
ATOM     11  O   LIG A   1      -6.891   5.229 118.584  0.00  0.00    -0.453 OA
ATOM     12  C   LIG A   1      -5.516   5.386 118.991  0.00  0.00    +0.466 C 
ATOM     13  O   LIG A   1      -5.217   4.763 120.258  0.00  0.00    -0.453 OA
ATOM     14  C   LIG A   1      -6.430   4.239 120.575  0.00  0.00    +0.167 A 
ATOM     15  C   LIG A   1      -6.721   3.519 121.715  0.00  0.00    +0.055 A 
ATOM     16  C   LIG A   1      -8.039   3.064 121.904  0.00  0.00    -0.015 A 
ATOM     17  C   LIG A   1      -9.010   3.340 120.912  0.00  0.00    +0.010 A 
ENDBRANCH   1  16
BRANCH   5  18
ATOM     18  C   LIG A   1      -8.311  -0.728 126.495  0.00  0.00    -0.015 A 
ATOM     19  C   LIG A   1      -7.668  -0.608 127.741  0.00  0.00    +0.055 A 
ATOM     20  C   LIG A   1      -7.591  -1.726 128.550  0.00  0.00    +0.167 A 
ATOM     21  C   LIG A   1      -8.126  -2.934 128.175  0.00  0.00    +0.166 A 
ATOM     22  C   LIG A   1      -8.772  -3.094 126.969  0.00  0.00    +0.050 A 
ATOM     23  C   LIG A   1      -8.865  -1.979 126.129  0.00  0.00    +0.010 A 
ATOM     24  O   LIG A   1      -7.937  -3.902 129.109  0.00  0.00    -0.453 OA
ATOM     25  C   LIG A   1      -7.222  -3.164 130.121  0.00  0.00    +0.466 C 
ATOM     26  O   LIG A   1      -6.998  -1.781 129.773  0.00  0.00    -0.453 OA
ENDBRANCH   5  18
TORSDOF 2
ENDMDL
MODEL 2
REMARK VINA RESULT:      -8.6      0.829      1.461
REMARK  Name = NuBBE_12
REMARK  2 active torsions:
REMARK  status: ('A' for Active; 'I' for Inactive)
REMARK    1  A    between atoms: C_9  and  C_10
REMARK    2  A    between atoms: C_16  and  C_22
REMARK                            x       y       z     vdW  Elec       q    Type
REMARK                         _______ _______ _______ _____ _____    ______ ____
ROOT
ATOM      1  C   LIG A   1      -7.569   2.452 123.461  0.00  0.00    +0.154 C 
ATOM      2  C   LIG A   1      -6.558   1.587 124.222  0.00  0.00    +0.056 C 
ATOM      3  C   LIG A   1      -6.250   2.092 125.607  0.00  0.00    +0.167 C 
ATOM      4  O   LIG A   1      -7.336   1.679 126.444  0.00  0.00    -0.371 OA
ATOM      5  C   LIG A   1      -8.031   0.584 125.806  0.00  0.00    +0.154 C 
ATOM      6  C   LIG A   1      -7.314   0.311 124.478  0.00  0.00    +0.056 C 
ATOM      7  C   LIG A   1      -8.241   0.218 123.289  0.00  0.00    +0.167 C 
ATOM      8  O   LIG A   1      -8.545   1.558 122.889  0.00  0.00    -0.371 OA
ENDROOT
BRANCH   1  16
ATOM      9  C   LIG A   1      -5.032   4.578 121.523  0.00  0.00    +0.050 A 
ATOM     10  C   LIG A   1      -5.720   4.748 120.343  0.00  0.00    +0.166 A 
ATOM     11  O   LIG A   1      -5.277   5.429 119.252  0.00  0.00    -0.453 OA
ATOM     12  C   LIG A   1      -6.399   5.268 118.359  0.00  0.00    +0.466 C 
ATOM     13  O   LIG A   1      -7.479   4.498 118.926  0.00  0.00    -0.453 OA
ATOM     14  C   LIG A   1      -6.975   4.222 120.158  0.00  0.00    +0.167 A 
ATOM     15  C   LIG A   1      -7.609   3.493 121.141  0.00  0.00    +0.055 A 
ATOM     16  C   LIG A   1      -6.937   3.278 122.358  0.00  0.00    -0.015 A 
ATOM     17  C   LIG A   1      -5.647   3.833 122.537  0.00  0.00    +0.010 A 
ENDBRANCH   1  16
BRANCH   5  18
ATOM     18  C   LIG A   1      -8.061  -0.631 126.716  0.00  0.00    -0.015 A 
ATOM     19  C   LIG A   1      -7.533  -0.541 128.017  0.00  0.00    +0.055 A 
ATOM     20  C   LIG A   1      -7.576  -1.664 128.821  0.00  0.00    +0.167 A 
ATOM     21  C   LIG A   1      -8.119  -2.849 128.388  0.00  0.00    +0.166 A 
ATOM     22  C   LIG A   1      -8.655  -2.979 127.126  0.00  0.00    +0.050 A 
ATOM     23  C   LIG A   1      -8.627  -1.857 126.290  0.00  0.00    +0.010 A 
ATOM     24  O   LIG A   1      -8.056  -3.827 129.329  0.00  0.00    -0.453 OA
ATOM     25  C   LIG A   1      -7.411  -3.122 130.409  0.00  0.00    +0.466 C 
ATOM     26  O   LIG A   1      -7.102  -1.748 130.094  0.00  0.00    -0.453 OA
ENDBRANCH   5  18
TORSDOF 2
ENDMDL
MODEL 3
REMARK VINA RESULT:      -8.2      2.482      9.012
REMARK  Name = NuBBE_12
REMARK  2 active torsions:
REMARK  status: ('A' for Active; 'I' for Inactive)
REMARK    1  A    between atoms: C_9  and  C_10
REMARK    2  A    between atoms: C_16  and  C_22
REMARK                            x       y       z     vdW  Elec       q    Type
REMARK                         _______ _______ _______ _____ _____    ______ ____
ROOT
ATOM      1  C   LIG A   1      -7.636   1.321 126.773  0.00  0.00    +0.154 C 
ATOM      2  C   LIG A   1      -7.925   2.714 126.201  0.00  0.00    +0.056 C 
ATOM      3  C   LIG A   1      -6.687   3.535 125.951  0.00  0.00    +0.167 C 
ATOM      4  O   LIG A   1      -6.131   3.069 124.717  0.00  0.00    -0.371 OA
ATOM      5  C   LIG A   1      -7.156   2.376 123.970  0.00  0.00    +0.154 C 
ATOM      6  C   LIG A   1      -8.434   2.422 124.814  0.00  0.00    +0.056 C 
ATOM      7  C   LIG A   1      -9.112   1.082 124.974  0.00  0.00    +0.167 C 
ATOM      8  O   LIG A   1      -8.413   0.379 126.007  0.00  0.00    -0.371 OA
ENDROOT
BRANCH   1  16
ATOM      9  C   LIG A   1      -7.955  -0.114 130.316  0.00  0.00    +0.050 A 
ATOM     10  C   LIG A   1      -8.583   0.940 130.941  0.00  0.00    +0.166 A 
ATOM     11  O   LIG A   1      -8.938   0.993 132.253  0.00  0.00    -0.453 OA
ATOM     12  C   LIG A   1      -9.541   2.302 132.317  0.00  0.00    +0.466 C 
ATOM     13  O   LIG A   1      -9.530   3.003 131.056  0.00  0.00    -0.453 OA
ATOM     14  C   LIG A   1      -8.923   2.083 130.260  0.00  0.00    +0.167 A 
ATOM     15  C   LIG A   1      -8.651   2.237 128.917  0.00  0.00    +0.055 A 
ATOM     16  C   LIG A   1      -7.994   1.193 128.240  0.00  0.00    -0.015 A 
ATOM     17  C   LIG A   1      -7.656   0.018 128.953  0.00  0.00    +0.010 A 
ENDBRANCH   1  16
BRANCH   5  18
ATOM     18  C   LIG A   1      -7.336   3.006 122.600  0.00  0.00    -0.015 A 
ATOM     19  C   LIG A   1      -6.221   3.535 121.924  0.00  0.00    +0.055 A 
ATOM     20  C   LIG A   1      -6.417   4.101 120.679  0.00  0.00    +0.167 A 
ATOM     21  C   LIG A   1      -7.657   4.155 120.091  0.00  0.00    +0.166 A 
ATOM     22  C   LIG A   1      -8.774   3.642 120.713  0.00  0.00    +0.050 A 
ATOM     23  C   LIG A   1      -8.605   3.062 121.975  0.00  0.00    +0.010 A 
ATOM     24  O   LIG A   1      -7.632   4.757 118.873  0.00  0.00    -0.453 OA
ATOM     25  C   LIG A   1      -6.230   5.075 118.758  0.00  0.00    +0.466 C 
ATOM     26  O   LIG A   1      -5.452   4.663 119.901  0.00  0.00    -0.453 OA
ENDBRANCH   5  18
TORSDOF 2
ENDMDL
MODEL 4
REMARK VINA RESULT:      -8.2      1.071      8.981
REMARK  Name = NuBBE_12
REMARK  2 active torsions:
REMARK  status: ('A' for Active; 'I' for Inactive)
REMARK    1  A    between atoms: C_9  and  C_10
REMARK    2  A    between atoms: C_16  and  C_22
REMARK                            x       y       z     vdW  Elec       q    Type
REMARK                         _______ _______ _______ _____ _____    ______ ____
ROOT
ATOM      1  C   LIG A   1      -8.439   0.949 126.446  0.00  0.00    +0.154 C 
ATOM      2  C   LIG A   1      -7.382   0.816 125.342  0.00  0.00    +0.056 C 
ATOM      3  C   LIG A   1      -7.824  -0.039 124.183  0.00  0.00    +0.167 C 
ATOM      4  O   LIG A   1      -8.669   0.782 123.369  0.00  0.00    -0.371 OA
ATOM      5  C   LIG A   1      -8.407   2.171 123.670  0.00  0.00    +0.154 C 
ATOM      6  C   LIG A   1      -7.320   2.198 124.751  0.00  0.00    +0.056 C 
ATOM      7  C   LIG A   1      -7.647   3.089 125.927  0.00  0.00    +0.167 C 
ATOM      8  O   LIG A   1      -8.527   2.349 126.780  0.00  0.00    -0.371 OA
ENDROOT
BRANCH   1  16
ATOM      9  C   LIG A   1      -7.837   0.066 130.130  0.00  0.00    +0.050 A 
ATOM     10  C   LIG A   1      -7.546  -1.274 130.006  0.00  0.00    +0.166 A 
ATOM     11  O   LIG A   1      -7.259  -2.126 131.026  0.00  0.00    -0.453 OA
ATOM     12  C   LIG A   1      -7.047  -3.356 130.301  0.00  0.00    +0.466 C 
ATOM     13  O   LIG A   1      -7.215  -3.218 128.875  0.00  0.00    -0.453 OA
ATOM     14  C   LIG A   1      -7.518  -1.896 128.782  0.00  0.00    +0.167 A 
ATOM     15  C   LIG A   1      -7.782  -1.212 127.613  0.00  0.00    +0.055 A 
ATOM     16  C   LIG A   1      -8.102   0.155 127.693  0.00  0.00    -0.015 A 
ATOM     17  C   LIG A   1      -8.120   0.784 128.961  0.00  0.00    +0.010 A 
ENDBRANCH   1  16
BRANCH   5  18
ATOM     18  C   LIG A   1      -8.002   2.922 122.414  0.00  0.00    -0.015 A 
ATOM     19  C   LIG A   1      -6.669   3.343 122.252  0.00  0.00    +0.055 A 
ATOM     20  C   LIG A   1      -6.332   4.024 121.098  0.00  0.00    +0.167 A 
ATOM     21  C   LIG A   1      -7.253   4.290 120.115  0.00  0.00    +0.166 A 
ATOM     22  C   LIG A   1      -8.565   3.889 120.227  0.00  0.00    +0.050 A 
ATOM     23  C   LIG A   1      -8.936   3.196 121.386  0.00  0.00    +0.010 A 
ATOM     24  O   LIG A   1      -6.718   4.973 119.069  0.00  0.00    -0.453 OA
ATOM     25  C   LIG A   1      -5.350   5.105 119.505  0.00  0.00    +0.466 C 
ATOM     26  O   LIG A   1      -5.096   4.506 120.793  0.00  0.00    -0.453 OA
ENDBRANCH   5  18
TORSDOF 2
ENDMDL
MODEL 5
REMARK VINA RESULT:      -8.1      2.453      3.243
REMARK  Name = NuBBE_12
REMARK  2 active torsions:
REMARK  status: ('A' for Active; 'I' for Inactive)
REMARK    1  A    between atoms: C_9  and  C_10
REMARK    2  A    between atoms: C_16  and  C_22
REMARK                            x       y       z     vdW  Elec       q    Type
REMARK                         _______ _______ _______ _____ _____    ______ ____
ROOT
ATOM      1  C   LIG A   1      -7.136   2.285 123.946  0.00  0.00    +0.154 C 
ATOM      2  C   LIG A   1      -8.391   2.397 124.821  0.00  0.00    +0.056 C 
ATOM      3  C   LIG A   1      -9.140   1.099 124.973  0.00  0.00    +0.167 C 
ATOM      4  O   LIG A   1      -8.438   0.335 125.959  0.00  0.00    -0.371 OA
ATOM      5  C   LIG A   1      -7.617   1.226 126.748  0.00  0.00    +0.154 C 
ATOM      6  C   LIG A   1      -7.835   2.640 126.198  0.00  0.00    +0.056 C 
ATOM      7  C   LIG A   1      -6.555   3.395 125.923  0.00  0.00    +0.167 C 
ATOM      8  O   LIG A   1      -6.066   2.940 124.656  0.00  0.00    -0.371 OA
ENDROOT
BRANCH   1  16
ATOM      9  C   LIG A   1      -8.765   3.637 120.748  0.00  0.00    +0.050 A 
ATOM     10  C   LIG A   1      -7.653   4.142 120.113  0.00  0.00    +0.166 A 
ATOM     11  O   LIG A   1      -7.639   4.774 118.908  0.00  0.00    -0.453 OA
ATOM     12  C   LIG A   1      -6.233   5.063 118.770  0.00  0.00    +0.466 C 
ATOM     13  O   LIG A   1      -5.440   4.608 119.886  0.00  0.00    -0.453 OA
ATOM     14  C   LIG A   1      -6.400   4.046 120.667  0.00  0.00    +0.167 A 
ATOM     15  C   LIG A   1      -6.191   3.441 121.888  0.00  0.00    +0.055 A 
ATOM     16  C   LIG A   1      -7.301   2.926 122.583  0.00  0.00    -0.015 A 
ATOM     17  C   LIG A   1      -8.585   3.026 121.995  0.00  0.00    +0.010 A 
ENDBRANCH   1  16
BRANCH   5  18
ATOM     18  C   LIG A   1      -7.967   1.110 128.221  0.00  0.00    -0.015 A 
ATOM     19  C   LIG A   1      -8.587   2.188 128.877  0.00  0.00    +0.055 A 
ATOM     20  C   LIG A   1      -8.893   2.052 130.218  0.00  0.00    +0.167 A 
ATOM     21  C   LIG A   1      -8.615   0.902 130.914  0.00  0.00    +0.166 A 
ATOM     22  C   LIG A   1      -8.016  -0.182 130.310  0.00  0.00    +0.050 A 
ATOM     23  C   LIG A   1      -7.696  -0.072 128.952  0.00  0.00    +0.010 A 
ATOM     24  O   LIG A   1      -8.990   0.977 132.218  0.00  0.00    -0.453 OA
ATOM     25  C   LIG A   1      -9.541   2.308 132.264  0.00  0.00    +0.466 C 
ATOM     26  O   LIG A   1      -9.483   2.998 130.998  0.00  0.00    -0.453 OA
ENDBRANCH   5  18
TORSDOF 2
ENDMDL
MODEL 6
REMARK VINA RESULT:      -8.1      1.260      9.077
REMARK  Name = NuBBE_12
REMARK  2 active torsions:
REMARK  status: ('A' for Active; 'I' for Inactive)
REMARK    1  A    between atoms: C_9  and  C_10
REMARK    2  A    between atoms: C_16  and  C_22
REMARK                            x       y       z     vdW  Elec       q    Type
REMARK                         _______ _______ _______ _____ _____    ______ ____
ROOT
ATOM      1  C   LIG A   1      -6.751   0.110 126.201  0.00  0.00    +0.154 C 
ATOM      2  C   LIG A   1      -7.976   0.739 125.526  0.00  0.00    +0.056 C 
ATOM      3  C   LIG A   1      -8.168   2.196 125.859  0.00  0.00    +0.167 C 
ATOM      4  O   LIG A   1      -7.253   2.928 125.036  0.00  0.00    -0.371 OA
ATOM      5  C   LIG A   1      -6.864   2.102 123.916  0.00  0.00    +0.154 C 
ATOM      6  C   LIG A   1      -7.596   0.764 124.069  0.00  0.00    +0.056 C 
ATOM      7  C   LIG A   1      -6.701  -0.445 123.928  0.00  0.00    +0.167 C 
ATOM      8  O   LIG A   1      -6.038  -0.624 125.185  0.00  0.00    -0.371 OA
ENDROOT
BRANCH   1  16
ATOM      9  C   LIG A   1      -8.204  -2.882 128.111  0.00  0.00    +0.050 A 
ATOM     10  C   LIG A   1      -7.748  -2.596 129.378  0.00  0.00    +0.166 A 
ATOM     11  O   LIG A   1      -7.956  -3.351 130.490  0.00  0.00    -0.453 OA
ATOM     12  C   LIG A   1      -7.262  -2.567 131.483  0.00  0.00    +0.466 C 
ATOM     13  O   LIG A   1      -6.654  -1.372 130.950  0.00  0.00    -0.453 OA
ATOM     14  C   LIG A   1      -7.009  -1.469 129.641  0.00  0.00    +0.167 A 
ATOM     15  C   LIG A   1      -6.683  -0.566 128.651  0.00  0.00    +0.055 A 
ATOM     16  C   LIG A   1      -7.112  -0.827 127.337  0.00  0.00    -0.015 A 
ATOM     17  C   LIG A   1      -7.879  -1.989 127.082  0.00  0.00    +0.010 A 
ENDBRANCH   1  16
BRANCH   5  18
ATOM     18  C   LIG A   1      -7.183   2.797 122.604  0.00  0.00    -0.015 A 
ATOM     19  C   LIG A   1      -6.142   3.359 121.842  0.00  0.00    +0.055 A 
ATOM     20  C   LIG A   1      -6.464   3.985 120.653  0.00  0.00    +0.167 A 
ATOM     21  C   LIG A   1      -7.758   4.065 120.200  0.00  0.00    +0.166 A 
ATOM     22  C   LIG A   1      -8.806   3.521 120.909  0.00  0.00    +0.050 A 
ATOM     23  C   LIG A   1      -8.509   2.880 122.117  0.00  0.00    +0.010 A 
ATOM     24  O   LIG A   1      -7.857   4.724 119.016  0.00  0.00    -0.453 OA
ATOM     25  C   LIG A   1      -6.474   5.049 118.771  0.00  0.00    +0.466 C 
ATOM     26  O   LIG A   1      -5.583   4.584 119.807  0.00  0.00    -0.453 OA
ENDBRANCH   5  18
TORSDOF 2
ENDMDL
MODEL 7
REMARK VINA RESULT:      -8.1      1.399      1.740
REMARK  Name = NuBBE_12
REMARK  2 active torsions:
REMARK  status: ('A' for Active; 'I' for Inactive)
REMARK    1  A    between atoms: C_9  and  C_10
REMARK    2  A    between atoms: C_16  and  C_22
REMARK                            x       y       z     vdW  Elec       q    Type
REMARK                         _______ _______ _______ _____ _____    ______ ____
ROOT
ATOM      1  C   LIG A   1      -7.932   1.586 124.369  0.00  0.00    +0.154 C 
ATOM      2  C   LIG A   1      -6.695   0.781 124.783  0.00  0.00    +0.056 C 
ATOM      3  C   LIG A   1      -5.968   1.357 125.970  0.00  0.00    +0.167 C 
ATOM      4  O   LIG A   1      -6.702   0.957 127.132  0.00  0.00    -0.371 OA
ATOM      5  C   LIG A   1      -7.527  -0.182 126.800  0.00  0.00    +0.154 C 
ATOM      6  C   LIG A   1      -7.277  -0.499 125.321  0.00  0.00    +0.056 C 
ATOM      7  C   LIG A   1      -8.539  -0.669 124.509  0.00  0.00    +0.167 C 
ATOM      8  O   LIG A   1      -9.008   0.644 124.184  0.00  0.00    -0.371 OA
ENDROOT
BRANCH   1  16
ATOM      9  C   LIG A   1      -8.681   3.448 121.100  0.00  0.00    +0.050 A 
ATOM     10  C   LIG A   1      -7.410   3.863 120.770  0.00  0.00    +0.166 A 
ATOM     11  O   LIG A   1      -7.070   4.604 119.680  0.00  0.00    -0.453 OA
ATOM     12  C   LIG A   1      -5.644   4.719 119.865  0.00  0.00    +0.466 C 
ATOM     13  O   LIG A   1      -5.163   4.056 121.053  0.00  0.00    -0.453 OA
ATOM     14  C   LIG A   1      -6.324   3.550 121.549  0.00  0.00    +0.167 A 
ATOM     15  C   LIG A   1      -6.448   2.806 122.703  0.00  0.00    +0.055 A 
ATOM     16  C   LIG A   1      -7.730   2.375 123.090  0.00  0.00    -0.015 A 
ATOM     17  C   LIG A   1      -8.839   2.699 122.273  0.00  0.00    +0.010 A 
ENDBRANCH   1  16
BRANCH   5  18
ATOM     18  C   LIG A   1      -7.210  -1.354 127.711  0.00  0.00    -0.015 A 
ATOM     19  C   LIG A   1      -5.906  -1.514 128.214  0.00  0.00    +0.055 A 
ATOM     20  C   LIG A   1      -5.649  -2.591 129.041  0.00  0.00    +0.167 A 
ATOM     21  C   LIG A   1      -6.625  -3.493 129.385  0.00  0.00    +0.166 A 
ATOM     22  C   LIG A   1      -7.917  -3.371 128.923  0.00  0.00    +0.050 A 
ATOM     23  C   LIG A   1      -8.206  -2.289 128.084  0.00  0.00    +0.010 A 
ATOM     24  O   LIG A   1      -6.164  -4.478 130.200  0.00  0.00    -0.453 OA
ATOM     25  C   LIG A   1      -4.781  -4.090 130.334  0.00  0.00    +0.466 C 
ATOM     26  O   LIG A   1      -4.446  -2.894 129.600  0.00  0.00    -0.453 OA
ENDBRANCH   5  18
TORSDOF 2
ENDMDL
MODEL 8
REMARK VINA RESULT:      -7.8      4.872      7.952
REMARK  Name = NuBBE_12
REMARK  2 active torsions:
REMARK  status: ('A' for Active; 'I' for Inactive)
REMARK    1  A    between atoms: C_9  and  C_10
REMARK    2  A    between atoms: C_16  and  C_22
REMARK                            x       y       z     vdW  Elec       q    Type
REMARK                         _______ _______ _______ _____ _____    ______ ____
ROOT
ATOM      1  C   LIG A   1      -3.975   4.007 126.788  0.00  0.00    +0.154 C 
ATOM      2  C   LIG A   1      -5.508   4.024 126.841  0.00  0.00    +0.056 C 
ATOM      3  C   LIG A   1      -6.137   4.948 125.831  0.00  0.00    +0.167 C 
ATOM      4  O   LIG A   1      -6.120   4.257 124.578  0.00  0.00    -0.371 OA
ATOM      5  C   LIG A   1      -5.971   2.840 124.824  0.00  0.00    +0.154 C 
ATOM      6  C   LIG A   1      -5.889   2.655 126.343  0.00  0.00    +0.056 C 
ATOM      7  C   LIG A   1      -4.733   1.793 126.794  0.00  0.00    +0.167 C 
ATOM      8  O   LIG A   1      -3.567   2.624 126.797  0.00  0.00    -0.371 OA
ENDROOT
BRANCH   1  16
ATOM      9  C   LIG A   1      -2.121   6.679 128.821  0.00  0.00    +0.050 A 
ATOM     10  C   LIG A   1      -2.186   6.110 130.072  0.00  0.00    +0.166 A 
ATOM     11  O   LIG A   1      -1.689   6.645 131.220  0.00  0.00    -0.453 OA
ATOM     12  C   LIG A   1      -2.046   5.623 132.173  0.00  0.00    +0.466 C 
ATOM     13  O   LIG A   1      -2.748   4.508 131.584  0.00  0.00    -0.453 OA
ATOM     14  C   LIG A   1      -2.786   4.892 130.280  0.00  0.00    +0.167 A 
ATOM     15  C   LIG A   1      -3.357   4.178 129.248  0.00  0.00    +0.055 A 
ATOM     16  C   LIG A   1      -3.330   4.729 127.954  0.00  0.00    -0.015 A 
ATOM     17  C   LIG A   1      -2.702   5.981 127.754  0.00  0.00    +0.010 A 
ENDBRANCH   1  16
BRANCH   5  18
ATOM     18  C   LIG A   1      -7.119   2.067 124.201  0.00  0.00    -0.015 A 
ATOM     19  C   LIG A   1      -7.029   0.668 124.073  0.00  0.00    +0.055 A 
ATOM     20  C   LIG A   1      -8.091  -0.008 123.502  0.00  0.00    +0.167 A 
ATOM     21  C   LIG A   1      -9.219   0.644 123.068  0.00  0.00    +0.166 A 
ATOM     22  C   LIG A   1      -9.354   2.010 123.182  0.00  0.00    +0.050 A 
ATOM     23  C   LIG A   1      -8.294   2.720 123.757  0.00  0.00    +0.010 A 
ATOM     24  O   LIG A   1     -10.138  -0.203 122.535  0.00  0.00    -0.453 OA
ATOM     25  C   LIG A   1      -9.460  -1.467 122.684  0.00  0.00    +0.466 C 
ATOM     26  O   LIG A   1      -8.159  -1.351 123.297  0.00  0.00    -0.453 OA
ENDBRANCH   5  18
TORSDOF 2
ENDMDL
MODEL 9
REMARK VINA RESULT:      -7.8      7.215      8.381
REMARK  Name = NuBBE_12
REMARK  2 active torsions:
REMARK  status: ('A' for Active; 'I' for Inactive)
REMARK    1  A    between atoms: C_9  and  C_10
REMARK    2  A    between atoms: C_16  and  C_22
REMARK                            x       y       z     vdW  Elec       q    Type
REMARK                         _______ _______ _______ _____ _____    ______ ____
ROOT
ATOM      1  C   LIG A   1     -10.339   4.026 130.727  0.00  0.00    +0.154 C 
ATOM      2  C   LIG A   1      -9.012   4.007 131.496  0.00  0.00    +0.056 C 
ATOM      3  C   LIG A   1      -9.178   3.863 132.986  0.00  0.00    +0.167 C 
ATOM      4  O   LIG A   1      -9.422   2.475 133.237  0.00  0.00    -0.371 OA
ATOM      5  C   LIG A   1      -8.960   1.703 132.106  0.00  0.00    +0.154 C 
ATOM      6  C   LIG A   1      -8.392   2.697 131.087  0.00  0.00    +0.056 C 
ATOM      7  C   LIG A   1      -8.909   2.498 129.682  0.00  0.00    +0.167 C 
ATOM      8  O   LIG A   1     -10.199   3.116 129.618  0.00  0.00    -0.371 OA
ENDROOT
BRANCH   1  16
ATOM      9  C   LIG A   1     -10.019   7.669 129.568  0.00  0.00    +0.050 A 
ATOM     10  C   LIG A   1     -11.323   7.914 129.200  0.00  0.00    +0.166 A 
ATOM     11  O   LIG A   1     -11.801   9.078 128.684  0.00  0.00    -0.453 OA
ATOM     12  C   LIG A   1     -13.193   8.743 128.504  0.00  0.00    +0.466 C 
ATOM     13  O   LIG A   1     -13.516   7.396 128.908  0.00  0.00    -0.453 OA
ATOM     14  C   LIG A   1     -12.300   6.958 129.330  0.00  0.00    +0.167 A 
ATOM     15  C   LIG A   1     -12.027   5.703 129.832  0.00  0.00    +0.055 A 
ATOM     16  C   LIG A   1     -10.705   5.401 130.205  0.00  0.00    -0.015 A 
ATOM     17  C   LIG A   1      -9.710   6.399 130.072  0.00  0.00    +0.010 A 
ENDBRANCH   1  16
BRANCH   5  18
ATOM     18  C   LIG A   1      -7.939   0.669 132.547  0.00  0.00    -0.015 A 
ATOM     19  C   LIG A   1      -8.141  -0.688 132.234  0.00  0.00    +0.055 A 
ATOM     20  C   LIG A   1      -7.194  -1.604 132.649  0.00  0.00    +0.167 A 
ATOM     21  C   LIG A   1      -6.073  -1.227 133.345  0.00  0.00    +0.166 A 
ATOM     22  C   LIG A   1      -5.830   0.090 133.666  0.00  0.00    +0.050 A 
ATOM     23  C   LIG A   1      -6.773   1.041 133.257  0.00  0.00    +0.010 A 
ATOM     24  O   LIG A   1      -5.275  -2.281 133.662  0.00  0.00    -0.453 OA
ATOM     25  C   LIG A   1      -6.022  -3.369 133.082  0.00  0.00    +0.466 C 
ATOM     26  O   LIG A   1      -7.243  -2.948 132.437  0.00  0.00    -0.453 OA
ENDBRANCH   5  18
TORSDOF 2
ENDMDL
