MODEL 1
REMARK VINA RESULT:      -7.2      0.000      0.000
REMARK  Name = NuBBE_1722
REMARK  10 active torsions:
REMARK  status: ('A' for Active; 'I' for Inactive)
REMARK    1  A    between atoms: C_1  and  C_2
REMARK    2  A    between atoms: C_7  and  C_9
REMARK    3  A    between atoms: C_9  and  O_11
REMARK    4  A    between atoms: O_11  and  C_12
REMARK    5  A    between atoms: C_19  and  O_32
REMARK    6  A    between atoms: C_21  and  O_31
REMARK    7  A    between atoms: C_25  and  C_26
REMARK    8  A    between atoms: C_25  and  C_27
REMARK    9  A    between atoms: O_32  and  C_33
REMARK   10  A    between atoms: C_33  and  C_35
REMARK                            x       y       z     vdW  Elec       q    Type
REMARK                         _______ _______ _______ _____ _____    ______ ____
ROOT
ATOM      1  C   LIG A   1      -4.298   2.651 126.268  0.00  0.00    +0.012 C 
ATOM      2  C   LIG A   1      -5.519   2.001 126.993  0.00  0.00    -0.023 C 
ATOM      3  C   LIG A   1      -6.134   0.856 126.122  0.00  0.00    +0.010 C 
ATOM      4  C   LIG A   1      -6.649   1.353 124.720  0.00  0.00    +0.054 C 
ATOM      5  C   LIG A   1      -7.575   0.272 124.038  0.00  0.00    +0.138 C 
ATOM      6  C   LIG A   1      -6.796  -1.017 123.989  0.00  0.00    +0.008 A 
ATOM      7  C   LIG A   1      -5.765  -1.276 124.866  0.00  0.00    +0.109 A 
ATOM      8  C   LIG A   1      -5.216  -0.402 125.933  0.00  0.00    +0.079 C 
ATOM      9  O   LIG A   1      -5.202  -2.481 124.622  0.00  0.00    -0.468 OA
ATOM     10  C   LIG A   1      -5.889  -3.012 123.572  0.00  0.00    +0.195 A 
ATOM     11  C   LIG A   1      -6.871  -2.144 123.138  0.00  0.00    +0.045 A 
ATOM     12  C   LIG A   1      -7.096   2.831 124.681  0.00  0.00    +0.210 C 
ATOM     13  C   LIG A   1      -7.540   3.415 126.032  0.00  0.00    +0.159 C 
ATOM     14  C   LIG A   1      -6.628   3.106 127.271  0.00  0.00    +0.033 C 
ATOM     15  C   LIG A   1      -7.510   2.931 128.596  0.00  0.00    -0.029 C 
ATOM     16  C   LIG A   1      -8.048   4.316 129.040  0.00  0.00    +0.011 C 
ATOM     17  C   LIG A   1      -8.749   2.015 128.436  0.00  0.00    +0.011 C 
ATOM     18  C   LIG A   1      -6.671   2.378 129.767  0.00  0.00    +0.007 C 
ATOM     19  C   LIG A   1      -5.919   1.116 129.385  0.00  0.00    +0.001 C 
ATOM     20  C   LIG A   1      -4.904   1.466 128.319  0.00  0.00    +0.007 C 
ENDROOT
BRANCH   5  21
ATOM     21  C   LIG A   1      -8.911   0.041 124.763  0.00  0.00    +0.315 C 
ATOM     22  O   LIG A   1      -9.056  -0.516 125.836  0.00  0.00    -0.250 OA
BRANCH  21  23
ATOM     23  O   LIG A   1      -9.931   0.591 124.039  0.00  0.00    -0.468 OA
ATOM     24  C   LIG A   1      -9.984   0.203 122.662  0.00  0.00    +0.280 C 
ENDBRANCH  21  23
ENDBRANCH   5  21
BRANCH  13  25
ATOM     25  O   LIG A   1      -7.654   4.847 125.908  0.00  0.00    -0.388 OA
ATOM     26  H   LIG A   1      -8.255   5.172 126.603  0.00  0.00    +0.210 HD
ENDBRANCH  13  25
BRANCH  12  27
ATOM     27  O   LIG A   1      -8.105   3.046 123.666  0.00  0.00    -0.459 OA
BRANCH  27  28
ATOM     28  C   LIG A   1      -7.637   3.443 122.452  0.00  0.00    +0.304 C 
ATOM     29  O   LIG A   1      -6.477   3.772 122.224  0.00  0.00    -0.251 OA
ATOM     30  C   LIG A   1      -8.695   3.415 121.398  0.00  0.00    +0.136 C 
ENDBRANCH  27  28
ENDBRANCH  12  27
TORSDOF 5
ENDMDL
MODEL 2
REMARK VINA RESULT:      -7.2      4.272      7.455
REMARK  Name = NuBBE_1722
REMARK  10 active torsions:
REMARK  status: ('A' for Active; 'I' for Inactive)
REMARK    1  A    between atoms: C_1  and  C_2
REMARK    2  A    between atoms: C_7  and  C_9
REMARK    3  A    between atoms: C_9  and  O_11
REMARK    4  A    between atoms: O_11  and  C_12
REMARK    5  A    between atoms: C_19  and  O_32
REMARK    6  A    between atoms: C_21  and  O_31
REMARK    7  A    between atoms: C_25  and  C_26
REMARK    8  A    between atoms: C_25  and  C_27
REMARK    9  A    between atoms: O_32  and  C_33
REMARK   10  A    between atoms: C_33  and  C_35
REMARK                            x       y       z     vdW  Elec       q    Type
REMARK                         _______ _______ _______ _____ _____    ______ ____
ROOT
ATOM      1  C   LIG A   1      -8.622   6.588 131.065  0.00  0.00    +0.012 C 
ATOM      2  C   LIG A   1      -8.009   5.362 131.814  0.00  0.00    -0.023 C 
ATOM      3  C   LIG A   1      -6.474   5.253 131.532  0.00  0.00    +0.010 C 
ATOM      4  C   LIG A   1      -6.137   5.070 130.006  0.00  0.00    +0.054 C 
ATOM      5  C   LIG A   1      -4.642   4.602 129.805  0.00  0.00    +0.138 C 
ATOM      6  C   LIG A   1      -3.763   5.598 130.517  0.00  0.00    +0.008 A 
ATOM      7  C   LIG A   1      -4.235   6.367 131.559  0.00  0.00    +0.109 A 
ATOM      8  C   LIG A   1      -5.604   6.412 132.131  0.00  0.00    +0.079 C 
ATOM      9  O   LIG A   1      -3.277   7.199 132.030  0.00  0.00    -0.468 OA
ATOM     10  C   LIG A   1      -2.166   6.953 131.282  0.00  0.00    +0.195 A 
ATOM     11  C   LIG A   1      -2.417   5.987 130.329  0.00  0.00    +0.045 A 
ATOM     12  C   LIG A   1      -7.239   4.375 129.176  0.00  0.00    +0.210 C 
ATOM     13  C   LIG A   1      -8.181   3.463 129.978  0.00  0.00    +0.159 C 
ATOM     14  C   LIG A   1      -8.730   4.028 131.335  0.00  0.00    +0.033 C 
ATOM     15  C   LIG A   1      -8.882   2.858 132.418  0.00  0.00    -0.029 C 
ATOM     16  C   LIG A   1     -10.086   1.959 132.035  0.00  0.00    +0.011 C 
ATOM     17  C   LIG A   1      -7.657   1.917 132.535  0.00  0.00    +0.011 C 
ATOM     18  C   LIG A   1      -9.172   3.422 133.825  0.00  0.00    +0.007 C 
ATOM     19  C   LIG A   1      -8.165   4.480 134.235  0.00  0.00    +0.001 C 
ATOM     20  C   LIG A   1      -8.313   5.668 133.310  0.00  0.00    +0.007 C 
ENDROOT
BRANCH   5  21
ATOM     21  C   LIG A   1      -4.351   3.187 130.329  0.00  0.00    +0.315 C 
ATOM     22  O   LIG A   1      -4.349   2.843 131.498  0.00  0.00    -0.250 OA
BRANCH  21  23
ATOM     23  O   LIG A   1      -4.125   2.342 129.279  0.00  0.00    -0.468 OA
ATOM     24  C   LIG A   1      -3.360   2.893 128.202  0.00  0.00    +0.280 C 
ENDBRANCH  21  23
ENDBRANCH   5  21
BRANCH  13  25
ATOM     25  O   LIG A   1      -9.310   3.113 129.152  0.00  0.00    -0.388 OA
ATOM     26  H   LIG A   1      -9.216   2.184 128.875  0.00  0.00    +0.210 HD
ENDBRANCH  13  25
BRANCH  12  27
ATOM     27  O   LIG A   1      -6.678   3.674 128.042  0.00  0.00    -0.459 OA
BRANCH  27  28
ATOM     28  C   LIG A   1      -7.073   4.125 126.822  0.00  0.00    +0.304 C 
ATOM     29  O   LIG A   1      -8.237   4.168 126.436  0.00  0.00    -0.251 OA
ATOM     30  C   LIG A   1      -5.925   4.595 125.990  0.00  0.00    +0.136 C 
ENDBRANCH  27  28
ENDBRANCH  12  27
TORSDOF 5
ENDMDL
MODEL 3
REMARK VINA RESULT:      -7.2      4.277      7.043
REMARK  Name = NuBBE_1722
REMARK  10 active torsions:
REMARK  status: ('A' for Active; 'I' for Inactive)
REMARK    1  A    between atoms: C_1  and  C_2
REMARK    2  A    between atoms: C_7  and  C_9
REMARK    3  A    between atoms: C_9  and  O_11
REMARK    4  A    between atoms: O_11  and  C_12
REMARK    5  A    between atoms: C_19  and  O_32
REMARK    6  A    between atoms: C_21  and  O_31
REMARK    7  A    between atoms: C_25  and  C_26
REMARK    8  A    between atoms: C_25  and  C_27
REMARK    9  A    between atoms: O_32  and  C_33
REMARK   10  A    between atoms: C_33  and  C_35
REMARK                            x       y       z     vdW  Elec       q    Type
REMARK                         _______ _______ _______ _____ _____    ______ ____
ROOT
ATOM      1  C   LIG A   1      -6.761   7.069 130.960  0.00  0.00    +0.012 C 
ATOM      2  C   LIG A   1      -6.674   5.736 131.769  0.00  0.00    -0.023 C 
ATOM      3  C   LIG A   1      -7.127   4.524 130.890  0.00  0.00    +0.010 C 
ATOM      4  C   LIG A   1      -8.610   4.650 130.380  0.00  0.00    +0.054 C 
ATOM      5  C   LIG A   1      -9.140   3.272 129.821  0.00  0.00    +0.138 C 
ATOM      6  C   LIG A   1      -8.161   2.810 128.772  0.00  0.00    +0.008 A 
ATOM      7  C   LIG A   1      -6.850   3.232 128.766  0.00  0.00    +0.109 A 
ATOM      8  C   LIG A   1      -6.180   4.186 129.687  0.00  0.00    +0.079 C 
ATOM      9  O   LIG A   1      -6.167   2.704 127.725  0.00  0.00    -0.468 OA
ATOM     10  C   LIG A   1      -7.055   1.921 127.052  0.00  0.00    +0.195 A 
ATOM     11  C   LIG A   1      -8.298   1.962 127.648  0.00  0.00    +0.045 A 
ATOM     12  C   LIG A   1      -9.542   5.477 131.292  0.00  0.00    +0.210 C 
ATOM     13  C   LIG A   1      -9.118   5.546 132.768  0.00  0.00    +0.159 C 
ATOM     14  C   LIG A   1      -7.602   5.831 133.057  0.00  0.00    +0.033 C 
ATOM     15  C   LIG A   1      -7.114   5.040 134.362  0.00  0.00    -0.029 C 
ATOM     16  C   LIG A   1      -7.722   5.708 135.622  0.00  0.00    +0.011 C 
ATOM     17  C   LIG A   1      -7.533   3.550 134.415  0.00  0.00    +0.011 C 
ATOM     18  C   LIG A   1      -5.580   5.099 134.519  0.00  0.00    +0.007 C 
ATOM     19  C   LIG A   1      -4.859   4.659 133.257  0.00  0.00    +0.001 C 
ATOM     20  C   LIG A   1      -5.169   5.652 132.158  0.00  0.00    +0.007 C 
ENDROOT
BRANCH   5  21
ATOM     21  C   LIG A   1      -9.303   2.181 130.892  0.00  0.00    +0.315 C 
ATOM     22  O   LIG A   1     -10.178   2.135 131.739  0.00  0.00    -0.250 OA
BRANCH  21  23
ATOM     23  O   LIG A   1      -8.331   1.233 130.739  0.00  0.00    -0.468 OA
ATOM     24  C   LIG A   1      -8.529   0.027 131.484  0.00  0.00    +0.280 C 
ENDBRANCH  21  23
ENDBRANCH   5  21
BRANCH  13  25
ATOM     25  O   LIG A   1      -9.897   6.560 133.434  0.00  0.00    -0.388 OA
ATOM     26  H   LIG A   1     -10.139   6.235 134.319  0.00  0.00    +0.210 HD
ENDBRANCH  13  25
BRANCH  12  27
ATOM     27  O   LIG A   1     -10.917   5.045 131.167  0.00  0.00    -0.459 OA
BRANCH  27  28
ATOM     28  C   LIG A   1     -11.700   5.812 130.362  0.00  0.00    +0.304 C 
ATOM     29  O   LIG A   1     -11.863   5.624 129.160  0.00  0.00    -0.251 OA
ATOM     30  C   LIG A   1     -12.375   6.916 131.109  0.00  0.00    +0.136 C 
ENDBRANCH  27  28
ENDBRANCH  12  27
TORSDOF 5
ENDMDL
MODEL 4
REMARK VINA RESULT:      -7.2      3.564      7.285
REMARK  Name = NuBBE_1722
REMARK  10 active torsions:
REMARK  status: ('A' for Active; 'I' for Inactive)
REMARK    1  A    between atoms: C_1  and  C_2
REMARK    2  A    between atoms: C_7  and  C_9
REMARK    3  A    between atoms: C_9  and  O_11
REMARK    4  A    between atoms: O_11  and  C_12
REMARK    5  A    between atoms: C_19  and  O_32
REMARK    6  A    between atoms: C_21  and  O_31
REMARK    7  A    between atoms: C_25  and  C_26
REMARK    8  A    between atoms: C_25  and  C_27
REMARK    9  A    between atoms: O_32  and  C_33
REMARK   10  A    between atoms: C_33  and  C_35
REMARK                            x       y       z     vdW  Elec       q    Type
REMARK                         _______ _______ _______ _____ _____    ______ ____
ROOT
ATOM      1  C   LIG A   1      -3.978   4.279 131.770  0.00  0.00    +0.012 C 
ATOM      2  C   LIG A   1      -4.279   4.780 130.322  0.00  0.00    -0.023 C 
ATOM      3  C   LIG A   1      -5.819   4.945 130.103  0.00  0.00    +0.010 C 
ATOM      4  C   LIG A   1      -6.619   3.603 130.296  0.00  0.00    +0.054 C 
ATOM      5  C   LIG A   1      -8.083   3.724 129.719  0.00  0.00    +0.138 C 
ATOM      6  C   LIG A   1      -8.722   4.924 130.369  0.00  0.00    +0.008 A 
ATOM      7  C   LIG A   1      -7.969   5.957 130.884  0.00  0.00    +0.109 A 
ATOM      8  C   LIG A   1      -6.491   6.087 130.943  0.00  0.00    +0.079 C 
ATOM      9  O   LIG A   1      -8.754   6.912 131.433  0.00  0.00    -0.468 OA
ATOM     10  C   LIG A   1     -10.037   6.488 131.262  0.00  0.00    +0.195 A 
ATOM     11  C   LIG A   1     -10.070   5.265 130.625  0.00  0.00    +0.045 A 
ATOM     12  C   LIG A   1      -5.815   2.320 129.991  0.00  0.00    +0.210 C 
ATOM     13  C   LIG A   1      -4.637   2.503 129.021  0.00  0.00    +0.159 C 
ATOM     14  C   LIG A   1      -3.704   3.740 129.265  0.00  0.00    +0.033 C 
ATOM     15  C   LIG A   1      -3.176   4.337 127.875  0.00  0.00    -0.029 C 
ATOM     16  C   LIG A   1      -2.127   3.369 127.269  0.00  0.00    +0.011 C 
ATOM     17  C   LIG A   1      -4.268   4.528 126.793  0.00  0.00    +0.011 C 
ATOM     18  C   LIG A   1      -2.472   5.696 128.072  0.00  0.00    +0.007 C 
ATOM     19  C   LIG A   1      -3.332   6.677 128.849  0.00  0.00    +0.001 C 
ATOM     20  C   LIG A   1      -3.525   6.141 130.250  0.00  0.00    +0.007 C 
ENDROOT
BRANCH   5  21
ATOM     21  C   LIG A   1      -8.145   3.871 128.189  0.00  0.00    +0.315 C 
ATOM     22  O   LIG A   1      -7.875   4.876 127.555  0.00  0.00    -0.250 OA
BRANCH  21  23
ATOM     23  O   LIG A   1      -8.519   2.684 127.626  0.00  0.00    -0.468 OA
ATOM     24  C   LIG A   1      -7.837   2.339 126.415  0.00  0.00    +0.280 C 
ENDBRANCH  21  23
ENDBRANCH   5  21
BRANCH  13  25
ATOM     25  O   LIG A   1      -3.818   1.316 129.048  0.00  0.00    -0.388 OA
ATOM     26  H   LIG A   1      -4.372   0.563 129.323  0.00  0.00    +0.210 HD
ENDBRANCH  13  25
BRANCH  12  27
ATOM     27  O   LIG A   1      -6.685   1.248 129.556  0.00  0.00    -0.459 OA
BRANCH  27  28
ATOM     28  C   LIG A   1      -6.763   0.182 130.396  0.00  0.00    +0.304 C 
ATOM     29  O   LIG A   1      -5.803  -0.482 130.774  0.00  0.00    -0.251 OA
ATOM     30  C   LIG A   1      -8.164  -0.091 130.840  0.00  0.00    +0.136 C 
ENDBRANCH  27  28
ENDBRANCH  12  27
TORSDOF 5
ENDMDL
MODEL 5
REMARK VINA RESULT:      -7.0      2.464      4.820
REMARK  Name = NuBBE_1722
REMARK  10 active torsions:
REMARK  status: ('A' for Active; 'I' for Inactive)
REMARK    1  A    between atoms: C_1  and  C_2
REMARK    2  A    between atoms: C_7  and  C_9
REMARK    3  A    between atoms: C_9  and  O_11
REMARK    4  A    between atoms: O_11  and  C_12
REMARK    5  A    between atoms: C_19  and  O_32
REMARK    6  A    between atoms: C_21  and  O_31
REMARK    7  A    between atoms: C_25  and  C_26
REMARK    8  A    between atoms: C_25  and  C_27
REMARK    9  A    between atoms: O_32  and  C_33
REMARK   10  A    between atoms: C_33  and  C_35
REMARK                            x       y       z     vdW  Elec       q    Type
REMARK                         _______ _______ _______ _____ _____    ______ ____
ROOT
ATOM      1  C   LIG A   1      -5.901   5.200 125.755  0.00  0.00    +0.012 C 
ATOM      2  C   LIG A   1      -5.243   4.015 126.531  0.00  0.00    -0.023 C 
ATOM      3  C   LIG A   1      -6.192   2.772 126.553  0.00  0.00    +0.010 C 
ATOM      4  C   LIG A   1      -7.573   3.061 127.249  0.00  0.00    +0.054 C 
ATOM      5  C   LIG A   1      -8.339   1.718 127.575  0.00  0.00    +0.138 C 
ATOM      6  C   LIG A   1      -8.445   0.942 126.288  0.00  0.00    +0.008 A 
ATOM      7  C   LIG A   1      -7.562   1.135 125.248  0.00  0.00    +0.109 A 
ATOM      8  C   LIG A   1      -6.434   2.096 125.158  0.00  0.00    +0.079 C 
ATOM      9  O   LIG A   1      -7.863   0.344 124.193  0.00  0.00    -0.468 OA
ATOM     10  C   LIG A   1      -8.957  -0.378 124.564  0.00  0.00    +0.195 A 
ATOM     11  C   LIG A   1      -9.361  -0.037 125.839  0.00  0.00    +0.045 A 
ATOM     12  C   LIG A   1      -7.537   4.163 128.330  0.00  0.00    +0.210 C 
ATOM     13  C   LIG A   1      -6.165   4.392 128.983  0.00  0.00    +0.159 C 
ATOM     14  C   LIG A   1      -4.926   4.464 128.023  0.00  0.00    +0.033 C 
ATOM     15  C   LIG A   1      -3.633   3.818 128.715  0.00  0.00    -0.029 C 
ATOM     16  C   LIG A   1      -3.121   4.768 129.829  0.00  0.00    +0.011 C 
ATOM     17  C   LIG A   1      -3.873   2.445 129.390  0.00  0.00    +0.011 C 
ATOM     18  C   LIG A   1      -2.478   3.645 127.706  0.00  0.00    +0.007 C 
ATOM     19  C   LIG A   1      -2.915   2.900 126.458  0.00  0.00    +0.001 C 
ATOM     20  C   LIG A   1      -3.936   3.745 125.728  0.00  0.00    +0.007 C 
ENDROOT
BRANCH   5  21
ATOM     21  C   LIG A   1      -7.658   0.852 128.647  0.00  0.00    +0.315 C 
ATOM     22  O   LIG A   1      -6.617   0.234 128.513  0.00  0.00    -0.250 OA
BRANCH  21  23
ATOM     23  O   LIG A   1      -8.379   0.901 129.807  0.00  0.00    -0.468 OA
ATOM     24  C   LIG A   1      -7.607   1.034 131.004  0.00  0.00    +0.280 C 
ENDBRANCH  21  23
ENDBRANCH   5  21
BRANCH  13  25
ATOM     25  O   LIG A   1      -6.207   5.614 129.748  0.00  0.00    -0.388 OA
ATOM     26  H   LIG A   1      -7.138   5.867 129.878  0.00  0.00    +0.210 HD
ENDBRANCH  13  25
BRANCH  12  27
ATOM     27  O   LIG A   1      -8.560   3.951 129.331  0.00  0.00    -0.459 OA
BRANCH  27  28
ATOM     28  C   LIG A   1      -9.379   5.011 129.564  0.00  0.00    +0.304 C 
ATOM     29  O   LIG A   1      -9.191   6.146 129.137  0.00  0.00    -0.251 OA
ATOM     30  C   LIG A   1     -10.567   4.641 130.391  0.00  0.00    +0.136 C 
ENDBRANCH  27  28
ENDBRANCH  12  27
TORSDOF 5
ENDMDL
MODEL 6
REMARK VINA RESULT:      -6.9      2.707      4.840
REMARK  Name = NuBBE_1722
REMARK  10 active torsions:
REMARK  status: ('A' for Active; 'I' for Inactive)
REMARK    1  A    between atoms: C_1  and  C_2
REMARK    2  A    between atoms: C_7  and  C_9
REMARK    3  A    between atoms: C_9  and  O_11
REMARK    4  A    between atoms: O_11  and  C_12
REMARK    5  A    between atoms: C_19  and  O_32
REMARK    6  A    between atoms: C_21  and  O_31
REMARK    7  A    between atoms: C_25  and  C_26
REMARK    8  A    between atoms: C_25  and  C_27
REMARK    9  A    between atoms: O_32  and  C_33
REMARK   10  A    between atoms: C_33  and  C_35
REMARK                            x       y       z     vdW  Elec       q    Type
REMARK                         _______ _______ _______ _____ _____    ______ ____
ROOT
ATOM      1  C   LIG A   1      -5.424  -1.973 126.801  0.00  0.00    +0.012 C 
ATOM      2  C   LIG A   1      -6.549  -1.514 127.783  0.00  0.00    -0.023 C 
ATOM      3  C   LIG A   1      -7.451  -0.422 127.118  0.00  0.00    +0.010 C 
ATOM      4  C   LIG A   1      -6.654   0.870 126.702  0.00  0.00    +0.054 C 
ATOM      5  C   LIG A   1      -7.635   2.065 126.383  0.00  0.00    +0.138 C 
ATOM      6  C   LIG A   1      -8.609   1.578 125.343  0.00  0.00    +0.008 A 
ATOM      7  C   LIG A   1      -8.892   0.238 125.183  0.00  0.00    +0.109 A 
ATOM      8  C   LIG A   1      -8.317  -0.922 125.910  0.00  0.00    +0.079 C 
ATOM      9  O   LIG A   1      -9.777   0.038 124.180  0.00  0.00    -0.468 OA
ATOM     10  C   LIG A   1     -10.076   1.273 123.690  0.00  0.00    +0.195 A 
ATOM     11  C   LIG A   1      -9.374   2.252 124.362  0.00  0.00    +0.045 A 
ATOM     12  C   LIG A   1      -5.399   1.159 127.553  0.00  0.00    +0.210 C 
ATOM     13  C   LIG A   1      -5.419   0.565 128.971  0.00  0.00    +0.159 C 
ATOM     14  C   LIG A   1      -5.895  -0.924 129.108  0.00  0.00    +0.033 C 
ATOM     15  C   LIG A   1      -6.706  -1.139 130.472  0.00  0.00    -0.029 C 
ATOM     16  C   LIG A   1      -5.717  -1.099 131.666  0.00  0.00    +0.011 C 
ATOM     17  C   LIG A   1      -7.784  -0.065 130.765  0.00  0.00    +0.011 C 
ATOM     18  C   LIG A   1      -7.399  -2.517 130.509  0.00  0.00    +0.007 C 
ATOM     19  C   LIG A   1      -8.246  -2.764 129.274  0.00  0.00    +0.001 C 
ATOM     20  C   LIG A   1      -7.331  -2.829 128.070  0.00  0.00    +0.007 C 
ENDROOT
BRANCH   5  21
ATOM     21  C   LIG A   1      -8.404   2.590 127.606  0.00  0.00    +0.315 C 
ATOM     22  O   LIG A   1      -9.100   1.926 128.353  0.00  0.00    -0.250 OA
BRANCH  21  23
ATOM     23  O   LIG A   1      -8.165   3.926 127.764  0.00  0.00    -0.468 OA
ATOM     24  C   LIG A   1      -8.119   4.385 129.119  0.00  0.00    +0.280 C 
ENDBRANCH  21  23
ENDBRANCH   5  21
BRANCH  13  25
ATOM     25  O   LIG A   1      -4.098   0.664 129.541  0.00  0.00    -0.388 OA
ATOM     26  H   LIG A   1      -4.076   0.145 130.365  0.00  0.00    +0.210 HD
ENDBRANCH  13  25
BRANCH  12  27
ATOM     27  O   LIG A   1      -5.105   2.576 127.589  0.00  0.00    -0.459 OA
BRANCH  27  28
ATOM     28  C   LIG A   1      -3.931   2.944 127.010  0.00  0.00    +0.304 C 
ATOM     29  O   LIG A   1      -2.819   2.641 127.430  0.00  0.00    -0.251 OA
ATOM     30  C   LIG A   1      -4.138   3.753 125.771  0.00  0.00    +0.136 C 
ENDBRANCH  27  28
ENDBRANCH  12  27
TORSDOF 5
ENDMDL
MODEL 7
REMARK VINA RESULT:      -6.8      3.830      6.412
REMARK  Name = NuBBE_1722
REMARK  10 active torsions:
REMARK  status: ('A' for Active; 'I' for Inactive)
REMARK    1  A    between atoms: C_1  and  C_2
REMARK    2  A    between atoms: C_7  and  C_9
REMARK    3  A    between atoms: C_9  and  O_11
REMARK    4  A    between atoms: O_11  and  C_12
REMARK    5  A    between atoms: C_19  and  O_32
REMARK    6  A    between atoms: C_21  and  O_31
REMARK    7  A    between atoms: C_25  and  C_26
REMARK    8  A    between atoms: C_25  and  C_27
REMARK    9  A    between atoms: O_32  and  C_33
REMARK   10  A    between atoms: C_33  and  C_35
REMARK                            x       y       z     vdW  Elec       q    Type
REMARK                         _______ _______ _______ _____ _____    ______ ____
ROOT
ATOM      1  C   LIG A   1      -4.131   1.877 129.332  0.00  0.00    +0.012 C 
ATOM      2  C   LIG A   1      -4.335   3.180 130.169  0.00  0.00    -0.023 C 
ATOM      3  C   LIG A   1      -5.846   3.381 130.519  0.00  0.00    +0.010 C 
ATOM      4  C   LIG A   1      -6.765   3.507 129.248  0.00  0.00    +0.054 C 
ATOM      5  C   LIG A   1      -8.192   4.066 129.630  0.00  0.00    +0.138 C 
ATOM      6  C   LIG A   1      -8.747   3.172 130.708  0.00  0.00    +0.008 A 
ATOM      7  C   LIG A   1      -7.927   2.427 131.528  0.00  0.00    +0.109 A 
ATOM      8  C   LIG A   1      -6.447   2.317 131.503  0.00  0.00    +0.079 C 
ATOM      9  O   LIG A   1      -8.646   1.689 132.405  0.00  0.00    -0.468 OA
ATOM     10  C   LIG A   1      -9.954   1.971 132.150  0.00  0.00    +0.195 A 
ATOM     11  C   LIG A   1     -10.070   2.868 131.107  0.00  0.00    +0.045 A 
ATOM     12  C   LIG A   1      -6.066   4.080 127.997  0.00  0.00    +0.210 C 
ATOM     13  C   LIG A   1      -4.842   4.965 128.281  0.00  0.00    +0.159 C 
ATOM     14  C   LIG A   1      -3.814   4.435 129.341  0.00  0.00    +0.033 C 
ATOM     15  C   LIG A   1      -3.187   5.646 130.181  0.00  0.00    -0.029 C 
ATOM     16  C   LIG A   1      -2.205   6.439 129.280  0.00  0.00    +0.011 C 
ATOM     17  C   LIG A   1      -4.218   6.675 130.709  0.00  0.00    +0.011 C 
ATOM     18  C   LIG A   1      -2.375   5.138 131.391  0.00  0.00    +0.007 C 
ATOM     19  C   LIG A   1      -3.174   4.174 132.250  0.00  0.00    +0.001 C 
ATOM     20  C   LIG A   1      -3.464   2.932 131.435  0.00  0.00    +0.007 C 
ENDROOT
BRANCH   5  21
ATOM     21  C   LIG A   1      -8.186   5.523 130.119  0.00  0.00    +0.315 C 
ATOM     22  O   LIG A   1      -7.552   5.959 131.064  0.00  0.00    -0.250 OA
BRANCH  21  23
ATOM     23  O   LIG A   1      -8.978   6.286 129.308  0.00  0.00    -0.468 OA
ATOM     24  C   LIG A   1      -9.783   7.261 129.979  0.00  0.00    +0.280 C 
ENDBRANCH  21  23
ENDBRANCH   5  21
BRANCH  13  25
ATOM     25  O   LIG A   1      -4.131   5.193 127.047  0.00  0.00    -0.388 OA
ATOM     26  H   LIG A   1      -3.444   5.866 127.203  0.00  0.00    +0.210 HD
ENDBRANCH  13  25
BRANCH  12  27
ATOM     27  O   LIG A   1      -7.008   4.759 127.133  0.00  0.00    -0.459 OA
BRANCH  27  28
ATOM     28  C   LIG A   1      -7.462   4.032 126.078  0.00  0.00    +0.304 C 
ATOM     29  O   LIG A   1      -8.437   3.288 126.109  0.00  0.00    -0.251 OA
ATOM     30  C   LIG A   1      -6.649   4.254 124.844  0.00  0.00    +0.136 C 
ENDBRANCH  27  28
ENDBRANCH  12  27
TORSDOF 5
ENDMDL
MODEL 8
REMARK VINA RESULT:      -6.5      6.239      9.293
REMARK  Name = NuBBE_1722
REMARK  10 active torsions:
REMARK  status: ('A' for Active; 'I' for Inactive)
REMARK    1  A    between atoms: C_1  and  C_2
REMARK    2  A    between atoms: C_7  and  C_9
REMARK    3  A    between atoms: C_9  and  O_11
REMARK    4  A    between atoms: O_11  and  C_12
REMARK    5  A    between atoms: C_19  and  O_32
REMARK    6  A    between atoms: C_21  and  O_31
REMARK    7  A    between atoms: C_25  and  C_26
REMARK    8  A    between atoms: C_25  and  C_27
REMARK    9  A    between atoms: O_32  and  C_33
REMARK   10  A    between atoms: C_33  and  C_35
REMARK                            x       y       z     vdW  Elec       q    Type
REMARK                         _______ _______ _______ _____ _____    ______ ____
ROOT
ATOM      1  C   LIG A   1      -2.594   3.268 132.920  0.00  0.00    +0.012 C 
ATOM      2  C   LIG A   1      -3.069   4.574 132.207  0.00  0.00    -0.023 C 
ATOM      3  C   LIG A   1      -4.394   5.103 132.849  0.00  0.00    +0.010 C 
ATOM      4  C   LIG A   1      -5.581   4.075 132.754  0.00  0.00    +0.054 C 
ATOM      5  C   LIG A   1      -6.963   4.770 133.072  0.00  0.00    +0.138 C 
ATOM      6  C   LIG A   1      -6.829   5.438 134.416  0.00  0.00    +0.008 A 
ATOM      7  C   LIG A   1      -5.603   5.812 134.921  0.00  0.00    +0.109 A 
ATOM      8  C   LIG A   1      -4.257   5.620 134.324  0.00  0.00    +0.079 C 
ATOM      9  O   LIG A   1      -5.726   6.374 136.146  0.00  0.00    -0.468 OA
ATOM     10  C   LIG A   1      -7.058   6.368 136.430  0.00  0.00    +0.195 A 
ATOM     11  C   LIG A   1      -7.777   5.790 135.404  0.00  0.00    +0.045 A 
ATOM     12  C   LIG A   1      -5.507   3.108 131.553  0.00  0.00    +0.210 C 
ATOM     13  C   LIG A   1      -4.698   3.620 130.351  0.00  0.00    +0.159 C 
ATOM     14  C   LIG A   1      -3.310   4.284 130.662  0.00  0.00    +0.033 C 
ATOM     15  C   LIG A   1      -3.014   5.485 129.645  0.00  0.00    -0.029 C 
ATOM     16  C   LIG A   1      -2.685   4.901 128.246  0.00  0.00    +0.011 C 
ATOM     17  C   LIG A   1      -4.192   6.469 129.439  0.00  0.00    +0.011 C 
ATOM     18  C   LIG A   1      -1.787   6.312 130.085  0.00  0.00    +0.007 C 
ATOM     19  C   LIG A   1      -1.897   6.772 131.528  0.00  0.00    +0.001 C 
ATOM     20  C   LIG A   1      -1.877   5.553 132.424  0.00  0.00    +0.007 C 
ENDROOT
BRANCH   5  21
ATOM     21  C   LIG A   1      -7.401   5.804 132.022  0.00  0.00    +0.315 C 
ATOM     22  O   LIG A   1      -6.779   6.799 131.693  0.00  0.00    -0.250 OA
BRANCH  21  23
ATOM     23  O   LIG A   1      -8.594   5.427 131.471  0.00  0.00    -0.468 OA
ATOM     24  C   LIG A   1      -9.551   6.478 131.305  0.00  0.00    +0.280 C 
ENDBRANCH  21  23
ENDBRANCH   5  21
BRANCH  13  25
ATOM     25  O   LIG A   1      -4.474   2.528 129.436  0.00  0.00    -0.388 OA
ATOM     26  H   LIG A   1      -5.335   2.226 129.097  0.00  0.00    +0.210 HD
ENDBRANCH  13  25
BRANCH  12  27
ATOM     27  O   LIG A   1      -6.827   2.676 131.145  0.00  0.00    -0.459 OA
BRANCH  27  28
ATOM     28  C   LIG A   1      -7.084   1.351 131.306  0.00  0.00    +0.304 C 
ATOM     29  O   LIG A   1      -6.422   0.445 130.809  0.00  0.00    -0.251 OA
ATOM     30  C   LIG A   1      -8.266   1.104 132.186  0.00  0.00    +0.136 C 
ENDBRANCH  27  28
ENDBRANCH  12  27
TORSDOF 5
ENDMDL
MODEL 9
REMARK VINA RESULT:      -6.5      5.333      9.570
REMARK  Name = NuBBE_1722
REMARK  10 active torsions:
REMARK  status: ('A' for Active; 'I' for Inactive)
REMARK    1  A    between atoms: C_1  and  C_2
REMARK    2  A    between atoms: C_7  and  C_9
REMARK    3  A    between atoms: C_9  and  O_11
REMARK    4  A    between atoms: O_11  and  C_12
REMARK    5  A    between atoms: C_19  and  O_32
REMARK    6  A    between atoms: C_21  and  O_31
REMARK    7  A    between atoms: C_25  and  C_26
REMARK    8  A    between atoms: C_25  and  C_27
REMARK    9  A    between atoms: O_32  and  C_33
REMARK   10  A    between atoms: C_33  and  C_35
REMARK                            x       y       z     vdW  Elec       q    Type
REMARK                         _______ _______ _______ _____ _____    ______ ____
ROOT
ATOM      1  C   LIG A   1      -8.688   6.880 130.902  0.00  0.00    +0.012 C 
ATOM      2  C   LIG A   1      -8.343   5.384 131.187  0.00  0.00    -0.023 C 
ATOM      3  C   LIG A   1      -7.550   5.245 132.529  0.00  0.00    +0.010 C 
ATOM      4  C   LIG A   1      -6.189   6.035 132.528  0.00  0.00    +0.054 C 
ATOM      5  C   LIG A   1      -5.267   5.582 133.727  0.00  0.00    +0.138 C 
ATOM      6  C   LIG A   1      -6.071   5.737 134.992  0.00  0.00    +0.008 A 
ATOM      7  C   LIG A   1      -7.449   5.721 134.983  0.00  0.00    +0.109 A 
ATOM      8  C   LIG A   1      -8.366   5.599 133.822  0.00  0.00    +0.079 C 
ATOM      9  O   LIG A   1      -7.951   5.895 136.227  0.00  0.00    -0.468 OA
ATOM     10  C   LIG A   1      -6.876   6.019 137.053  0.00  0.00    +0.195 A 
ATOM     11  C   LIG A   1      -5.696   5.942 136.340  0.00  0.00    +0.045 A 
ATOM     12  C   LIG A   1      -5.545   6.214 131.136  0.00  0.00    +0.210 C 
ATOM     13  C   LIG A   1      -5.944   5.160 130.091  0.00  0.00    +0.159 C 
ATOM     14  C   LIG A   1      -7.468   4.799 129.995  0.00  0.00    +0.033 C 
ATOM     15  C   LIG A   1      -7.664   3.249 129.645  0.00  0.00    -0.029 C 
ATOM     16  C   LIG A   1      -7.272   3.005 128.165  0.00  0.00    +0.011 C 
ATOM     17  C   LIG A   1      -6.801   2.277 130.489  0.00  0.00    +0.011 C 
ATOM     18  C   LIG A   1      -9.137   2.815 129.797  0.00  0.00    +0.007 C 
ATOM     19  C   LIG A   1      -9.707   3.192 131.152  0.00  0.00    +0.001 C 
ATOM     20  C   LIG A   1      -9.741   4.701 131.256  0.00  0.00    +0.007 C 
ENDROOT
BRANCH   5  21
ATOM     21  C   LIG A   1      -4.755   4.137 133.614  0.00  0.00    +0.315 C 
ATOM     22  O   LIG A   1      -5.423   3.127 133.753  0.00  0.00    -0.250 OA
BRANCH  21  23
ATOM     23  O   LIG A   1      -3.426   4.141 133.294  0.00  0.00    -0.468 OA
ATOM     24  C   LIG A   1      -2.808   2.852 133.226  0.00  0.00    +0.280 C 
ENDBRANCH  21  23
ENDBRANCH   5  21
BRANCH  13  25
ATOM     25  O   LIG A   1      -5.508   5.601 128.789  0.00  0.00    -0.388 OA
ATOM     26  H   LIG A   1      -6.262   5.550 128.175  0.00  0.00    +0.210 HD
ENDBRANCH  13  25
BRANCH  12  27
ATOM     27  O   LIG A   1      -4.106   6.328 131.235  0.00  0.00    -0.459 OA
BRANCH  27  28
ATOM     28  C   LIG A   1      -3.592   7.545 130.911  0.00  0.00    +0.304 C 
ATOM     29  O   LIG A   1      -3.751   8.105 129.831  0.00  0.00    -0.251 OA
ATOM     30  C   LIG A   1      -2.818   8.153 132.035  0.00  0.00    +0.136 C 
ENDBRANCH  27  28
ENDBRANCH  12  27
TORSDOF 5
ENDMDL
