MODEL 1
REMARK VINA RESULT:      -8.7      0.000      0.000
REMARK  Name = NuBBE_1279
REMARK  11 active torsions:
REMARK  status: ('A' for Active; 'I' for Inactive)
REMARK    1  A    between atoms: O_1  and  C_2
REMARK    2  A    between atoms: C_6  and  C_7
REMARK    3  A    between atoms: C_6  and  C_10
REMARK    4  A    between atoms: C_11  and  C_30
REMARK    5  A    between atoms: C_15  and  O_27
REMARK    6  A    between atoms: C_17  and  C_20
REMARK    7  A    between atoms: C_21  and  O_26
REMARK    8  A    between atoms: O_27  and  C_28
REMARK    9  A    between atoms: C_30  and  C_31
REMARK   10  A    between atoms: C_32  and  C_33
REMARK   11  A    between atoms: C_32  and  C_34
REMARK                            x       y       z     vdW  Elec       q    Type
REMARK                         _______ _______ _______ _____ _____    ______ ____
ROOT
ATOM      1  C   LIG A   1      -5.131   1.701 128.435  0.00  0.00    +0.142 A 
ATOM      2  C   LIG A   1      -5.118   0.326 128.697  0.00  0.00    +0.059 A 
ATOM      3  C   LIG A   1      -5.571  -0.561 127.713  0.00  0.00    +0.139 A 
ATOM      4  O   LIG A   1      -5.620  -1.918 127.912  0.00  0.00    -0.481 OA
ATOM      5  C   LIG A   1      -5.095  -2.491 129.129  0.00  0.00    +0.123 C 
ATOM      6  C   LIG A   1      -3.921  -3.391 128.728  0.00  0.00    +0.060 C 
ATOM      7  C   LIG A   1      -4.624  -1.506 130.167  0.00  0.00    +0.020 C 
ATOM      8  C   LIG A   1      -4.638  -0.187 129.974  0.00  0.00    +0.015 C 
ATOM      9  C   LIG A   1      -6.218  -3.341 129.735  0.00  0.00    +0.060 C 
ATOM     10  C   LIG A   1      -6.006  -0.080 126.453  0.00  0.00    +0.041 A 
ATOM     11  C   LIG A   1      -5.988   1.310 126.201  0.00  0.00    +0.143 A 
ATOM     12  C   LIG A   1      -5.575   2.191 127.194  0.00  0.00    +0.104 A 
ATOM     13  C   LIG A   1      -5.579   3.638 126.921  0.00  0.00    +0.203 C 
ATOM     14  C   LIG A   1      -5.943   4.125 125.522  0.00  0.00    +0.234 C 
ATOM     15  C   LIG A   1      -6.815   3.067 124.820  0.00  0.00    +0.243 C 
ATOM     16  O   LIG A   1      -6.301   1.729 124.937  0.00  0.00    -0.480 OA
ATOM     17  O   LIG A   1      -5.231   4.398 127.836  0.00  0.00    -0.289 OA
ENDROOT
BRANCH  15  18
ATOM     18  C   LIG A   1      -6.958   3.374 123.323  0.00  0.00    +0.037 A 
ATOM     19  C   LIG A   1      -8.181   3.227 122.649  0.00  0.00    +0.124 A 
ATOM     20  C   LIG A   1      -8.283   3.400 121.267  0.00  0.00    +0.046 A 
ATOM     21  C   LIG A   1      -7.167   3.787 120.529  0.00  0.00    +0.004 A 
ATOM     22  C   LIG A   1      -5.956   4.002 121.179  0.00  0.00    +0.001 A 
ATOM     23  C   LIG A   1      -5.851   3.796 122.560  0.00  0.00    +0.011 A 
BRANCH  19  24
ATOM     24  O   LIG A   1      -9.337   2.923 123.312  0.00  0.00    -0.506 OA
ATOM     25  H   LIG A   1      -9.083   2.541 124.176  0.00  0.00    +0.292 HD
ENDBRANCH  19  24
ENDBRANCH  15  18
BRANCH   1  26
ATOM     26  O   LIG A   1      -4.680   2.542 129.430  0.00  0.00    -0.505 OA
ATOM     27  H   LIG A   1      -4.657   2.044 130.277  0.00  0.00    +0.292 HD
ENDBRANCH   1  26
BRANCH  14  28
ATOM     28  O   LIG A   1      -6.662   5.374 125.513  0.00  0.00    -0.368 OA
ATOM     29  C   LIG A   1      -8.036   5.254 125.883  0.00  0.00    +0.195 C 
ENDBRANCH  14  28
BRANCH  10  30
ATOM     30  C   LIG A   1      -6.540  -1.042 125.404  0.00  0.00    +0.069 C 
BRANCH  30  31
ATOM     31  C   LIG A   1      -5.435  -1.788 124.696  0.00  0.00    -0.023 C 
ATOM     32  C   LIG A   1      -5.463  -3.042 124.200  0.00  0.00    -0.079 C 
ATOM     33  C   LIG A   1      -6.651  -3.965 124.243  0.00  0.00    +0.038 C 
ATOM     34  C   LIG A   1      -4.248  -3.644 123.542  0.00  0.00    +0.038 C 
ENDBRANCH  30  31
ENDBRANCH  10  30
TORSDOF 6
ENDMDL
MODEL 2
REMARK VINA RESULT:      -8.5      3.093      5.956
REMARK  Name = NuBBE_1279
REMARK  11 active torsions:
REMARK  status: ('A' for Active; 'I' for Inactive)
REMARK    1  A    between atoms: O_1  and  C_2
REMARK    2  A    between atoms: C_6  and  C_7
REMARK    3  A    between atoms: C_6  and  C_10
REMARK    4  A    between atoms: C_11  and  C_30
REMARK    5  A    between atoms: C_15  and  O_27
REMARK    6  A    between atoms: C_17  and  C_20
REMARK    7  A    between atoms: C_21  and  O_26
REMARK    8  A    between atoms: O_27  and  C_28
REMARK    9  A    between atoms: C_30  and  C_31
REMARK   10  A    between atoms: C_32  and  C_33
REMARK   11  A    between atoms: C_32  and  C_34
REMARK                            x       y       z     vdW  Elec       q    Type
REMARK                         _______ _______ _______ _____ _____    ______ ____
ROOT
ATOM      1  C   LIG A   1      -6.121  -0.515 127.935  0.00  0.00    +0.142 A 
ATOM      2  C   LIG A   1      -6.425  -1.076 126.689  0.00  0.00    +0.059 A 
ATOM      3  C   LIG A   1      -7.522  -0.587 125.969  0.00  0.00    +0.139 A 
ATOM      4  O   LIG A   1      -7.901  -1.111 124.759  0.00  0.00    -0.481 OA
ATOM      5  C   LIG A   1      -7.098  -2.134 124.130  0.00  0.00    +0.123 C 
ATOM      6  C   LIG A   1      -6.576  -1.543 122.815  0.00  0.00    +0.060 C 
ATOM      7  C   LIG A   1      -5.932  -2.640 124.936  0.00  0.00    +0.020 C 
ATOM      8  C   LIG A   1      -5.615  -2.154 126.137  0.00  0.00    +0.015 C 
ATOM      9  C   LIG A   1      -8.036  -3.309 123.834  0.00  0.00    +0.060 C 
ATOM     10  C   LIG A   1      -8.298   0.485 126.477  0.00  0.00    +0.041 A 
ATOM     11  C   LIG A   1      -7.958   1.053 127.725  0.00  0.00    +0.143 A 
ATOM     12  C   LIG A   1      -6.892   0.539 128.455  0.00  0.00    +0.104 A 
ATOM     13  C   LIG A   1      -6.563   1.131 129.763  0.00  0.00    +0.203 C 
ATOM     14  C   LIG A   1      -7.339   2.356 130.236  0.00  0.00    +0.234 C 
ATOM     15  C   LIG A   1      -8.716   2.392 129.545  0.00  0.00    +0.243 C 
ATOM     16  O   LIG A   1      -8.653   2.161 128.127  0.00  0.00    -0.480 OA
ATOM     17  O   LIG A   1      -5.625   0.633 130.401  0.00  0.00    -0.289 OA
ENDROOT
BRANCH  15  18
ATOM     18  C   LIG A   1      -9.407   3.745 129.760  0.00  0.00    +0.037 A 
ATOM     19  C   LIG A   1      -8.874   4.939 129.247  0.00  0.00    +0.124 A 
ATOM     20  C   LIG A   1      -9.444   6.181 129.537  0.00  0.00    +0.046 A 
ATOM     21  C   LIG A   1     -10.605   6.254 130.303  0.00  0.00    +0.004 A 
ATOM     22  C   LIG A   1     -11.191   5.082 130.772  0.00  0.00    +0.001 A 
ATOM     23  C   LIG A   1     -10.598   3.842 130.506  0.00  0.00    +0.011 A 
BRANCH  19  24
ATOM     24  O   LIG A   1      -7.781   4.947 128.426  0.00  0.00    -0.506 OA
ATOM     25  H   LIG A   1      -6.991   5.022 128.997  0.00  0.00    +0.292 HD
ENDBRANCH  19  24
ENDBRANCH  15  18
BRANCH   1  26
ATOM     26  O   LIG A   1      -5.035  -1.026 128.614  0.00  0.00    -0.505 OA
ATOM     27  H   LIG A   1      -4.656  -1.766 128.090  0.00  0.00    +0.292 HD
ENDBRANCH   1  26
BRANCH  14  28
ATOM     28  O   LIG A   1      -7.554   2.391 131.661  0.00  0.00    -0.368 OA
ATOM     29  C   LIG A   1      -6.788   3.389 132.337  0.00  0.00    +0.195 C 
ENDBRANCH  14  28
BRANCH  10  30
ATOM     30  C   LIG A   1      -9.515   0.983 125.714  0.00  0.00    +0.069 C 
BRANCH  30  31
ATOM     31  C   LIG A   1      -9.144   1.930 124.598  0.00  0.00    -0.023 C 
ATOM     32  C   LIG A   1      -9.364   1.782 123.275  0.00  0.00    -0.079 C 
ATOM     33  C   LIG A   1     -10.064   0.612 122.637  0.00  0.00    +0.038 C 
ATOM     34  C   LIG A   1      -8.897   2.824 122.290  0.00  0.00    +0.038 C 
ENDBRANCH  30  31
ENDBRANCH  10  30
TORSDOF 6
ENDMDL
MODEL 3
REMARK VINA RESULT:      -8.4      1.322      6.808
REMARK  Name = NuBBE_1279
REMARK  11 active torsions:
REMARK  status: ('A' for Active; 'I' for Inactive)
REMARK    1  A    between atoms: O_1  and  C_2
REMARK    2  A    between atoms: C_6  and  C_7
REMARK    3  A    between atoms: C_6  and  C_10
REMARK    4  A    between atoms: C_11  and  C_30
REMARK    5  A    between atoms: C_15  and  O_27
REMARK    6  A    between atoms: C_17  and  C_20
REMARK    7  A    between atoms: C_21  and  O_26
REMARK    8  A    between atoms: O_27  and  C_28
REMARK    9  A    between atoms: C_30  and  C_31
REMARK   10  A    between atoms: C_32  and  C_33
REMARK   11  A    between atoms: C_32  and  C_34
REMARK                            x       y       z     vdW  Elec       q    Type
REMARK                         _______ _______ _______ _____ _____    ______ ____
ROOT
ATOM      1  C   LIG A   1      -5.139   2.920 126.464  0.00  0.00    +0.142 A 
ATOM      2  C   LIG A   1      -5.634   2.967 125.155  0.00  0.00    +0.059 A 
ATOM      3  C   LIG A   1      -6.192   1.813 124.593  0.00  0.00    +0.139 A 
ATOM      4  O   LIG A   1      -6.664   1.775 123.306  0.00  0.00    -0.481 OA
ATOM      5  C   LIG A   1      -6.695   2.981 122.510  0.00  0.00    +0.123 C 
ATOM      6  C   LIG A   1      -8.168   3.271 122.199  0.00  0.00    +0.060 C 
ATOM      7  C   LIG A   1      -6.079   4.200 123.144  0.00  0.00    +0.020 C 
ATOM      8  C   LIG A   1      -5.576   4.199 124.378  0.00  0.00    +0.015 C 
ATOM      9  C   LIG A   1      -5.942   2.670 121.211  0.00  0.00    +0.060 C 
ATOM     10  C   LIG A   1      -6.288   0.618 125.349  0.00  0.00    +0.041 A 
ATOM     11  C   LIG A   1      -5.806   0.599 126.676  0.00  0.00    +0.143 A 
ATOM     12  C   LIG A   1      -5.216   1.736 127.218  0.00  0.00    +0.104 A 
ATOM     13  C   LIG A   1      -4.703   1.694 128.597  0.00  0.00    +0.203 C 
ATOM     14  C   LIG A   1      -4.920   0.433 129.428  0.00  0.00    +0.234 C 
ATOM     15  C   LIG A   1      -5.103  -0.776 128.491  0.00  0.00    +0.243 C 
ATOM     16  O   LIG A   1      -6.023  -0.533 127.413  0.00  0.00    -0.480 OA
ATOM     17  O   LIG A   1      -4.159   2.715 129.041  0.00  0.00    -0.289 OA
ENDROOT
BRANCH  15  18
ATOM     18  C   LIG A   1      -5.613  -2.001 129.263  0.00  0.00    +0.037 A 
ATOM     19  C   LIG A   1      -6.917  -2.062 129.779  0.00  0.00    +0.124 A 
ATOM     20  C   LIG A   1      -7.342  -3.128 130.574  0.00  0.00    +0.046 A 
ATOM     21  C   LIG A   1      -6.485  -4.196 130.825  0.00  0.00    +0.004 A 
ATOM     22  C   LIG A   1      -5.207  -4.194 130.274  0.00  0.00    +0.001 A 
ATOM     23  C   LIG A   1      -4.774  -3.107 129.504  0.00  0.00    +0.011 A 
BRANCH  19  24
ATOM     24  O   LIG A   1      -7.842  -1.090 129.516  0.00  0.00    -0.506 OA
ATOM     25  H   LIG A   1      -8.449  -1.446 128.836  0.00  0.00    +0.292 HD
ENDBRANCH  19  24
ENDBRANCH  15  18
BRANCH   1  26
ATOM     26  O   LIG A   1      -4.595   4.077 126.980  0.00  0.00    -0.505 OA
ATOM     27  H   LIG A   1      -3.740   3.859 127.411  0.00  0.00    +0.292 HD
ENDBRANCH   1  26
BRANCH  14  28
ATOM     28  O   LIG A   1      -3.834   0.140 130.329  0.00  0.00    -0.368 OA
ATOM     29  C   LIG A   1      -4.148   0.358 131.705  0.00  0.00    +0.195 C 
ENDBRANCH  14  28
BRANCH  10  30
ATOM     30  C   LIG A   1      -6.853  -0.646 124.720  0.00  0.00    +0.069 C 
BRANCH  30  31
ATOM     31  C   LIG A   1      -5.771  -1.605 124.287  0.00  0.00    -0.023 C 
ATOM     32  C   LIG A   1      -5.862  -2.940 124.116  0.00  0.00    -0.079 C 
ATOM     33  C   LIG A   1      -7.111  -3.756 124.313  0.00  0.00    +0.038 C 
ATOM     34  C   LIG A   1      -4.661  -3.753 123.702  0.00  0.00    +0.038 C 
ENDBRANCH  30  31
ENDBRANCH  10  30
TORSDOF 6
ENDMDL
MODEL 4
REMARK VINA RESULT:      -8.3      3.198      5.528
REMARK  Name = NuBBE_1279
REMARK  11 active torsions:
REMARK  status: ('A' for Active; 'I' for Inactive)
REMARK    1  A    between atoms: O_1  and  C_2
REMARK    2  A    between atoms: C_6  and  C_7
REMARK    3  A    between atoms: C_6  and  C_10
REMARK    4  A    between atoms: C_11  and  C_30
REMARK    5  A    between atoms: C_15  and  O_27
REMARK    6  A    between atoms: C_17  and  C_20
REMARK    7  A    between atoms: C_21  and  O_26
REMARK    8  A    between atoms: O_27  and  C_28
REMARK    9  A    between atoms: C_30  and  C_31
REMARK   10  A    between atoms: C_32  and  C_33
REMARK   11  A    between atoms: C_32  and  C_34
REMARK                            x       y       z     vdW  Elec       q    Type
REMARK                         _______ _______ _______ _____ _____    ______ ____
ROOT
ATOM      1  C   LIG A   1      -8.209   3.606 128.261  0.00  0.00    +0.142 A 
ATOM      2  C   LIG A   1      -8.163   3.528 129.658  0.00  0.00    +0.059 A 
ATOM      3  C   LIG A   1      -8.056   2.273 130.269  0.00  0.00    +0.139 A 
ATOM      4  O   LIG A   1      -8.041   2.117 131.632  0.00  0.00    -0.481 OA
ATOM      5  C   LIG A   1      -8.030   3.277 132.493  0.00  0.00    +0.123 C 
ATOM      6  C   LIG A   1      -6.708   3.241 133.271  0.00  0.00    +0.060 C 
ATOM      7  C   LIG A   1      -8.154   4.608 131.801  0.00  0.00    +0.020 C 
ATOM      8  C   LIG A   1      -8.223   4.733 130.476  0.00  0.00    +0.015 C 
ATOM      9  C   LIG A   1      -9.206   3.117 133.463  0.00  0.00    +0.060 C 
ATOM     10  C   LIG A   1      -7.961   1.096 129.486  0.00  0.00    +0.041 A 
ATOM     11  C   LIG A   1      -7.983   1.199 128.078  0.00  0.00    +0.143 A 
ATOM     12  C   LIG A   1      -8.130   2.443 127.474  0.00  0.00    +0.104 A 
ATOM     13  C   LIG A   1      -8.170   2.531 126.005  0.00  0.00    +0.203 C 
ATOM     14  C   LIG A   1      -7.951   1.265 125.183  0.00  0.00    +0.234 C 
ATOM     15  C   LIG A   1      -8.323   0.031 126.028  0.00  0.00    +0.243 C 
ATOM     16  O   LIG A   1      -7.769   0.057 127.355  0.00  0.00    -0.480 OA
ATOM     17  O   LIG A   1      -8.328   3.651 125.499  0.00  0.00    -0.289 OA
ENDROOT
BRANCH  15  18
ATOM     18  C   LIG A   1      -7.844  -1.263 125.356  0.00  0.00    +0.037 A 
ATOM     19  C   LIG A   1      -8.680  -2.383 125.225  0.00  0.00    +0.124 A 
ATOM     20  C   LIG A   1      -8.210  -3.595 124.714  0.00  0.00    +0.046 A 
ATOM     21  C   LIG A   1      -6.896  -3.698 124.263  0.00  0.00    +0.004 A 
ATOM     22  C   LIG A   1      -6.062  -2.585 124.322  0.00  0.00    +0.001 A 
ATOM     23  C   LIG A   1      -6.529  -1.382 124.865  0.00  0.00    +0.011 A 
BRANCH  19  24
ATOM     24  O   LIG A   1     -10.001  -2.342 125.575  0.00  0.00    -0.506 OA
ATOM     25  H   LIG A   1     -10.043  -2.083 126.517  0.00  0.00    +0.292 HD
ENDBRANCH  19  24
ENDBRANCH  15  18
BRANCH   1  26
ATOM     26  O   LIG A   1      -8.318   4.859 127.697  0.00  0.00    -0.505 OA
ATOM     27  H   LIG A   1      -7.585   5.421 128.034  0.00  0.00    +0.292 HD
ENDBRANCH   1  26
BRANCH  14  28
ATOM     28  O   LIG A   1      -8.725   1.223 123.968  0.00  0.00    -0.368 OA
ATOM     29  C   LIG A   1     -10.137   1.259 124.178  0.00  0.00    +0.195 C 
ENDBRANCH  14  28
BRANCH  10  30
ATOM     30  C   LIG A   1      -7.890  -0.269 130.154  0.00  0.00    +0.069 C 
BRANCH  30  31
ATOM     31  C   LIG A   1      -6.605  -0.996 129.838  0.00  0.00    -0.023 C 
ATOM     32  C   LIG A   1      -6.456  -2.211 129.273  0.00  0.00    -0.079 C 
ATOM     33  C   LIG A   1      -7.581  -3.099 128.814  0.00  0.00    +0.038 C 
ATOM     34  C   LIG A   1      -5.085  -2.801 129.054  0.00  0.00    +0.038 C 
ENDBRANCH  30  31
ENDBRANCH  10  30
TORSDOF 6
ENDMDL
MODEL 5
REMARK VINA RESULT:      -8.3      3.453      6.405
REMARK  Name = NuBBE_1279
REMARK  11 active torsions:
REMARK  status: ('A' for Active; 'I' for Inactive)
REMARK    1  A    between atoms: O_1  and  C_2
REMARK    2  A    between atoms: C_6  and  C_7
REMARK    3  A    between atoms: C_6  and  C_10
REMARK    4  A    between atoms: C_11  and  C_30
REMARK    5  A    between atoms: C_15  and  O_27
REMARK    6  A    between atoms: C_17  and  C_20
REMARK    7  A    between atoms: C_21  and  O_26
REMARK    8  A    between atoms: O_27  and  C_28
REMARK    9  A    between atoms: C_30  and  C_31
REMARK   10  A    between atoms: C_32  and  C_33
REMARK   11  A    between atoms: C_32  and  C_34
REMARK                            x       y       z     vdW  Elec       q    Type
REMARK                         _______ _______ _______ _____ _____    ______ ____
ROOT
ATOM      1  C   LIG A   1      -7.727  -0.999 128.149  0.00  0.00    +0.142 A 
ATOM      2  C   LIG A   1      -7.727  -1.191 126.763  0.00  0.00    +0.059 A 
ATOM      3  C   LIG A   1      -8.049  -0.117 125.924  0.00  0.00    +0.139 A 
ATOM      4  O   LIG A   1      -8.104  -0.240 124.559  0.00  0.00    -0.481 OA
ATOM      5  C   LIG A   1      -7.719  -1.482 123.928  0.00  0.00    +0.123 C 
ATOM      6  C   LIG A   1      -6.495  -1.178 123.057  0.00  0.00    +0.060 C 
ATOM      7  C   LIG A   1      -7.388  -2.616 124.861  0.00  0.00    +0.020 C 
ATOM      8  C   LIG A   1      -7.395  -2.488 126.188  0.00  0.00    +0.015 C 
ATOM      9  C   LIG A   1      -8.895  -1.906 123.040  0.00  0.00    +0.060 C 
ATOM     10  C   LIG A   1      -8.338   1.160 126.467  0.00  0.00    +0.041 A 
ATOM     11  C   LIG A   1      -8.308   1.338 127.868  0.00  0.00    +0.143 A 
ATOM     12  C   LIG A   1      -8.026   0.260 128.699  0.00  0.00    +0.104 A 
ATOM     13  C   LIG A   1      -8.017   0.459 130.158  0.00  0.00    +0.203 C 
ATOM     14  C   LIG A   1      -8.219   1.865 130.713  0.00  0.00    +0.234 C 
ATOM     15  C   LIG A   1      -8.988   2.719 129.687  0.00  0.00    +0.243 C 
ATOM     16  O   LIG A   1      -8.474   2.608 128.349  0.00  0.00    -0.480 OA
ATOM     17  O   LIG A   1      -7.789  -0.528 130.873  0.00  0.00    -0.289 OA
ENDROOT
BRANCH  15  18
ATOM     18  C   LIG A   1      -8.957   4.205 130.070  0.00  0.00    +0.037 A 
ATOM     19  C   LIG A   1     -10.127   4.976 130.144  0.00  0.00    +0.124 A 
ATOM     20  C   LIG A   1     -10.086   6.351 130.384  0.00  0.00    +0.046 A 
ATOM     21  C   LIG A   1      -8.866   6.982 130.616  0.00  0.00    +0.004 A 
ATOM     22  C   LIG A   1      -7.695   6.231 130.611  0.00  0.00    +0.001 A 
ATOM     23  C   LIG A   1      -7.738   4.859 130.338  0.00  0.00    +0.011 A 
BRANCH  19  24
ATOM     24  O   LIG A   1     -11.368   4.419 130.003  0.00  0.00    -0.506 OA
ATOM     25  H   LIG A   1     -11.416   3.662 130.620  0.00  0.00    +0.292 HD
ENDBRANCH  19  24
ENDBRANCH  15  18
BRANCH   1  26
ATOM     26  O   LIG A   1      -7.407  -2.081 128.941  0.00  0.00    -0.505 OA
ATOM     27  H   LIG A   1      -8.062  -2.142 129.671  0.00  0.00    +0.292 HD
ENDBRANCH   1  26
BRANCH  14  28
ATOM     28  O   LIG A   1      -8.947   1.898 131.957  0.00  0.00    -0.368 OA
ATOM     29  C   LIG A   1      -8.151   2.262 133.085  0.00  0.00    +0.195 C 
ENDBRANCH  14  28
BRANCH  10  30
ATOM     30  C   LIG A   1      -8.731   2.312 125.555  0.00  0.00    +0.069 C 
BRANCH  30  31
ATOM     31  C   LIG A   1      -7.563   3.211 125.231  0.00  0.00    -0.023 C 
ATOM     32  C   LIG A   1      -6.887   3.308 124.067  0.00  0.00    -0.079 C 
ATOM     33  C   LIG A   1      -7.192   2.525 122.819  0.00  0.00    +0.038 C 
ATOM     34  C   LIG A   1      -5.716   4.247 123.927  0.00  0.00    +0.038 C 
ENDBRANCH  30  31
ENDBRANCH  10  30
TORSDOF 6
ENDMDL
MODEL 6
REMARK VINA RESULT:      -8.2      2.998      4.658
REMARK  Name = NuBBE_1279
REMARK  11 active torsions:
REMARK  status: ('A' for Active; 'I' for Inactive)
REMARK    1  A    between atoms: O_1  and  C_2
REMARK    2  A    between atoms: C_6  and  C_7
REMARK    3  A    between atoms: C_6  and  C_10
REMARK    4  A    between atoms: C_11  and  C_30
REMARK    5  A    between atoms: C_15  and  O_27
REMARK    6  A    between atoms: C_17  and  C_20
REMARK    7  A    between atoms: C_21  and  O_26
REMARK    8  A    between atoms: O_27  and  C_28
REMARK    9  A    between atoms: C_30  and  C_31
REMARK   10  A    between atoms: C_32  and  C_33
REMARK   11  A    between atoms: C_32  and  C_34
REMARK                            x       y       z     vdW  Elec       q    Type
REMARK                         _______ _______ _______ _____ _____    ______ ____
ROOT
ATOM      1  C   LIG A   1      -7.763   1.306 130.173  0.00  0.00    +0.142 A 
ATOM      2  C   LIG A   1      -7.272   0.504 131.210  0.00  0.00    +0.059 A 
ATOM      3  C   LIG A   1      -6.938  -0.829 130.944  0.00  0.00    +0.139 A 
ATOM      4  O   LIG A   1      -6.485  -1.683 131.918  0.00  0.00    -0.481 OA
ATOM      5  C   LIG A   1      -6.234  -1.190 133.253  0.00  0.00    +0.123 C 
ATOM      6  C   LIG A   1      -4.734  -1.364 133.517  0.00  0.00    +0.060 C 
ATOM      7  C   LIG A   1      -6.612   0.245 133.504  0.00  0.00    +0.020 C 
ATOM      8  C   LIG A   1      -7.104   1.042 132.555  0.00  0.00    +0.015 C 
ATOM      9  C   LIG A   1      -7.035  -2.083 134.209  0.00  0.00    +0.060 C 
ATOM     10  C   LIG A   1      -7.062  -1.356 129.635  0.00  0.00    +0.041 A 
ATOM     11  C   LIG A   1      -7.535  -0.522 128.597  0.00  0.00    +0.143 A 
ATOM     12  C   LIG A   1      -7.903   0.790 128.873  0.00  0.00    +0.104 A 
ATOM     13  C   LIG A   1      -8.412   1.640 127.783  0.00  0.00    +0.203 C 
ATOM     14  C   LIG A   1      -8.429   1.087 126.362  0.00  0.00    +0.234 C 
ATOM     15  C   LIG A   1      -8.474  -0.452 126.408  0.00  0.00    +0.243 C 
ATOM     16  O   LIG A   1      -7.528  -1.027 127.325  0.00  0.00    -0.480 OA
ATOM     17  O   LIG A   1      -8.756   2.796 128.067  0.00  0.00    -0.289 OA
ENDROOT
BRANCH  15  18
ATOM     18  C   LIG A   1      -8.197  -1.055 125.024  0.00  0.00    +0.037 A 
ATOM     19  C   LIG A   1      -8.920  -2.155 124.536  0.00  0.00    +0.124 A 
ATOM     20  C   LIG A   1      -8.592  -2.770 123.325  0.00  0.00    +0.046 A 
ATOM     21  C   LIG A   1      -7.563  -2.258 122.540  0.00  0.00    +0.004 A 
ATOM     22  C   LIG A   1      -6.869  -1.130 122.968  0.00  0.00    +0.001 A 
ATOM     23  C   LIG A   1      -7.180  -0.536 124.197  0.00  0.00    +0.011 A 
BRANCH  19  24
ATOM     24  O   LIG A   1      -9.992  -2.670 125.210  0.00  0.00    -0.506 OA
ATOM     25  H   LIG A   1     -10.176  -2.070 125.960  0.00  0.00    +0.292 HD
ENDBRANCH  19  24
ENDBRANCH  15  18
BRANCH   1  26
ATOM     26  O   LIG A   1      -8.082   2.612 130.476  0.00  0.00    -0.505 OA
ATOM     27  H   LIG A   1      -9.059   2.711 130.456  0.00  0.00    +0.292 HD
ENDBRANCH   1  26
BRANCH  14  28
ATOM     28  O   LIG A   1      -9.547   1.544 125.576  0.00  0.00    -0.368 OA
ATOM     29  C   LIG A   1      -9.188   2.433 124.518  0.00  0.00    +0.195 C 
ENDBRANCH  14  28
BRANCH  10  30
ATOM     30  C   LIG A   1      -6.741  -2.816 129.359  0.00  0.00    +0.069 C 
BRANCH  30  31
ATOM     31  C   LIG A   1      -5.298  -3.022 128.968  0.00  0.00    -0.023 C 
ATOM     32  C   LIG A   1      -4.319  -3.612 129.686  0.00  0.00    -0.079 C 
ATOM     33  C   LIG A   1      -4.489  -4.215 131.054  0.00  0.00    +0.038 C 
ATOM     34  C   LIG A   1      -2.913  -3.708 129.148  0.00  0.00    +0.038 C 
ENDBRANCH  30  31
ENDBRANCH  10  30
TORSDOF 6
ENDMDL
MODEL 7
REMARK VINA RESULT:      -8.2      3.346      6.784
REMARK  Name = NuBBE_1279
REMARK  11 active torsions:
REMARK  status: ('A' for Active; 'I' for Inactive)
REMARK    1  A    between atoms: O_1  and  C_2
REMARK    2  A    between atoms: C_6  and  C_7
REMARK    3  A    between atoms: C_6  and  C_10
REMARK    4  A    between atoms: C_11  and  C_30
REMARK    5  A    between atoms: C_15  and  O_27
REMARK    6  A    between atoms: C_17  and  C_20
REMARK    7  A    between atoms: C_21  and  O_26
REMARK    8  A    between atoms: O_27  and  C_28
REMARK    9  A    between atoms: C_30  and  C_31
REMARK   10  A    between atoms: C_32  and  C_33
REMARK   11  A    between atoms: C_32  and  C_34
REMARK                            x       y       z     vdW  Elec       q    Type
REMARK                         _______ _______ _______ _____ _____    ______ ____
ROOT
ATOM      1  C   LIG A   1      -8.330   0.529 131.218  0.00  0.00    +0.142 A 
ATOM      2  C   LIG A   1      -8.787   1.845 131.085  0.00  0.00    +0.059 A 
ATOM      3  C   LIG A   1      -8.808   2.437 129.816  0.00  0.00    +0.139 A 
ATOM      4  O   LIG A   1      -9.209   3.733 129.615  0.00  0.00    -0.481 OA
ATOM      5  C   LIG A   1      -9.733   4.508 130.716  0.00  0.00    +0.123 C 
ATOM      6  C   LIG A   1     -11.190   4.841 130.372  0.00  0.00    +0.060 C 
ATOM      7  C   LIG A   1      -9.688   3.843 132.065  0.00  0.00    +0.020 C 
ATOM      8  C   LIG A   1      -9.241   2.600 132.246  0.00  0.00    +0.015 C 
ATOM      9  C   LIG A   1      -8.908   5.799 130.778  0.00  0.00    +0.060 C 
ATOM     10  C   LIG A   1      -8.403   1.704 128.672  0.00  0.00    +0.041 A 
ATOM     11  C   LIG A   1      -7.970   0.369 128.825  0.00  0.00    +0.143 A 
ATOM     12  C   LIG A   1      -7.913  -0.203 130.092  0.00  0.00    +0.104 A 
ATOM     13  C   LIG A   1      -7.441  -1.590 130.235  0.00  0.00    +0.203 C 
ATOM     14  C   LIG A   1      -7.120  -2.395 128.980  0.00  0.00    +0.234 C 
ATOM     15  C   LIG A   1      -6.773  -1.434 127.827  0.00  0.00    +0.243 C 
ATOM     16  O   LIG A   1      -7.701  -0.344 127.689  0.00  0.00    -0.480 OA
ATOM     17  O   LIG A   1      -7.377  -2.061 131.380  0.00  0.00    -0.289 OA
ENDROOT
BRANCH  15  18
ATOM     18  C   LIG A   1      -6.733  -2.176 126.483  0.00  0.00    +0.037 A 
ATOM     19  C   LIG A   1      -7.875  -2.780 125.935  0.00  0.00    +0.124 A 
ATOM     20  C   LIG A   1      -7.813  -3.547 124.770  0.00  0.00    +0.046 A 
ATOM     21  C   LIG A   1      -6.607  -3.679 124.086  0.00  0.00    +0.004 A 
ATOM     22  C   LIG A   1      -5.470  -3.038 124.571  0.00  0.00    +0.001 A 
ATOM     23  C   LIG A   1      -5.531  -2.297 125.758  0.00  0.00    +0.011 A 
BRANCH  19  24
ATOM     24  O   LIG A   1      -9.110  -2.636 126.504  0.00  0.00    -0.506 OA
ATOM     25  H   LIG A   1      -9.677  -2.179 125.851  0.00  0.00    +0.292 HD
ENDBRANCH  19  24
ENDBRANCH  15  18
BRANCH   1  26
ATOM     26  O   LIG A   1      -8.323  -0.017 132.483  0.00  0.00    -0.505 OA
ATOM     27  H   LIG A   1      -8.934   0.500 133.053  0.00  0.00    +0.292 HD
ENDBRANCH   1  26
BRANCH  14  28
ATOM     28  O   LIG A   1      -6.019  -3.310 129.145  0.00  0.00    -0.368 OA
ATOM     29  C   LIG A   1      -4.765  -2.670 129.388  0.00  0.00    +0.195 C 
ENDBRANCH  14  28
BRANCH  10  30
ATOM     30  C   LIG A   1      -8.384   2.365 127.303  0.00  0.00    +0.069 C 
BRANCH  30  31
ATOM     31  C   LIG A   1      -7.026   2.925 126.955  0.00  0.00    -0.023 C 
ATOM     32  C   LIG A   1      -6.178   2.511 125.991  0.00  0.00    -0.079 C 
ATOM     33  C   LIG A   1      -6.441   1.384 125.030  0.00  0.00    +0.038 C 
ATOM     34  C   LIG A   1      -4.838   3.175 125.801  0.00  0.00    +0.038 C 
ENDBRANCH  30  31
ENDBRANCH  10  30
TORSDOF 6
ENDMDL
MODEL 8
REMARK VINA RESULT:      -8.0      3.806      6.777
REMARK  Name = NuBBE_1279
REMARK  11 active torsions:
REMARK  status: ('A' for Active; 'I' for Inactive)
REMARK    1  A    between atoms: O_1  and  C_2
REMARK    2  A    between atoms: C_6  and  C_7
REMARK    3  A    between atoms: C_6  and  C_10
REMARK    4  A    between atoms: C_11  and  C_30
REMARK    5  A    between atoms: C_15  and  O_27
REMARK    6  A    between atoms: C_17  and  C_20
REMARK    7  A    between atoms: C_21  and  O_26
REMARK    8  A    between atoms: O_27  and  C_28
REMARK    9  A    between atoms: C_30  and  C_31
REMARK   10  A    between atoms: C_32  and  C_33
REMARK   11  A    between atoms: C_32  and  C_34
REMARK                            x       y       z     vdW  Elec       q    Type
REMARK                         _______ _______ _______ _____ _____    ______ ____
ROOT
ATOM      1  C   LIG A   1      -8.300   2.291 126.661  0.00  0.00    +0.142 A 
ATOM      2  C   LIG A   1      -8.253   0.926 126.352  0.00  0.00    +0.059 A 
ATOM      3  C   LIG A   1      -8.034   0.000 127.379  0.00  0.00    +0.139 A 
ATOM      4  O   LIG A   1      -7.940  -1.348 127.145  0.00  0.00    -0.481 OA
ATOM      5  C   LIG A   1      -8.175  -1.873 125.820  0.00  0.00    +0.123 C 
ATOM      6  C   LIG A   1      -9.409  -2.778 125.912  0.00  0.00    +0.060 C 
ATOM      7  C   LIG A   1      -8.400  -0.847 124.741  0.00  0.00    +0.020 C 
ATOM      8  C   LIG A   1      -8.432   0.464 124.981  0.00  0.00    +0.015 C 
ATOM      9  C   LIG A   1      -6.944  -2.709 125.452  0.00  0.00    +0.060 C 
ATOM     10  C   LIG A   1      -7.894   0.432 128.721  0.00  0.00    +0.041 A 
ATOM     11  C   LIG A   1      -7.970   1.812 129.014  0.00  0.00    +0.143 A 
ATOM     12  C   LIG A   1      -8.149   2.732 127.987  0.00  0.00    +0.104 A 
ATOM     13  C   LIG A   1      -8.208   4.167 128.308  0.00  0.00    +0.203 C 
ATOM     14  C   LIG A   1      -8.170   4.600 129.770  0.00  0.00    +0.234 C 
ATOM     15  C   LIG A   1      -7.478   3.510 130.612  0.00  0.00    +0.243 C 
ATOM     16  O   LIG A   1      -7.951   2.181 130.331  0.00  0.00    -0.480 OA
ATOM     17  O   LIG A   1      -8.341   4.963 127.367  0.00  0.00    -0.289 OA
ENDROOT
BRANCH  15  18
ATOM     18  C   LIG A   1      -7.677   3.761 132.113  0.00  0.00    +0.037 A 
ATOM     19  C   LIG A   1      -8.919   3.570 132.738  0.00  0.00    +0.124 A 
ATOM     20  C   LIG A   1      -9.125   3.904 134.078  0.00  0.00    +0.046 A 
ATOM     21  C   LIG A   1      -8.068   4.385 134.847  0.00  0.00    +0.004 A 
ATOM     22  C   LIG A   1      -6.809   4.525 134.271  0.00  0.00    +0.001 A 
ATOM     23  C   LIG A   1      -6.615   4.220 132.918  0.00  0.00    +0.011 A 
BRANCH  19  24
ATOM     24  O   LIG A   1      -9.986   3.032 132.074  0.00  0.00    -0.506 OA
ATOM     25  H   LIG A   1     -10.627   3.755 131.925  0.00  0.00    +0.292 HD
ENDBRANCH  19  24
ENDBRANCH  15  18
BRANCH   1  26
ATOM     26  O   LIG A   1      -8.516   3.170 125.621  0.00  0.00    -0.505 OA
ATOM     27  H   LIG A   1      -8.199   4.060 125.891  0.00  0.00    +0.292 HD
ENDBRANCH   1  26
BRANCH  14  28
ATOM     28  O   LIG A   1      -7.472   5.842 129.989  0.00  0.00    -0.368 OA
ATOM     29  C   LIG A   1      -8.248   6.829 130.670  0.00  0.00    +0.195 C 
ENDBRANCH  14  28
BRANCH  10  30
ATOM     30  C   LIG A   1      -7.611  -0.573 129.827  0.00  0.00    +0.069 C 
BRANCH  30  31
ATOM     31  C   LIG A   1      -6.246  -1.204 129.692  0.00  0.00    -0.023 C 
ATOM     32  C   LIG A   1      -5.940  -2.516 129.628  0.00  0.00    -0.079 C 
ATOM     33  C   LIG A   1      -6.938  -3.642 129.659  0.00  0.00    +0.038 C 
ATOM     34  C   LIG A   1      -4.507  -2.974 129.521  0.00  0.00    +0.038 C 
ENDBRANCH  30  31
ENDBRANCH  10  30
TORSDOF 6
ENDMDL
MODEL 9
REMARK VINA RESULT:      -7.8      3.552      7.779
REMARK  Name = NuBBE_1279
REMARK  11 active torsions:
REMARK  status: ('A' for Active; 'I' for Inactive)
REMARK    1  A    between atoms: O_1  and  C_2
REMARK    2  A    between atoms: C_6  and  C_7
REMARK    3  A    between atoms: C_6  and  C_10
REMARK    4  A    between atoms: C_11  and  C_30
REMARK    5  A    between atoms: C_15  and  O_27
REMARK    6  A    between atoms: C_17  and  C_20
REMARK    7  A    between atoms: C_21  and  O_26
REMARK    8  A    between atoms: O_27  and  C_28
REMARK    9  A    between atoms: C_30  and  C_31
REMARK   10  A    between atoms: C_32  and  C_33
REMARK   11  A    between atoms: C_32  and  C_34
REMARK                            x       y       z     vdW  Elec       q    Type
REMARK                         _______ _______ _______ _____ _____    ______ ____
ROOT
ATOM      1  C   LIG A   1      -3.740   3.837 127.979  0.00  0.00    +0.142 A 
ATOM      2  C   LIG A   1      -3.273   4.619 129.041  0.00  0.00    +0.059 A 
ATOM      3  C   LIG A   1      -3.460   4.171 130.354  0.00  0.00    +0.139 A 
ATOM      4  O   LIG A   1      -3.061   4.901 131.445  0.00  0.00    -0.481 OA
ATOM      5  C   LIG A   1      -2.326   6.132 131.264  0.00  0.00    +0.123 C 
ATOM      6  C   LIG A   1      -0.944   5.922 131.893  0.00  0.00    +0.060 C 
ATOM      7  C   LIG A   1      -2.151   6.586 129.839  0.00  0.00    +0.020 C 
ATOM      8  C   LIG A   1      -2.597   5.887 128.795  0.00  0.00    +0.015 C 
ATOM      9  C   LIG A   1      -3.088   7.216 132.034  0.00  0.00    +0.060 C 
ATOM     10  C   LIG A   1      -4.083   2.924 130.608  0.00  0.00    +0.041 A 
ATOM     11  C   LIG A   1      -4.524   2.137 129.520  0.00  0.00    +0.143 A 
ATOM     12  C   LIG A   1      -4.372   2.604 128.219  0.00  0.00    +0.104 A 
ATOM     13  C   LIG A   1      -4.854   1.780 127.098  0.00  0.00    +0.203 C 
ATOM     14  C   LIG A   1      -5.417   0.393 127.389  0.00  0.00    +0.234 C 
ATOM     15  C   LIG A   1      -5.933   0.341 128.840  0.00  0.00    +0.243 C 
ATOM     16  O   LIG A   1      -5.011   0.890 129.797  0.00  0.00    -0.480 OA
ATOM     17  O   LIG A   1      -4.728   2.236 125.952  0.00  0.00    -0.289 OA
ENDROOT
BRANCH  15  18
ATOM     18  C   LIG A   1      -6.234  -1.102 129.267  0.00  0.00    +0.037 A 
ATOM     19  C   LIG A   1      -5.213  -2.044 129.472  0.00  0.00    +0.124 A 
ATOM     20  C   LIG A   1      -5.494  -3.382 129.753  0.00  0.00    +0.046 A 
ATOM     21  C   LIG A   1      -6.814  -3.802 129.896  0.00  0.00    +0.004 A 
ATOM     22  C   LIG A   1      -7.845  -2.878 129.761  0.00  0.00    +0.001 A 
ATOM     23  C   LIG A   1      -7.560  -1.544 129.448  0.00  0.00    +0.011 A 
BRANCH  19  24
ATOM     24  O   LIG A   1      -3.891  -1.696 129.424  0.00  0.00    -0.506 OA
ATOM     25  H   LIG A   1      -3.515  -2.103 128.618  0.00  0.00    +0.292 HD
ENDBRANCH  19  24
ENDBRANCH  15  18
BRANCH   1  26
ATOM     26  O   LIG A   1      -3.538   4.314 126.701  0.00  0.00    -0.505 OA
ATOM     27  H   LIG A   1      -2.724   3.904 126.336  0.00  0.00    +0.292 HD
ENDBRANCH   1  26
BRANCH  14  28
ATOM     28  O   LIG A   1      -6.499   0.013 126.516  0.00  0.00    -0.368 OA
ATOM     29  C   LIG A   1      -7.647   0.856 126.616  0.00  0.00    +0.195 C 
ENDBRANCH  14  28
BRANCH  10  30
ATOM     30  C   LIG A   1      -4.325   2.461 132.036  0.00  0.00    +0.069 C 
BRANCH  30  31
ATOM     31  C   LIG A   1      -5.710   2.811 132.526  0.00  0.00    -0.023 C 
ATOM     32  C   LIG A   1      -6.718   1.970 132.837  0.00  0.00    -0.079 C 
ATOM     33  C   LIG A   1      -6.647   0.469 132.773  0.00  0.00    +0.038 C 
ATOM     34  C   LIG A   1      -8.056   2.499 133.288  0.00  0.00    +0.038 C 
ENDBRANCH  30  31
ENDBRANCH  10  30
TORSDOF 6
ENDMDL
