MODEL 1
REMARK VINA RESULT:      -7.9      0.000      0.000
REMARK  Name = NuBBE_2238
REMARK  6 active torsions:
REMARK  status: ('A' for Active; 'I' for Inactive)
REMARK    1  A    between atoms: C_11  and  C_12
REMARK    2  A    between atoms: C_13  and  O_15
REMARK    3  A    between atoms: C_17  and  C_18
REMARK    4  A    between atoms: C_17  and  C_19
REMARK    5  A    between atoms: C_22  and  C_23
REMARK    6  A    between atoms: C_22  and  C_24
REMARK                            x       y       z     vdW  Elec       q    Type
REMARK                         _______ _______ _______ _____ _____    ______ ____
ROOT
ATOM      1  O   LIG A   1      -6.465  -2.068 122.802  0.00  0.00    -0.292 OA
ATOM      2  C   LIG A   1      -6.591  -2.103 124.029  0.00  0.00    +0.164 C 
ATOM      3  C   LIG A   1      -5.601  -1.358 124.830  0.00  0.00    +0.045 C 
ATOM      4  C   LIG A   1      -5.758  -1.193 126.147  0.00  0.00    +0.014 C 
ATOM      5  C   LIG A   1      -6.902  -1.676 126.946  0.00  0.00    +0.127 C 
ATOM      6  O   LIG A   1      -8.224  -1.308 126.476  0.00  0.00    -0.355 OA
ATOM      7  C   LIG A   1      -7.861  -2.663 126.218  0.00  0.00    +0.116 C 
ATOM      8  C   LIG A   1      -8.726  -3.627 127.003  0.00  0.00    +0.039 C 
ATOM      9  C   LIG A   1      -8.809  -3.315 128.493  0.00  0.00    +0.007 C 
ATOM     10  C   LIG A   1      -7.406  -3.037 129.039  0.00  0.00    +0.001 C 
ATOM     11  C   LIG A   1      -6.824  -1.674 128.526  0.00  0.00    +0.032 C 
ATOM     12  C   LIG A   1      -7.621  -0.442 129.044  0.00  0.00    +0.017 C 
ATOM     13  C   LIG A   1      -5.357  -1.591 129.092  0.00  0.00    +0.125 C 
ATOM     14  C   LIG A   1      -5.264  -1.796 130.618  0.00  0.00    +0.042 C 
ATOM     15  C   LIG A   1      -5.959  -3.057 131.167  0.00  0.00    -0.012 C 
ATOM     16  C   LIG A   1      -6.101  -2.897 132.698  0.00  0.00    +0.015 C 
ATOM     17  C   LIG A   1      -7.380  -3.173 130.569  0.00  0.00    +0.015 C 
ATOM     18  C   LIG A   1      -7.656  -2.970 124.721  0.00  0.00    +0.059 C 
ATOM     19  C   LIG A   1      -8.980  -2.774 123.953  0.00  0.00    +0.022 C 
ATOM     20  C   LIG A   1      -7.172  -4.423 124.529  0.00  0.00    +0.022 C 
ENDROOT
BRANCH  13  21
ATOM     21  O   LIG A   1      -4.773  -0.305 128.841  0.00  0.00    -0.391 OA
ATOM     22  H   LIG A   1      -3.848  -0.443 128.575  0.00  0.00    +0.210 HD
ENDBRANCH  13  21
BRANCH  15  23
ATOM     23  C   LIG A   1      -5.128  -4.288 130.793  0.00  0.00    -0.028 C 
ATOM     24  C   LIG A   1      -5.463  -5.578 130.930  0.00  0.00    +0.004 C 
ENDBRANCH  15  23
TORSDOF 2
ENDMDL
MODEL 2
REMARK VINA RESULT:      -7.8      1.805      6.062
REMARK  Name = NuBBE_2238
REMARK  6 active torsions:
REMARK  status: ('A' for Active; 'I' for Inactive)
REMARK    1  A    between atoms: C_11  and  C_12
REMARK    2  A    between atoms: C_13  and  O_15
REMARK    3  A    between atoms: C_17  and  C_18
REMARK    4  A    between atoms: C_17  and  C_19
REMARK    5  A    between atoms: C_22  and  C_23
REMARK    6  A    between atoms: C_22  and  C_24
REMARK                            x       y       z     vdW  Elec       q    Type
REMARK                         _______ _______ _______ _____ _____    ______ ____
ROOT
ATOM      1  O   LIG A   1      -7.428  -2.694 132.001  0.00  0.00    -0.292 OA
ATOM      2  C   LIG A   1      -7.312  -2.448 130.797  0.00  0.00    +0.164 C 
ATOM      3  C   LIG A   1      -8.062  -3.305 129.859  0.00  0.00    +0.045 C 
ATOM      4  C   LIG A   1      -8.140  -3.007 128.559  0.00  0.00    +0.014 C 
ATOM      5  C   LIG A   1      -7.548  -1.820 127.909  0.00  0.00    +0.127 C 
ATOM      6  O   LIG A   1      -7.869  -0.532 128.494  0.00  0.00    -0.355 OA
ATOM      7  C   LIG A   1      -6.554  -1.001 128.785  0.00  0.00    +0.116 C 
ATOM      8  C   LIG A   1      -5.498  -0.123 128.146  0.00  0.00    +0.039 C 
ATOM      9  C   LIG A   1      -5.715   0.128 126.658  0.00  0.00    +0.007 C 
ATOM     10  C   LIG A   1      -6.039  -1.193 125.956  0.00  0.00    +0.001 C 
ATOM     11  C   LIG A   1      -7.460  -1.739 126.332  0.00  0.00    +0.032 C 
ATOM     12  C   LIG A   1      -8.613  -0.819 125.835  0.00  0.00    +0.017 C 
ATOM     13  C   LIG A   1      -7.591  -3.134 125.613  0.00  0.00    +0.125 C 
ATOM     14  C   LIG A   1      -7.301  -3.085 124.099  0.00  0.00    +0.042 C 
ATOM     15  C   LIG A   1      -5.973  -2.418 123.694  0.00  0.00    -0.012 C 
ATOM     16  C   LIG A   1      -6.034  -2.113 122.179  0.00  0.00    +0.015 C 
ATOM     17  C   LIG A   1      -5.814  -1.074 124.441  0.00  0.00    +0.015 C 
ATOM     18  C   LIG A   1      -6.348  -1.374 130.267  0.00  0.00    +0.059 C 
ATOM     19  C   LIG A   1      -6.515  -0.125 131.156  0.00  0.00    +0.022 C 
ATOM     20  C   LIG A   1      -4.939  -1.964 130.484  0.00  0.00    +0.022 C 
ENDROOT
BRANCH  13  21
ATOM     21  O   LIG A   1      -8.920  -3.659 125.733  0.00  0.00    -0.391 OA
ATOM     22  H   LIG A   1      -9.172  -3.624 126.673  0.00  0.00    +0.210 HD
ENDBRANCH  13  21
BRANCH  15  23
ATOM     23  C   LIG A   1      -4.815  -3.356 124.045  0.00  0.00    -0.028 C 
ATOM     24  C   LIG A   1      -4.637  -4.625 123.651  0.00  0.00    +0.004 C 
ENDBRANCH  15  23
TORSDOF 2
ENDMDL
MODEL 3
REMARK VINA RESULT:      -7.6      7.581      9.559
REMARK  Name = NuBBE_2238
REMARK  6 active torsions:
REMARK  status: ('A' for Active; 'I' for Inactive)
REMARK    1  A    between atoms: C_11  and  C_12
REMARK    2  A    between atoms: C_13  and  O_15
REMARK    3  A    between atoms: C_17  and  C_18
REMARK    4  A    between atoms: C_17  and  C_19
REMARK    5  A    between atoms: C_22  and  C_23
REMARK    6  A    between atoms: C_22  and  C_24
REMARK                            x       y       z     vdW  Elec       q    Type
REMARK                         _______ _______ _______ _____ _____    ______ ____
ROOT
ATOM      1  O   LIG A   1     -12.180   7.955 126.060  0.00  0.00    -0.292 OA
ATOM      2  C   LIG A   1     -11.646   7.481 127.066  0.00  0.00    +0.164 C 
ATOM      3  C   LIG A   1     -10.371   6.762 126.876  0.00  0.00    +0.045 C 
ATOM      4  C   LIG A   1      -9.634   6.371 127.921  0.00  0.00    +0.014 C 
ATOM      5  C   LIG A   1      -9.952   6.618 129.341  0.00  0.00    +0.127 C 
ATOM      6  O   LIG A   1     -10.229   7.993 129.715  0.00  0.00    -0.355 OA
ATOM      7  C   LIG A   1     -11.384   7.161 129.625  0.00  0.00    +0.116 C 
ATOM      8  C   LIG A   1     -12.035   6.968 130.979  0.00  0.00    +0.039 C 
ATOM      9  C   LIG A   1     -11.072   6.517 132.072  0.00  0.00    +0.007 C 
ATOM     10  C   LIG A   1     -10.200   5.373 131.549  0.00  0.00    +0.001 C 
ATOM     11  C   LIG A   1      -9.161   5.855 130.478  0.00  0.00    +0.032 C 
ATOM     12  C   LIG A   1      -8.098   6.830 131.060  0.00  0.00    +0.017 C 
ATOM     13  C   LIG A   1      -8.423   4.556 129.978  0.00  0.00    +0.125 C 
ATOM     14  C   LIG A   1      -7.826   3.701 131.114  0.00  0.00    +0.042 C 
ATOM     15  C   LIG A   1      -8.793   3.338 132.258  0.00  0.00    -0.012 C 
ATOM     16  C   LIG A   1      -7.952   2.838 133.455  0.00  0.00    +0.015 C 
ATOM     17  C   LIG A   1      -9.561   4.601 132.713  0.00  0.00    +0.015 C 
ATOM     18  C   LIG A   1     -12.314   7.526 128.450  0.00  0.00    +0.059 C 
ATOM     19  C   LIG A   1     -12.879   8.948 128.642  0.00  0.00    +0.022 C 
ATOM     20  C   LIG A   1     -13.485   6.525 128.357  0.00  0.00    +0.022 C 
ENDROOT
BRANCH  13  21
ATOM     21  O   LIG A   1      -7.320   4.880 129.121  0.00  0.00    -0.391 OA
ATOM     22  H   LIG A   1      -6.597   4.259 129.316  0.00  0.00    +0.210 HD
ENDBRANCH  13  21
BRANCH  15  23
ATOM     23  C   LIG A   1      -9.776   2.274 131.762  0.00  0.00    -0.028 C 
ATOM     24  C   LIG A   1      -9.634   0.942 131.802  0.00  0.00    +0.004 C 
ENDBRANCH  15  23
TORSDOF 2
ENDMDL
MODEL 4
REMARK VINA RESULT:      -7.4      7.228      9.686
REMARK  Name = NuBBE_2238
REMARK  6 active torsions:
REMARK  status: ('A' for Active; 'I' for Inactive)
REMARK    1  A    between atoms: C_11  and  C_12
REMARK    2  A    between atoms: C_13  and  O_15
REMARK    3  A    between atoms: C_17  and  C_18
REMARK    4  A    between atoms: C_17  and  C_19
REMARK    5  A    between atoms: C_22  and  C_23
REMARK    6  A    between atoms: C_22  and  C_24
REMARK                            x       y       z     vdW  Elec       q    Type
REMARK                         _______ _______ _______ _____ _____    ______ ____
ROOT
ATOM      1  O   LIG A   1      -2.459   4.759 127.474  0.00  0.00    -0.292 OA
ATOM      2  C   LIG A   1      -3.506   4.912 128.109  0.00  0.00    +0.164 C 
ATOM      3  C   LIG A   1      -4.709   4.224 127.601  0.00  0.00    +0.045 C 
ATOM      4  C   LIG A   1      -5.838   4.187 128.314  0.00  0.00    +0.014 C 
ATOM      5  C   LIG A   1      -6.030   4.767 129.658  0.00  0.00    +0.127 C 
ATOM      6  O   LIG A   1      -5.066   4.386 130.673  0.00  0.00    -0.355 OA
ATOM      7  C   LIG A   1      -4.888   5.703 130.155  0.00  0.00    +0.116 C 
ATOM      8  C   LIG A   1      -5.150   6.754 131.212  0.00  0.00    +0.039 C 
ATOM      9  C   LIG A   1      -6.479   6.586 131.940  0.00  0.00    +0.007 C 
ATOM     10  C   LIG A   1      -7.593   6.329 130.923  0.00  0.00    +0.001 C 
ATOM     11  C   LIG A   1      -7.485   4.912 130.262  0.00  0.00    +0.032 C 
ATOM     12  C   LIG A   1      -7.700   3.752 131.276  0.00  0.00    +0.017 C 
ATOM     13  C   LIG A   1      -8.631   4.850 129.184  0.00  0.00    +0.125 C 
ATOM     14  C   LIG A   1     -10.028   5.195 129.738  0.00  0.00    +0.042 C 
ATOM     15  C   LIG A   1     -10.129   6.517 130.523  0.00  0.00    -0.012 C 
ATOM     16  C   LIG A   1     -11.457   6.505 131.314  0.00  0.00    +0.015 C 
ATOM     17  C   LIG A   1      -8.971   6.608 131.544  0.00  0.00    +0.015 C 
ATOM     18  C   LIG A   1      -3.606   5.863 129.313  0.00  0.00    +0.059 C 
ATOM     19  C   LIG A   1      -2.361   5.625 130.192  0.00  0.00    +0.022 C 
ATOM     20  C   LIG A   1      -3.533   7.281 128.706  0.00  0.00    +0.022 C 
ENDROOT
BRANCH  13  21
ATOM     21  O   LIG A   1      -8.753   3.533 128.627  0.00  0.00    -0.391 OA
ATOM     22  H   LIG A   1      -9.502   3.092 129.065  0.00  0.00    +0.210 HD
ENDBRANCH  13  21
BRANCH  15  23
ATOM     23  C   LIG A   1     -10.056   7.689 129.540  0.00  0.00    -0.028 C 
ATOM     24  C   LIG A   1     -10.870   7.945 128.506  0.00  0.00    +0.004 C 
ENDBRANCH  15  23
TORSDOF 2
ENDMDL
MODEL 5
REMARK VINA RESULT:      -7.4      2.808      4.840
REMARK  Name = NuBBE_2238
REMARK  6 active torsions:
REMARK  status: ('A' for Active; 'I' for Inactive)
REMARK    1  A    between atoms: C_11  and  C_12
REMARK    2  A    between atoms: C_13  and  O_15
REMARK    3  A    between atoms: C_17  and  C_18
REMARK    4  A    between atoms: C_17  and  C_19
REMARK    5  A    between atoms: C_22  and  C_23
REMARK    6  A    between atoms: C_22  and  C_24
REMARK                            x       y       z     vdW  Elec       q    Type
REMARK                         _______ _______ _______ _____ _____    ______ ____
ROOT
ATOM      1  O   LIG A   1      -9.181   2.934 122.189  0.00  0.00    -0.292 OA
ATOM      2  C   LIG A   1      -8.777   2.064 122.964  0.00  0.00    +0.164 C 
ATOM      3  C   LIG A   1      -9.678   0.925 123.227  0.00  0.00    +0.045 C 
ATOM      4  C   LIG A   1      -9.259  -0.146 123.907  0.00  0.00    +0.014 C 
ATOM      5  C   LIG A   1      -7.897  -0.352 124.440  0.00  0.00    +0.127 C 
ATOM      6  O   LIG A   1      -6.803  -0.194 123.501  0.00  0.00    -0.355 OA
ATOM      7  C   LIG A   1      -6.967   0.896 124.405  0.00  0.00    +0.116 C 
ATOM      8  C   LIG A   1      -5.789   1.013 125.351  0.00  0.00    +0.039 C 
ATOM      9  C   LIG A   1      -5.430  -0.287 126.059  0.00  0.00    +0.007 C 
ATOM     10  C   LIG A   1      -6.700  -0.942 126.608  0.00  0.00    +0.001 C 
ATOM     11  C   LIG A   1      -7.615  -1.517 125.472  0.00  0.00    +0.032 C 
ATOM     12  C   LIG A   1      -6.954  -2.694 124.698  0.00  0.00    +0.017 C 
ATOM     13  C   LIG A   1      -8.908  -2.058 126.192  0.00  0.00    +0.125 C 
ATOM     14  C   LIG A   1      -8.616  -3.043 127.342  0.00  0.00    +0.042 C 
ATOM     15  C   LIG A   1      -7.601  -2.559 128.396  0.00  0.00    -0.012 C 
ATOM     16  C   LIG A   1      -7.148  -3.785 129.222  0.00  0.00    +0.015 C 
ATOM     17  C   LIG A   1      -6.354  -1.975 127.693  0.00  0.00    +0.015 C 
ATOM     18  C   LIG A   1      -7.447   2.193 123.724  0.00  0.00    +0.059 C 
ATOM     19  C   LIG A   1      -6.388   2.686 122.717  0.00  0.00    +0.022 C 
ATOM     20  C   LIG A   1      -7.696   3.295 124.775  0.00  0.00    +0.022 C 
ENDROOT
BRANCH  13  21
ATOM     21  O   LIG A   1      -9.752  -2.772 125.279  0.00  0.00    -0.391 OA
ATOM     22  H   LIG A   1     -10.668  -2.475 125.423  0.00  0.00    +0.210 HD
ENDBRANCH  13  21
BRANCH  15  23
ATOM     23  C   LIG A   1      -8.263  -1.489 129.271  0.00  0.00    -0.028 C 
ATOM     24  C   LIG A   1      -7.715  -0.802 130.283  0.00  0.00    +0.004 C 
ENDBRANCH  15  23
TORSDOF 2
ENDMDL
MODEL 6
REMARK VINA RESULT:      -7.3      3.938      6.229
REMARK  Name = NuBBE_2238
REMARK  6 active torsions:
REMARK  status: ('A' for Active; 'I' for Inactive)
REMARK    1  A    between atoms: C_11  and  C_12
REMARK    2  A    between atoms: C_13  and  O_15
REMARK    3  A    between atoms: C_17  and  C_18
REMARK    4  A    between atoms: C_17  and  C_19
REMARK    5  A    between atoms: C_22  and  C_23
REMARK    6  A    between atoms: C_22  and  C_24
REMARK                            x       y       z     vdW  Elec       q    Type
REMARK                         _______ _______ _______ _____ _____    ______ ____
ROOT
ATOM      1  O   LIG A   1      -9.136  -3.024 122.472  0.00  0.00    -0.292 OA
ATOM      2  C   LIG A   1      -8.663  -2.075 123.103  0.00  0.00    +0.164 C 
ATOM      3  C   LIG A   1      -9.403  -0.799 123.057  0.00  0.00    +0.045 C 
ATOM      4  C   LIG A   1      -9.067   0.226 123.846  0.00  0.00    +0.014 C 
ATOM      5  C   LIG A   1      -7.986   0.223 124.851  0.00  0.00    +0.127 C 
ATOM      6  O   LIG A   1      -8.002  -0.859 125.818  0.00  0.00    -0.355 OA
ATOM      7  C   LIG A   1      -7.019  -0.997 124.794  0.00  0.00    +0.116 C 
ATOM      8  C   LIG A   1      -5.616  -0.904 125.356  0.00  0.00    +0.039 C 
ATOM      9  C   LIG A   1      -5.379   0.319 126.234  0.00  0.00    +0.007 C 
ATOM     10  C   LIG A   1      -5.935   1.565 125.541  0.00  0.00    +0.001 C 
ATOM     11  C   LIG A   1      -7.503   1.580 125.503  0.00  0.00    +0.032 C 
ATOM     12  C   LIG A   1      -8.141   1.686 126.918  0.00  0.00    +0.017 C 
ATOM     13  C   LIG A   1      -7.902   2.861 124.679  0.00  0.00    +0.125 C 
ATOM     14  C   LIG A   1      -7.260   4.163 125.199  0.00  0.00    +0.042 C 
ATOM     15  C   LIG A   1      -5.731   4.126 125.386  0.00  0.00    -0.012 C 
ATOM     16  C   LIG A   1      -5.326   5.338 126.258  0.00  0.00    +0.015 C 
ATOM     17  C   LIG A   1      -5.328   2.841 126.146  0.00  0.00    +0.015 C 
ATOM     18  C   LIG A   1      -7.306  -2.159 123.821  0.00  0.00    +0.059 C 
ATOM     19  C   LIG A   1      -7.267  -3.504 124.575  0.00  0.00    +0.022 C 
ATOM     20  C   LIG A   1      -6.258  -2.185 122.688  0.00  0.00    +0.022 C 
ENDROOT
BRANCH  13  21
ATOM     21  O   LIG A   1      -9.318   3.087 124.722  0.00  0.00    -0.391 OA
ATOM     22  H   LIG A   1      -9.731   2.319 125.155  0.00  0.00    +0.210 HD
ENDBRANCH  13  21
BRANCH  15  23
ATOM     23  C   LIG A   1      -5.058   4.158 124.011  0.00  0.00    -0.028 C 
ATOM     24  C   LIG A   1      -5.649   4.212 122.809  0.00  0.00    +0.004 C 
ENDBRANCH  15  23
TORSDOF 2
ENDMDL
MODEL 7
REMARK VINA RESULT:      -7.2      3.711      5.496
REMARK  Name = NuBBE_2238
REMARK  6 active torsions:
REMARK  status: ('A' for Active; 'I' for Inactive)
REMARK    1  A    between atoms: C_11  and  C_12
REMARK    2  A    between atoms: C_13  and  O_15
REMARK    3  A    between atoms: C_17  and  C_18
REMARK    4  A    between atoms: C_17  and  C_19
REMARK    5  A    between atoms: C_22  and  C_23
REMARK    6  A    between atoms: C_22  and  C_24
REMARK                            x       y       z     vdW  Elec       q    Type
REMARK                         _______ _______ _______ _____ _____    ______ ____
ROOT
ATOM      1  O   LIG A   1      -7.698  -2.124 122.540  0.00  0.00    -0.292 OA
ATOM      2  C   LIG A   1      -7.282  -1.308 123.366  0.00  0.00    +0.164 C 
ATOM      3  C   LIG A   1      -7.350   0.119 122.996  0.00  0.00    +0.045 C 
ATOM      4  C   LIG A   1      -7.091   1.079 123.889  0.00  0.00    +0.014 C 
ATOM      5  C   LIG A   1      -6.751   0.867 125.310  0.00  0.00    +0.127 C 
ATOM      6  O   LIG A   1      -7.657   0.033 126.076  0.00  0.00    -0.355 OA
ATOM      7  C   LIG A   1      -6.434  -0.604 125.712  0.00  0.00    +0.116 C 
ATOM      8  C   LIG A   1      -5.586  -0.911 126.928  0.00  0.00    +0.039 C 
ATOM      9  C   LIG A   1      -5.372   0.281 127.854  0.00  0.00    +0.007 C 
ATOM     10  C   LIG A   1      -4.985   1.510 127.028  0.00  0.00    +0.001 C 
ATOM     11  C   LIG A   1      -6.182   2.061 126.178  0.00  0.00    +0.032 C 
ATOM     12  C   LIG A   1      -7.344   2.612 127.053  0.00  0.00    +0.017 C 
ATOM     13  C   LIG A   1      -5.595   3.247 125.324  0.00  0.00    +0.125 C 
ATOM     14  C   LIG A   1      -4.858   4.312 126.160  0.00  0.00    +0.042 C 
ATOM     15  C   LIG A   1      -3.774   3.779 127.117  0.00  0.00    -0.012 C 
ATOM     16  C   LIG A   1      -3.432   4.901 128.124  0.00  0.00    +0.015 C 
ATOM     17  C   LIG A   1      -4.328   2.578 127.917  0.00  0.00    +0.015 C 
ATOM     18  C   LIG A   1      -6.615  -1.738 124.683  0.00  0.00    +0.059 C 
ATOM     19  C   LIG A   1      -7.473  -2.869 125.286  0.00  0.00    +0.022 C 
ATOM     20  C   LIG A   1      -5.244  -2.311 124.264  0.00  0.00    +0.022 C 
ENDROOT
BRANCH  13  21
ATOM     21  O   LIG A   1      -6.633   3.953 124.631  0.00  0.00    -0.391 OA
ATOM     22  H   LIG A   1      -7.380   4.066 125.245  0.00  0.00    +0.210 HD
ENDBRANCH  13  21
BRANCH  15  23
ATOM     23  C   LIG A   1      -2.553   3.349 126.299  0.00  0.00    -0.028 C 
ATOM     24  C   LIG A   1      -1.372   2.910 126.756  0.00  0.00    +0.004 C 
ENDBRANCH  15  23
TORSDOF 2
ENDMDL
MODEL 8
REMARK VINA RESULT:      -7.0      3.122      6.658
REMARK  Name = NuBBE_2238
REMARK  6 active torsions:
REMARK  status: ('A' for Active; 'I' for Inactive)
REMARK    1  A    between atoms: C_11  and  C_12
REMARK    2  A    between atoms: C_13  and  O_15
REMARK    3  A    between atoms: C_17  and  C_18
REMARK    4  A    between atoms: C_17  and  C_19
REMARK    5  A    between atoms: C_22  and  C_23
REMARK    6  A    between atoms: C_22  and  C_24
REMARK                            x       y       z     vdW  Elec       q    Type
REMARK                         _______ _______ _______ _____ _____    ______ ____
ROOT
ATOM      1  O   LIG A   1      -7.588  -1.871 130.741  0.00  0.00    -0.292 OA
ATOM      2  C   LIG A   1      -7.498  -1.279 129.663  0.00  0.00    +0.164 C 
ATOM      3  C   LIG A   1      -8.002   0.107 129.612  0.00  0.00    +0.045 C 
ATOM      4  C   LIG A   1      -7.787   0.884 128.546  0.00  0.00    +0.014 C 
ATOM      5  C   LIG A   1      -7.025   0.502 127.340  0.00  0.00    +0.127 C 
ATOM      6  O   LIG A   1      -5.690  -0.023 127.555  0.00  0.00    -0.355 OA
ATOM      7  C   LIG A   1      -6.666  -1.008 127.222  0.00  0.00    +0.116 C 
ATOM      8  C   LIG A   1      -6.381  -1.637 125.874  0.00  0.00    +0.039 C 
ATOM      9  C   LIG A   1      -6.161  -0.628 124.753  0.00  0.00    +0.007 C 
ATOM     10  C   LIG A   1      -7.253   0.444 124.804  0.00  0.00    +0.001 C 
ATOM     11  C   LIG A   1      -7.096   1.399 126.039  0.00  0.00    +0.032 C 
ATOM     12  C   LIG A   1      -5.801   2.259 125.978  0.00  0.00    +0.017 C 
ATOM     13  C   LIG A   1      -8.338   2.365 125.997  0.00  0.00    +0.125 C 
ATOM     14  C   LIG A   1      -8.523   3.087 124.646  0.00  0.00    +0.042 C 
ATOM     15  C   LIG A   1      -8.531   2.181 123.400  0.00  0.00    -0.012 C 
ATOM     16  C   LIG A   1      -8.332   3.077 122.155  0.00  0.00    +0.015 C 
ATOM     17  C   LIG A   1      -7.345   1.191 123.464  0.00  0.00    +0.015 C 
ATOM     18  C   LIG A   1      -6.991  -1.968 128.385  0.00  0.00    +0.059 C 
ATOM     19  C   LIG A   1      -5.738  -2.782 128.767  0.00  0.00    +0.022 C 
ATOM     20  C   LIG A   1      -8.122  -2.939 127.983  0.00  0.00    +0.022 C 
ENDROOT
BRANCH  13  21
ATOM     21  O   LIG A   1      -8.221   3.407 126.976  0.00  0.00    -0.391 OA
ATOM     22  H   LIG A   1      -7.375   3.285 127.442  0.00  0.00    +0.210 HD
ENDBRANCH  13  21
BRANCH  15  23
ATOM     23  C   LIG A   1      -9.855   1.413 123.349  0.00  0.00    -0.028 C 
ATOM     24  C   LIG A   1     -10.211   0.444 122.494  0.00  0.00    +0.004 C 
ENDBRANCH  15  23
TORSDOF 2
ENDMDL
MODEL 9
REMARK VINA RESULT:      -7.0      3.324      6.315
REMARK  Name = NuBBE_2238
REMARK  6 active torsions:
REMARK  status: ('A' for Active; 'I' for Inactive)
REMARK    1  A    between atoms: C_11  and  C_12
REMARK    2  A    between atoms: C_13  and  O_15
REMARK    3  A    between atoms: C_17  and  C_18
REMARK    4  A    between atoms: C_17  and  C_19
REMARK    5  A    between atoms: C_22  and  C_23
REMARK    6  A    between atoms: C_22  and  C_24
REMARK                            x       y       z     vdW  Elec       q    Type
REMARK                         _______ _______ _______ _____ _____    ______ ____
ROOT
ATOM      1  O   LIG A   1      -3.095   3.985 129.194  0.00  0.00    -0.292 OA
ATOM      2  C   LIG A   1      -3.802   3.212 128.543  0.00  0.00    +0.164 C 
ATOM      3  C   LIG A   1      -4.111   1.905 129.154  0.00  0.00    +0.045 C 
ATOM      4  C   LIG A   1      -5.008   1.079 128.607  0.00  0.00    +0.014 C 
ATOM      5  C   LIG A   1      -5.805   1.352 127.394  0.00  0.00    +0.127 C 
ATOM      6  O   LIG A   1      -6.547   2.598 127.372  0.00  0.00    -0.355 OA
ATOM      7  C   LIG A   1      -5.368   2.599 126.570  0.00  0.00    +0.116 C 
ATOM      8  C   LIG A   1      -5.700   2.712 125.096  0.00  0.00    +0.039 C 
ATOM      9  C   LIG A   1      -6.735   1.703 124.614  0.00  0.00    +0.007 C 
ATOM     10  C   LIG A   1      -6.382   0.311 125.143  0.00  0.00    +0.001 C 
ATOM     11  C   LIG A   1      -6.606   0.184 126.690  0.00  0.00    +0.032 C 
ATOM     12  C   LIG A   1      -8.101   0.314 127.098  0.00  0.00    +0.017 C 
ATOM     13  C   LIG A   1      -6.107  -1.258 127.081  0.00  0.00    +0.125 C 
ATOM     14  C   LIG A   1      -6.743  -2.387 126.245  0.00  0.00    +0.042 C 
ATOM     15  C   LIG A   1      -6.667  -2.211 124.716  0.00  0.00    -0.012 C 
ATOM     16  C   LIG A   1      -7.666  -3.199 124.070  0.00  0.00    +0.015 C 
ATOM     17  C   LIG A   1      -7.102  -0.778 124.332  0.00  0.00    +0.015 C 
ATOM     18  C   LIG A   1      -4.260   3.526 127.109  0.00  0.00    +0.059 C 
ATOM     19  C   LIG A   1      -4.738   4.992 127.089  0.00  0.00    +0.022 C 
ATOM     20  C   LIG A   1      -2.984   3.400 126.249  0.00  0.00    +0.022 C 
ENDROOT
BRANCH  13  21
ATOM     21  O   LIG A   1      -6.422  -1.566 128.446  0.00  0.00    -0.391 OA
ATOM     22  H   LIG A   1      -5.612  -1.897 128.872  0.00  0.00    +0.210 HD
ENDBRANCH  13  21
BRANCH  15  23
ATOM     23  C   LIG A   1      -5.229  -2.466 124.255  0.00  0.00    -0.028 C 
ATOM     24  C   LIG A   1      -4.747  -3.548 123.626  0.00  0.00    +0.004 C 
ENDBRANCH  15  23
TORSDOF 2
ENDMDL
