MODEL 1
REMARK VINA RESULT:      -7.2      0.000      0.000
REMARK  Name = NuBBE_2454
REMARK  23 active torsions:
REMARK  status: ('A' for Active; 'I' for Inactive)
REMARK    1  A    between atoms: C_1  and  O_2
REMARK    2  A    between atoms: O_2  and  C_3
REMARK    3  A    between atoms: C_5  and  C_6
REMARK    4  A    between atoms: C_6  and  C_7
REMARK    5  A    between atoms: C_7  and  C_9
REMARK    6  A    between atoms: C_7  and  C_14
REMARK    7  A    between atoms: C_9  and  O_10
REMARK    8  A    between atoms: O_10  and  C_11
REMARK    9  A    between atoms: C_11  and  C_12
REMARK   10  A    between atoms: C_14  and  C_16
REMARK   11  A    between atoms: C_14  and  C_29
REMARK   12  A    between atoms: C_16  and  C_17
REMARK   13  A    between atoms: C_19  and  O_20
REMARK   14  A    between atoms: O_20  and  C_21
REMARK   15  A    between atoms: C_22  and  O_25
REMARK   16  A    between atoms: O_25  and  C_26
REMARK   17  A    between atoms: C_26  and  C_27
REMARK   18  A    between atoms: C_29  and  O_30
REMARK   19  A    between atoms: O_30  and  C_31
REMARK   20  A    between atoms: C_31  and  C_32
REMARK   21  A    between atoms: C_36  and  O_37
REMARK   22  A    between atoms: O_37  and  C_38
REMARK   23  A    between atoms: C_38  and  C_39
REMARK                            x       y       z     vdW  Elec       q    Type
REMARK                         _______ _______ _______ _____ _____    ______ ____
ROOT
ATOM      1  C   LIG A   1      -6.819  -2.771 130.683  0.00  0.00    +0.038 C 
ENDROOT
BRANCH   1   2
ATOM      2  C   LIG A   1      -7.957  -3.322 129.648  0.00  0.00    +0.042 C 
BRANCH   2   5
ATOM      3  C   LIG A   1      -7.684  -1.222 126.405  0.00  0.00    +0.163 A 
ATOM      4  C   LIG A   1      -7.386  -1.852 127.642  0.00  0.00    +0.053 A 
ATOM      5  C   LIG A   1      -8.027  -2.982 128.108  0.00  0.00    -0.043 A 
ATOM      6  C   LIG A   1      -8.933  -3.583 127.184  0.00  0.00    +0.007 A 
ATOM      7  C   LIG A   1      -9.401  -2.859 126.039  0.00  0.00    +0.050 A 
ATOM      8  C   LIG A   1      -8.789  -1.666 125.647  0.00  0.00    +0.173 A 
BRANCH   3  10
ATOM      9  C   LIG A   1      -5.531  -0.380 125.814  0.00  0.00    +0.277 C 
ATOM     10  O   LIG A   1      -6.941  -0.157 125.967  0.00  0.00    -0.491 OA
ENDBRANCH   3  10
BRANCH   8  11
ATOM     11  O   LIG A   1      -9.389  -0.821 124.650  0.00  0.00    -0.422 OA
BRANCH  11  12
ATOM     12  C   LIG A   1      -9.275  -1.066 123.267  0.00  0.00    +0.309 C 
ATOM     13  C   LIG A   1      -8.025  -1.832 122.928  0.00  0.00    +0.136 C 
ATOM     14  O   LIG A   1     -10.060  -0.706 122.396  0.00  0.00    -0.251 OA
ENDBRANCH  11  12
ENDBRANCH   8  11
ENDBRANCH   2   5
ENDBRANCH   1   2
BRANCH   1  15
ATOM     15  C   LIG A   1      -6.158  -3.978 131.433  0.00  0.00    +0.236 C 
BRANCH  15  16
ATOM     16  O   LIG A   1      -5.004  -4.538 130.768  0.00  0.00    -0.465 OA
BRANCH  16  17
ATOM     17  C   LIG A   1      -3.958  -3.694 130.537  0.00  0.00    +0.304 C 
ATOM     18  C   LIG A   1      -3.708  -3.530 129.064  0.00  0.00    +0.136 C 
ATOM     19  O   LIG A   1      -3.274  -3.166 131.400  0.00  0.00    -0.251 OA
ENDBRANCH  16  17
ENDBRANCH  15  16
ENDBRANCH   1  15
BRANCH   1  20
ATOM     20  C   LIG A   1      -7.218  -1.621 131.732  0.00  0.00    +0.038 C 
BRANCH  20  21
ATOM     21  C   LIG A   1      -6.940  -0.141 131.272  0.00  0.00    +0.042 C 
BRANCH  21  22
ATOM     22  C   LIG A   1      -8.099   0.786 130.963  0.00  0.00    -0.043 A 
ATOM     23  C   LIG A   1      -8.127   1.430 129.728  0.00  0.00    +0.053 A 
ATOM     24  C   LIG A   1      -8.964   2.522 129.454  0.00  0.00    +0.163 A 
ATOM     25  C   LIG A   1      -9.916   2.903 130.409  0.00  0.00    +0.173 A 
ATOM     26  C   LIG A   1     -10.006   2.180 131.600  0.00  0.00    +0.050 A 
ATOM     27  C   LIG A   1      -9.075   1.158 131.891  0.00  0.00    +0.007 A 
BRANCH  24  28
ATOM     28  O   LIG A   1      -8.823   3.244 128.292  0.00  0.00    -0.491 OA
ATOM     29  C   LIG A   1      -7.593   3.980 128.224  0.00  0.00    +0.277 C 
ENDBRANCH  24  28
BRANCH  25  30
ATOM     30  O   LIG A   1     -10.674   4.090 130.162  0.00  0.00    -0.422 OA
BRANCH  30  31
ATOM     31  C   LIG A   1     -10.381   5.372 130.658  0.00  0.00    +0.309 C 
ATOM     32  C   LIG A   1     -11.649   6.064 131.088  0.00  0.00    +0.136 C 
ATOM     33  O   LIG A   1      -9.285   5.921 130.678  0.00  0.00    -0.251 OA
ENDBRANCH  30  31
ENDBRANCH  25  30
ENDBRANCH  21  22
ENDBRANCH  20  21
BRANCH  20  34
ATOM     34  C   LIG A   1      -6.591  -1.715 133.169  0.00  0.00    +0.236 C 
BRANCH  34  35
ATOM     35  O   LIG A   1      -7.538  -1.836 134.202  0.00  0.00    -0.465 OA
BRANCH  35  36
ATOM     36  C   LIG A   1      -7.361  -2.945 134.982  0.00  0.00    +0.304 C 
ATOM     37  C   LIG A   1      -8.352  -3.914 134.507  0.00  0.00    +0.136 C 
ATOM     38  O   LIG A   1      -6.816  -3.070 136.002  0.00  0.00    -0.251 OA
ENDBRANCH  35  36
ENDBRANCH  34  35
ENDBRANCH  20  34
ENDBRANCH   1  20
TORSDOF 17
ENDMDL
MODEL 2
REMARK VINA RESULT:      -7.0      1.799      6.964
REMARK  Name = NuBBE_2454
REMARK  23 active torsions:
REMARK  status: ('A' for Active; 'I' for Inactive)
REMARK    1  A    between atoms: C_1  and  O_2
REMARK    2  A    between atoms: O_2  and  C_3
REMARK    3  A    between atoms: C_5  and  C_6
REMARK    4  A    between atoms: C_6  and  C_7
REMARK    5  A    between atoms: C_7  and  C_9
REMARK    6  A    between atoms: C_7  and  C_14
REMARK    7  A    between atoms: C_9  and  O_10
REMARK    8  A    between atoms: O_10  and  C_11
REMARK    9  A    between atoms: C_11  and  C_12
REMARK   10  A    between atoms: C_14  and  C_16
REMARK   11  A    between atoms: C_14  and  C_29
REMARK   12  A    between atoms: C_16  and  C_17
REMARK   13  A    between atoms: C_19  and  O_20
REMARK   14  A    between atoms: O_20  and  C_21
REMARK   15  A    between atoms: C_22  and  O_25
REMARK   16  A    between atoms: O_25  and  C_26
REMARK   17  A    between atoms: C_26  and  C_27
REMARK   18  A    between atoms: C_29  and  O_30
REMARK   19  A    between atoms: O_30  and  C_31
REMARK   20  A    between atoms: C_31  and  C_32
REMARK   21  A    between atoms: C_36  and  O_37
REMARK   22  A    between atoms: O_37  and  C_38
REMARK   23  A    between atoms: C_38  and  C_39
REMARK                            x       y       z     vdW  Elec       q    Type
REMARK                         _______ _______ _______ _____ _____    ______ ____
ROOT
ATOM      1  C   LIG A   1      -7.055  -1.117 131.707  0.00  0.00    +0.038 C 
ENDROOT
BRANCH   1   2
ATOM      2  C   LIG A   1      -8.538  -0.550 131.319  0.00  0.00    +0.042 C 
BRANCH   2   5
ATOM      3  C   LIG A   1      -8.894   3.144 130.210  0.00  0.00    +0.163 A 
ATOM      4  C   LIG A   1      -8.918   1.724 130.226  0.00  0.00    +0.053 A 
ATOM      5  C   LIG A   1      -8.976   0.966 131.377  0.00  0.00    -0.043 A 
ATOM      6  C   LIG A   1      -9.162   1.711 132.580  0.00  0.00    +0.007 A 
ATOM      7  C   LIG A   1      -8.929   3.125 132.610  0.00  0.00    +0.050 A 
ATOM      8  C   LIG A   1      -8.780   3.851 131.425  0.00  0.00    +0.173 A 
BRANCH   3  10
ATOM      9  C   LIG A   1      -7.709   3.868 128.270  0.00  0.00    +0.277 C 
ATOM     10  O   LIG A   1      -8.930   3.829 129.024  0.00  0.00    -0.491 OA
ENDBRANCH   3  10
BRANCH   8  11
ATOM     11  O   LIG A   1      -8.320   5.214 131.448  0.00  0.00    -0.422 OA
BRANCH  11  12
ATOM     12  C   LIG A   1      -9.189   6.315 131.574  0.00  0.00    +0.309 C 
ATOM     13  C   LIG A   1      -9.141   7.216 130.370  0.00  0.00    +0.136 C 
ATOM     14  O   LIG A   1      -9.909   6.570 132.534  0.00  0.00    -0.251 OA
ENDBRANCH  11  12
ENDBRANCH   8  11
ENDBRANCH   2   5
ENDBRANCH   1   2
BRANCH   1  15
ATOM     15  C   LIG A   1      -6.018   0.058 131.685  0.00  0.00    +0.236 C 
BRANCH  15  16
ATOM     16  O   LIG A   1      -5.221   0.132 130.483  0.00  0.00    -0.465 OA
BRANCH  16  17
ATOM     17  C   LIG A   1      -5.166   1.342 129.856  0.00  0.00    +0.304 C 
ATOM     18  C   LIG A   1      -5.288   2.470 130.842  0.00  0.00    +0.136 C 
ATOM     19  O   LIG A   1      -5.075   1.507 128.649  0.00  0.00    -0.251 OA
ENDBRANCH  16  17
ENDBRANCH  15  16
ENDBRANCH   1  15
BRANCH   1  20
ATOM     20  C   LIG A   1      -6.475  -2.380 130.903  0.00  0.00    +0.038 C 
BRANCH  20  21
ATOM     21  C   LIG A   1      -7.541  -3.293 130.188  0.00  0.00    +0.042 C 
BRANCH  21  22
ATOM     22  C   LIG A   1      -7.885  -3.054 128.731  0.00  0.00    -0.043 A 
ATOM     23  C   LIG A   1      -7.385  -1.915 128.105  0.00  0.00    +0.053 A 
ATOM     24  C   LIG A   1      -7.875  -1.438 126.880  0.00  0.00    +0.163 A 
ATOM     25  C   LIG A   1      -8.813  -2.207 126.179  0.00  0.00    +0.173 A 
ATOM     26  C   LIG A   1      -9.224  -3.429 126.718  0.00  0.00    +0.050 A 
ATOM     27  C   LIG A   1      -8.796  -3.825 128.004  0.00  0.00    +0.007 A 
BRANCH  24  28
ATOM     28  O   LIG A   1      -7.486  -0.211 126.396  0.00  0.00    -0.491 OA
ATOM     29  C   LIG A   1      -6.204  -0.231 125.751  0.00  0.00    +0.277 C 
ENDBRANCH  24  28
BRANCH  25  30
ATOM     30  O   LIG A   1      -9.388  -1.647 124.997  0.00  0.00    -0.422 OA
BRANCH  30  31
ATOM     31  C   LIG A   1      -8.932  -1.852 123.682  0.00  0.00    +0.309 C 
ATOM     32  C   LIG A   1      -7.859  -2.911 123.664  0.00  0.00    +0.136 C 
ATOM     33  O   LIG A   1      -9.265  -1.228 122.682  0.00  0.00    -0.251 OA
ENDBRANCH  30  31
ENDBRANCH  25  30
ENDBRANCH  21  22
ENDBRANCH  20  21
BRANCH  20  34
ATOM     34  C   LIG A   1      -5.568  -3.383 131.703  0.00  0.00    +0.236 C 
BRANCH  34  35
ATOM     35  O   LIG A   1      -4.585  -4.017 130.922  0.00  0.00    -0.465 OA
BRANCH  35  36
ATOM     36  C   LIG A   1      -3.651  -3.159 130.412  0.00  0.00    +0.304 C 
ATOM     37  C   LIG A   1      -3.384  -3.642 129.055  0.00  0.00    +0.136 C 
ATOM     38  O   LIG A   1      -2.944  -2.408 130.950  0.00  0.00    -0.251 OA
ENDBRANCH  35  36
ENDBRANCH  34  35
ENDBRANCH  20  34
ENDBRANCH   1  20
TORSDOF 17
ENDMDL
MODEL 3
REMARK VINA RESULT:      -7.0      3.976      8.075
REMARK  Name = NuBBE_2454
REMARK  23 active torsions:
REMARK  status: ('A' for Active; 'I' for Inactive)
REMARK    1  A    between atoms: C_1  and  O_2
REMARK    2  A    between atoms: O_2  and  C_3
REMARK    3  A    between atoms: C_5  and  C_6
REMARK    4  A    between atoms: C_6  and  C_7
REMARK    5  A    between atoms: C_7  and  C_9
REMARK    6  A    between atoms: C_7  and  C_14
REMARK    7  A    between atoms: C_9  and  O_10
REMARK    8  A    between atoms: O_10  and  C_11
REMARK    9  A    between atoms: C_11  and  C_12
REMARK   10  A    between atoms: C_14  and  C_16
REMARK   11  A    between atoms: C_14  and  C_29
REMARK   12  A    between atoms: C_16  and  C_17
REMARK   13  A    between atoms: C_19  and  O_20
REMARK   14  A    between atoms: O_20  and  C_21
REMARK   15  A    between atoms: C_22  and  O_25
REMARK   16  A    between atoms: O_25  and  C_26
REMARK   17  A    between atoms: C_26  and  C_27
REMARK   18  A    between atoms: C_29  and  O_30
REMARK   19  A    between atoms: O_30  and  C_31
REMARK   20  A    between atoms: C_31  and  C_32
REMARK   21  A    between atoms: C_36  and  O_37
REMARK   22  A    between atoms: O_37  and  C_38
REMARK   23  A    between atoms: C_38  and  C_39
REMARK                            x       y       z     vdW  Elec       q    Type
REMARK                         _______ _______ _______ _____ _____    ______ ____
ROOT
ATOM      1  C   LIG A   1      -8.207   0.514 126.255  0.00  0.00    +0.038 C 
ENDROOT
BRANCH   1   2
ATOM      2  C   LIG A   1      -8.403   0.708 127.866  0.00  0.00    +0.042 C 
BRANCH   2   5
ATOM      3  C   LIG A   1      -9.075   3.458 130.509  0.00  0.00    +0.163 A 
ATOM      4  C   LIG A   1      -8.811   2.208 129.889  0.00  0.00    +0.053 A 
ATOM      5  C   LIG A   1      -8.232   2.070 128.644  0.00  0.00    -0.043 A 
ATOM      6  C   LIG A   1      -7.766   3.287 128.060  0.00  0.00    +0.007 A 
ATOM      7  C   LIG A   1      -8.208   4.556 128.559  0.00  0.00    +0.050 A 
ATOM      8  C   LIG A   1      -8.877   4.651 129.782  0.00  0.00    +0.173 A 
BRANCH   3  10
ATOM      9  C   LIG A   1      -9.605   2.275 132.513  0.00  0.00    +0.277 C 
ATOM     10  O   LIG A   1      -9.569   3.513 131.787  0.00  0.00    -0.491 OA
ENDBRANCH   3  10
BRANCH   8  11
ATOM     11  O   LIG A   1      -9.521   5.874 130.178  0.00  0.00    -0.422 OA
BRANCH  11  12
ATOM     12  C   LIG A   1     -10.732   6.321 129.614  0.00  0.00    +0.309 C 
ATOM     13  C   LIG A   1     -10.719   7.801 129.342  0.00  0.00    +0.136 C 
ATOM     14  O   LIG A   1     -11.719   5.636 129.368  0.00  0.00    -0.251 OA
ENDBRANCH  11  12
ENDBRANCH   8  11
ENDBRANCH   2   5
ENDBRANCH   1   2
BRANCH   1  15
ATOM     15  C   LIG A   1      -9.603   0.301 125.575  0.00  0.00    +0.236 C 
BRANCH  15  16
ATOM     16  O   LIG A   1     -10.137   1.472 124.921  0.00  0.00    -0.465 OA
BRANCH  16  17
ATOM     17  C   LIG A   1      -9.675   1.739 123.665  0.00  0.00    +0.304 C 
ATOM     18  C   LIG A   1     -10.173   0.721 122.677  0.00  0.00    +0.136 C 
ATOM     19  O   LIG A   1      -8.920   2.652 123.370  0.00  0.00    -0.251 OA
ENDBRANCH  16  17
ENDBRANCH  15  16
ENDBRANCH   1  15
BRANCH   1  20
ATOM     20  C   LIG A   1      -7.164  -0.589 125.730  0.00  0.00    +0.038 C 
BRANCH  20  21
ATOM     21  C   LIG A   1      -5.645  -0.175 125.769  0.00  0.00    +0.042 C 
BRANCH  21  22
ATOM     22  C   LIG A   1      -5.247   1.197 126.277  0.00  0.00    -0.043 A 
ATOM     23  C   LIG A   1      -5.433   2.297 125.442  0.00  0.00    +0.053 A 
ATOM     24  C   LIG A   1      -4.833   3.544 125.676  0.00  0.00    +0.163 A 
ATOM     25  C   LIG A   1      -4.126   3.743 126.868  0.00  0.00    +0.173 A 
ATOM     26  C   LIG A   1      -4.047   2.697 127.791  0.00  0.00    +0.050 A 
ATOM     27  C   LIG A   1      -4.567   1.422 127.475  0.00  0.00    +0.007 A 
BRANCH  24  28
ATOM     28  O   LIG A   1      -4.889   4.540 124.729  0.00  0.00    -0.491 OA
ATOM     29  C   LIG A   1      -5.690   4.200 123.588  0.00  0.00    +0.277 C 
ENDBRANCH  24  28
BRANCH  25  30
ATOM     30  O   LIG A   1      -3.422   4.977 127.031  0.00  0.00    -0.422 OA
BRANCH  30  31
ATOM     31  C   LIG A   1      -3.615   5.904 128.070  0.00  0.00    +0.309 C 
ATOM     32  C   LIG A   1      -2.295   6.507 128.479  0.00  0.00    +0.136 C 
ATOM     33  O   LIG A   1      -4.666   6.155 128.647  0.00  0.00    -0.251 OA
ENDBRANCH  30  31
ENDBRANCH  25  30
ENDBRANCH  21  22
ENDBRANCH  20  21
BRANCH  20  34
ATOM     34  C   LIG A   1      -7.385  -1.150 124.280  0.00  0.00    +0.236 C 
BRANCH  34  35
ATOM     35  O   LIG A   1      -6.982  -2.487 124.114  0.00  0.00    -0.465 OA
BRANCH  35  36
ATOM     36  C   LIG A   1      -8.011  -3.384 124.188  0.00  0.00    +0.304 C 
ATOM     37  C   LIG A   1      -9.063  -2.839 123.326  0.00  0.00    +0.136 C 
ATOM     38  O   LIG A   1      -8.224  -4.224 124.964  0.00  0.00    -0.251 OA
ENDBRANCH  35  36
ENDBRANCH  34  35
ENDBRANCH  20  34
ENDBRANCH   1  20
TORSDOF 17
ENDMDL
MODEL 4
REMARK VINA RESULT:      -7.0      3.821      7.918
REMARK  Name = NuBBE_2454
REMARK  23 active torsions:
REMARK  status: ('A' for Active; 'I' for Inactive)
REMARK    1  A    between atoms: C_1  and  O_2
REMARK    2  A    between atoms: O_2  and  C_3
REMARK    3  A    between atoms: C_5  and  C_6
REMARK    4  A    between atoms: C_6  and  C_7
REMARK    5  A    between atoms: C_7  and  C_9
REMARK    6  A    between atoms: C_7  and  C_14
REMARK    7  A    between atoms: C_9  and  O_10
REMARK    8  A    between atoms: O_10  and  C_11
REMARK    9  A    between atoms: C_11  and  C_12
REMARK   10  A    between atoms: C_14  and  C_16
REMARK   11  A    between atoms: C_14  and  C_29
REMARK   12  A    between atoms: C_16  and  C_17
REMARK   13  A    between atoms: C_19  and  O_20
REMARK   14  A    between atoms: O_20  and  C_21
REMARK   15  A    between atoms: C_22  and  O_25
REMARK   16  A    between atoms: O_25  and  C_26
REMARK   17  A    between atoms: C_26  and  C_27
REMARK   18  A    between atoms: C_29  and  O_30
REMARK   19  A    between atoms: O_30  and  C_31
REMARK   20  A    between atoms: C_31  and  C_32
REMARK   21  A    between atoms: C_36  and  O_37
REMARK   22  A    between atoms: O_37  and  C_38
REMARK   23  A    between atoms: C_38  and  C_39
REMARK                            x       y       z     vdW  Elec       q    Type
REMARK                         _______ _______ _______ _____ _____    ______ ____
ROOT
ATOM      1  C   LIG A   1      -7.137   2.824 128.508  0.00  0.00    +0.038 C 
ENDROOT
BRANCH   1   2
ATOM      2  C   LIG A   1      -8.464   2.258 127.740  0.00  0.00    +0.042 C 
BRANCH   2   5
ATOM      3  C   LIG A   1      -7.457  -1.333 126.696  0.00  0.00    +0.163 A 
ATOM      4  C   LIG A   1      -7.708  -0.162 127.459  0.00  0.00    +0.053 A 
ATOM      5  C   LIG A   1      -8.596   0.826 127.089  0.00  0.00    -0.043 A 
ATOM      6  C   LIG A   1      -9.379   0.529 125.933  0.00  0.00    +0.007 A 
ATOM      7  C   LIG A   1      -8.998  -0.527 125.042  0.00  0.00    +0.050 A 
ATOM      8  C   LIG A   1      -8.025  -1.460 125.411  0.00  0.00    +0.173 A 
BRANCH   3  10
ATOM      9  C   LIG A   1      -5.373  -1.884 127.720  0.00  0.00    +0.277 C 
ATOM     10  O   LIG A   1      -6.630  -2.315 127.174  0.00  0.00    -0.491 OA
ENDBRANCH   3  10
BRANCH   8  11
ATOM     11  O   LIG A   1      -7.476  -2.374 124.446  0.00  0.00    -0.422 OA
BRANCH  11  12
ATOM     12  C   LIG A   1      -6.418  -2.032 123.581  0.00  0.00    +0.309 C 
ATOM     13  C   LIG A   1      -5.128  -2.703 123.970  0.00  0.00    +0.136 C 
ATOM     14  O   LIG A   1      -6.477  -1.272 122.620  0.00  0.00    -0.251 OA
ENDBRANCH  11  12
ENDBRANCH   8  11
ENDBRANCH   2   5
ENDBRANCH   1   2
BRANCH   1  15
ATOM     15  C   LIG A   1      -7.548   3.442 129.888  0.00  0.00    +0.236 C 
BRANCH  15  16
ATOM     16  O   LIG A   1      -8.945   3.793 129.995  0.00  0.00    -0.465 OA
BRANCH  16  17
ATOM     17  C   LIG A   1      -9.255   5.119 129.908  0.00  0.00    +0.304 C 
ATOM     18  C   LIG A   1      -8.302   5.953 130.717  0.00  0.00    +0.136 C 
ATOM     19  O   LIG A   1     -10.203   5.582 129.293  0.00  0.00    -0.251 OA
ENDBRANCH  16  17
ENDBRANCH  15  16
ENDBRANCH   1  15
BRANCH   1  20
ATOM     20  C   LIG A   1      -6.158   3.828 127.724  0.00  0.00    +0.038 C 
BRANCH  20  21
ATOM     21  C   LIG A   1      -5.291   3.189 126.574  0.00  0.00    +0.042 C 
BRANCH  21  22
ATOM     22  C   LIG A   1      -5.645   3.452 125.124  0.00  0.00    -0.043 A 
ATOM     23  C   LIG A   1      -6.677   2.716 124.544  0.00  0.00    +0.053 A 
ATOM     24  C   LIG A   1      -6.887   2.654 123.159  0.00  0.00    +0.163 A 
ATOM     25  C   LIG A   1      -6.118   3.470 122.319  0.00  0.00    +0.173 A 
ATOM     26  C   LIG A   1      -5.173   4.326 122.888  0.00  0.00    +0.050 A 
ATOM     27  C   LIG A   1      -4.910   4.284 124.276  0.00  0.00    +0.007 A 
BRANCH  24  28
ATOM     28  O   LIG A   1      -7.792   1.768 122.623  0.00  0.00    -0.491 OA
ATOM     29  C   LIG A   1      -9.140   2.260 122.622  0.00  0.00    +0.277 C 
ENDBRANCH  24  28
BRANCH  25  30
ATOM     30  O   LIG A   1      -6.262   3.301 120.907  0.00  0.00    -0.422 OA
BRANCH  30  31
ATOM     31  C   LIG A   1      -6.500   4.327 119.975  0.00  0.00    +0.309 C 
ATOM     32  C   LIG A   1      -7.928   4.271 119.495  0.00  0.00    +0.136 C 
ATOM     33  O   LIG A   1      -5.679   5.118 119.526  0.00  0.00    -0.251 OA
ENDBRANCH  30  31
ENDBRANCH  25  30
ENDBRANCH  21  22
ENDBRANCH  20  21
BRANCH  20  34
ATOM     34  C   LIG A   1      -5.131   4.645 128.586  0.00  0.00    +0.236 C 
BRANCH  34  35
ATOM     35  O   LIG A   1      -4.462   5.658 127.875  0.00  0.00    -0.465 OA
BRANCH  35  36
ATOM     36  C   LIG A   1      -3.101   5.613 128.005  0.00  0.00    +0.304 C 
ATOM     37  C   LIG A   1      -2.688   7.001 128.224  0.00  0.00    +0.136 C 
ATOM     38  O   LIG A   1      -2.343   4.784 127.705  0.00  0.00    -0.251 OA
ENDBRANCH  35  36
ENDBRANCH  34  35
ENDBRANCH  20  34
ENDBRANCH   1  20
TORSDOF 17
ENDMDL
MODEL 5
REMARK VINA RESULT:      -6.9      3.019      7.296
REMARK  Name = NuBBE_2454
REMARK  23 active torsions:
REMARK  status: ('A' for Active; 'I' for Inactive)
REMARK    1  A    between atoms: C_1  and  O_2
REMARK    2  A    between atoms: O_2  and  C_3
REMARK    3  A    between atoms: C_5  and  C_6
REMARK    4  A    between atoms: C_6  and  C_7
REMARK    5  A    between atoms: C_7  and  C_9
REMARK    6  A    between atoms: C_7  and  C_14
REMARK    7  A    between atoms: C_9  and  O_10
REMARK    8  A    between atoms: O_10  and  C_11
REMARK    9  A    between atoms: C_11  and  C_12
REMARK   10  A    between atoms: C_14  and  C_16
REMARK   11  A    between atoms: C_14  and  C_29
REMARK   12  A    between atoms: C_16  and  C_17
REMARK   13  A    between atoms: C_19  and  O_20
REMARK   14  A    between atoms: O_20  and  C_21
REMARK   15  A    between atoms: C_22  and  O_25
REMARK   16  A    between atoms: O_25  and  C_26
REMARK   17  A    between atoms: C_26  and  C_27
REMARK   18  A    between atoms: C_29  and  O_30
REMARK   19  A    between atoms: O_30  and  C_31
REMARK   20  A    between atoms: C_31  and  C_32
REMARK   21  A    between atoms: C_36  and  O_37
REMARK   22  A    between atoms: O_37  and  C_38
REMARK   23  A    between atoms: C_38  and  C_39
REMARK                            x       y       z     vdW  Elec       q    Type
REMARK                         _______ _______ _______ _____ _____    ______ ____
ROOT
ATOM      1  C   LIG A   1      -9.058  -1.746 125.125  0.00  0.00    +0.038 C 
ENDROOT
BRANCH   1   2
ATOM      2  C   LIG A   1      -8.793  -2.674 126.444  0.00  0.00    +0.042 C 
BRANCH   2   5
ATOM      3  C   LIG A   1      -6.502  -2.764 129.566  0.00  0.00    +0.163 A 
ATOM      4  C   LIG A   1      -7.510  -3.070 128.613  0.00  0.00    +0.053 A 
ATOM      5  C   LIG A   1      -7.458  -2.697 127.286  0.00  0.00    -0.043 A 
ATOM      6  C   LIG A   1      -6.230  -2.093 126.879  0.00  0.00    +0.007 A 
ATOM      7  C   LIG A   1      -5.304  -1.588 127.850  0.00  0.00    +0.050 A 
ATOM      8  C   LIG A   1      -5.440  -1.909 129.203  0.00  0.00    +0.173 A 
BRANCH   3  10
ATOM      9  C   LIG A   1      -7.438  -2.536 131.749  0.00  0.00    +0.277 C 
ATOM     10  O   LIG A   1      -6.579  -3.249 130.845  0.00  0.00    -0.491 OA
ENDBRANCH   3  10
BRANCH   8  11
ATOM     11  O   LIG A   1      -4.663  -1.229 130.204  0.00  0.00    -0.422 OA
BRANCH  11  12
ATOM     12  C   LIG A   1      -3.448  -1.735 130.707  0.00  0.00    +0.309 C 
ATOM     13  C   LIG A   1      -3.310  -1.507 132.188  0.00  0.00    +0.136 C 
ATOM     14  O   LIG A   1      -2.564  -2.288 130.062  0.00  0.00    -0.251 OA
ENDBRANCH  11  12
ENDBRANCH   8  11
ENDBRANCH   2   5
ENDBRANCH   1   2
BRANCH   1  15
ATOM     15  C   LIG A   1      -8.557  -2.495 123.843  0.00  0.00    +0.236 C 
BRANCH  15  16
ATOM     16  O   LIG A   1      -7.243  -3.080 123.964  0.00  0.00    -0.465 OA
BRANCH  16  17
ATOM     17  C   LIG A   1      -6.245  -2.511 123.228  0.00  0.00    +0.304 C 
ATOM     18  C   LIG A   1      -4.918  -3.151 123.525  0.00  0.00    +0.136 C 
ATOM     19  O   LIG A   1      -6.385  -1.574 122.456  0.00  0.00    -0.251 OA
ENDBRANCH  16  17
ENDBRANCH  15  16
ENDBRANCH   1  15
BRANCH   1  20
ATOM     20  C   LIG A   1      -8.522  -0.232 125.124  0.00  0.00    +0.038 C 
BRANCH  20  21
ATOM     21  C   LIG A   1      -9.030   0.681 126.303  0.00  0.00    +0.042 C 
BRANCH  21  22
ATOM     22  C   LIG A   1      -8.041   1.236 127.310  0.00  0.00    -0.043 A 
ATOM     23  C   LIG A   1      -6.933   1.937 126.840  0.00  0.00    +0.053 A 
ATOM     24  C   LIG A   1      -5.816   2.225 127.638  0.00  0.00    +0.163 A 
ATOM     25  C   LIG A   1      -5.861   1.919 129.004  0.00  0.00    +0.173 A 
ATOM     26  C   LIG A   1      -7.021   1.346 129.531  0.00  0.00    +0.050 A 
ATOM     27  C   LIG A   1      -8.084   0.968 128.680  0.00  0.00    +0.007 A 
BRANCH  24  28
ATOM     28  O   LIG A   1      -4.670   2.748 127.084  0.00  0.00    -0.491 OA
ATOM     29  C   LIG A   1      -4.872   3.308 125.778  0.00  0.00    +0.277 C 
ENDBRANCH  24  28
BRANCH  25  30
ATOM     30  O   LIG A   1      -4.671   2.108 129.773  0.00  0.00    -0.422 OA
BRANCH  30  31
ATOM     31  C   LIG A   1      -4.437   3.151 130.686  0.00  0.00    +0.309 C 
ATOM     32  C   LIG A   1      -3.475   4.151 130.096  0.00  0.00    +0.136 C 
ATOM     33  O   LIG A   1      -4.859   3.234 131.833  0.00  0.00    -0.251 OA
ENDBRANCH  30  31
ENDBRANCH  25  30
ENDBRANCH  21  22
ENDBRANCH  20  21
BRANCH  20  34
ATOM     34  C   LIG A   1      -8.777   0.617 123.828  0.00  0.00    +0.236 C 
BRANCH  34  35
ATOM     35  O   LIG A   1      -7.662   1.358 123.397  0.00  0.00    -0.465 OA
BRANCH  35  36
ATOM     36  C   LIG A   1      -7.898   2.702 123.305  0.00  0.00    +0.304 C 
ATOM     37  C   LIG A   1      -6.854   3.217 122.416  0.00  0.00    +0.136 C 
ATOM     38  O   LIG A   1      -8.535   3.403 123.980  0.00  0.00    -0.251 OA
ENDBRANCH  35  36
ENDBRANCH  34  35
ENDBRANCH  20  34
ENDBRANCH   1  20
TORSDOF 17
ENDMDL
MODEL 6
REMARK VINA RESULT:      -6.9      2.234      4.772
REMARK  Name = NuBBE_2454
REMARK  23 active torsions:
REMARK  status: ('A' for Active; 'I' for Inactive)
REMARK    1  A    between atoms: C_1  and  O_2
REMARK    2  A    between atoms: O_2  and  C_3
REMARK    3  A    between atoms: C_5  and  C_6
REMARK    4  A    between atoms: C_6  and  C_7
REMARK    5  A    between atoms: C_7  and  C_9
REMARK    6  A    between atoms: C_7  and  C_14
REMARK    7  A    between atoms: C_9  and  O_10
REMARK    8  A    between atoms: O_10  and  C_11
REMARK    9  A    between atoms: C_11  and  C_12
REMARK   10  A    between atoms: C_14  and  C_16
REMARK   11  A    between atoms: C_14  and  C_29
REMARK   12  A    between atoms: C_16  and  C_17
REMARK   13  A    between atoms: C_19  and  O_20
REMARK   14  A    between atoms: O_20  and  C_21
REMARK   15  A    between atoms: C_22  and  O_25
REMARK   16  A    between atoms: O_25  and  C_26
REMARK   17  A    between atoms: C_26  and  C_27
REMARK   18  A    between atoms: C_29  and  O_30
REMARK   19  A    between atoms: O_30  and  C_31
REMARK   20  A    between atoms: C_31  and  C_32
REMARK   21  A    between atoms: C_36  and  O_37
REMARK   22  A    between atoms: O_37  and  C_38
REMARK   23  A    between atoms: C_38  and  C_39
REMARK                            x       y       z     vdW  Elec       q    Type
REMARK                         _______ _______ _______ _____ _____    ______ ____
ROOT
ATOM      1  C   LIG A   1      -6.096  -2.079 128.042  0.00  0.00    +0.038 C 
ENDROOT
BRANCH   1   2
ATOM      2  C   LIG A   1      -5.439  -2.133 126.547  0.00  0.00    +0.042 C 
BRANCH   2   5
ATOM      3  C   LIG A   1      -6.872   0.986 124.754  0.00  0.00    +0.163 A 
ATOM      4  C   LIG A   1      -6.159   0.143 125.646  0.00  0.00    +0.053 A 
ATOM      5  C   LIG A   1      -5.800  -1.158 125.359  0.00  0.00    -0.043 A 
ATOM      6  C   LIG A   1      -6.066  -1.574 124.020  0.00  0.00    +0.007 A 
ATOM      7  C   LIG A   1      -6.961  -0.828 123.185  0.00  0.00    +0.050 A 
ATOM      8  C   LIG A   1      -7.382   0.453 123.551  0.00  0.00    +0.173 A 
BRANCH   3  10
ATOM      9  C   LIG A   1      -7.502   2.565 126.428  0.00  0.00    +0.277 C 
ATOM     10  O   LIG A   1      -7.112   2.297 125.073  0.00  0.00    -0.491 OA
ENDBRANCH   3  10
BRANCH   8  11
ATOM     11  O   LIG A   1      -8.449   1.109 122.844  0.00  0.00    -0.422 OA
BRANCH  11  12
ATOM     12  C   LIG A   1      -9.803   0.751 122.995  0.00  0.00    +0.309 C 
ATOM     13  C   LIG A   1     -10.444   1.440 124.169  0.00  0.00    +0.136 C 
ATOM     14  O   LIG A   1     -10.432  -0.036 122.295  0.00  0.00    -0.251 OA
ENDBRANCH  11  12
ENDBRANCH   8  11
ENDBRANCH   2   5
ENDBRANCH   1   2
BRANCH   1  15
ATOM     15  C   LIG A   1      -5.512  -3.240 128.919  0.00  0.00    +0.236 C 
BRANCH  15  16
ATOM     16  O   LIG A   1      -4.916  -2.811 130.162  0.00  0.00    -0.465 OA
BRANCH  16  17
ATOM     17  C   LIG A   1      -3.640  -3.224 130.408  0.00  0.00    +0.304 C 
ATOM     18  C   LIG A   1      -3.003  -3.783 129.166  0.00  0.00    +0.136 C 
ATOM     19  O   LIG A   1      -3.085  -3.193 131.495  0.00  0.00    -0.251 OA
ENDBRANCH  16  17
ENDBRANCH  15  16
ENDBRANCH   1  15
BRANCH   1  20
ATOM     20  C   LIG A   1      -7.696  -2.034 128.183  0.00  0.00    +0.038 C 
BRANCH  20  21
ATOM     21  C   LIG A   1      -8.255  -1.819 129.640  0.00  0.00    +0.042 C 
BRANCH  21  22
ATOM     22  C   LIG A   1      -7.804  -0.621 130.453  0.00  0.00    -0.043 A 
ATOM     23  C   LIG A   1      -7.335  -0.832 131.748  0.00  0.00    +0.053 A 
ATOM     24  C   LIG A   1      -7.184   0.202 132.685  0.00  0.00    +0.163 A 
ATOM     25  C   LIG A   1      -7.380   1.526 132.270  0.00  0.00    +0.173 A 
ATOM     26  C   LIG A   1      -7.711   1.775 130.937  0.00  0.00    +0.050 A 
ATOM     27  C   LIG A   1      -7.963   0.706 130.048  0.00  0.00    +0.007 A 
BRANCH  24  28
ATOM     28  O   LIG A   1      -6.903  -0.077 134.002  0.00  0.00    -0.491 OA
ATOM     29  C   LIG A   1      -6.138  -1.278 134.180  0.00  0.00    +0.277 C 
ENDBRANCH  24  28
BRANCH  25  30
ATOM     30  O   LIG A   1      -7.341   2.551 133.266  0.00  0.00    -0.422 OA
BRANCH  30  31
ATOM     31  C   LIG A   1      -8.443   3.295 133.725  0.00  0.00    +0.309 C 
ATOM     32  C   LIG A   1      -7.980   4.390 134.651  0.00  0.00    +0.136 C 
ATOM     33  O   LIG A   1      -9.627   3.071 133.502  0.00  0.00    -0.251 OA
ENDBRANCH  30  31
ENDBRANCH  25  30
ENDBRANCH  21  22
ENDBRANCH  20  21
BRANCH  20  34
ATOM     34  C   LIG A   1      -8.498  -3.265 127.629  0.00  0.00    +0.236 C 
BRANCH  34  35
ATOM     35  O   LIG A   1      -8.371  -3.457 126.242  0.00  0.00    -0.465 OA
BRANCH  35  36
ATOM     36  C   LIG A   1      -9.269  -2.737 125.503  0.00  0.00    +0.304 C 
ATOM     37  C   LIG A   1      -9.328  -3.410 124.204  0.00  0.00    +0.136 C 
ATOM     38  O   LIG A   1      -9.683  -1.661 125.660  0.00  0.00    -0.251 OA
ENDBRANCH  35  36
ENDBRANCH  34  35
ENDBRANCH  20  34
ENDBRANCH   1  20
TORSDOF 17
ENDMDL
MODEL 7
REMARK VINA RESULT:      -6.9      2.528      6.387
REMARK  Name = NuBBE_2454
REMARK  23 active torsions:
REMARK  status: ('A' for Active; 'I' for Inactive)
REMARK    1  A    between atoms: C_1  and  O_2
REMARK    2  A    between atoms: O_2  and  C_3
REMARK    3  A    between atoms: C_5  and  C_6
REMARK    4  A    between atoms: C_6  and  C_7
REMARK    5  A    between atoms: C_7  and  C_9
REMARK    6  A    between atoms: C_7  and  C_14
REMARK    7  A    between atoms: C_9  and  O_10
REMARK    8  A    between atoms: O_10  and  C_11
REMARK    9  A    between atoms: C_11  and  C_12
REMARK   10  A    between atoms: C_14  and  C_16
REMARK   11  A    between atoms: C_14  and  C_29
REMARK   12  A    between atoms: C_16  and  C_17
REMARK   13  A    between atoms: C_19  and  O_20
REMARK   14  A    between atoms: O_20  and  C_21
REMARK   15  A    between atoms: C_22  and  O_25
REMARK   16  A    between atoms: O_25  and  C_26
REMARK   17  A    between atoms: C_26  and  C_27
REMARK   18  A    between atoms: C_29  and  O_30
REMARK   19  A    between atoms: O_30  and  C_31
REMARK   20  A    between atoms: C_31  and  C_32
REMARK   21  A    between atoms: C_36  and  O_37
REMARK   22  A    between atoms: O_37  and  C_38
REMARK   23  A    between atoms: C_38  and  C_39
REMARK                            x       y       z     vdW  Elec       q    Type
REMARK                         _______ _______ _______ _____ _____    ______ ____
ROOT
ATOM      1  C   LIG A   1      -8.190   0.473 130.719  0.00  0.00    +0.038 C 
ENDROOT
BRANCH   1   2
ATOM      2  C   LIG A   1      -8.633   1.734 129.779  0.00  0.00    +0.042 C 
BRANCH   2   5
ATOM      3  C   LIG A   1      -7.535   3.613 126.575  0.00  0.00    +0.163 A 
ATOM      4  C   LIG A   1      -7.609   3.139 127.911  0.00  0.00    +0.053 A 
ATOM      5  C   LIG A   1      -8.197   1.945 128.277  0.00  0.00    -0.043 A 
ATOM      6  C   LIG A   1      -8.609   1.120 127.188  0.00  0.00    +0.007 A 
ATOM      7  C   LIG A   1      -8.739   1.661 125.867  0.00  0.00    +0.050 A 
ATOM      8  C   LIG A   1      -8.214   2.917 125.552  0.00  0.00    +0.173 A 
BRANCH   3  10
ATOM      9  C   LIG A   1      -5.438   4.638 126.084  0.00  0.00    +0.277 C 
ATOM     10  O   LIG A   1      -6.855   4.764 126.278  0.00  0.00    -0.491 OA
ENDBRANCH   3  10
BRANCH   8  11
ATOM     11  O   LIG A   1      -8.538   3.561 124.308  0.00  0.00    -0.422 OA
BRANCH  11  12
ATOM     12  C   LIG A   1      -8.213   3.011 123.052  0.00  0.00    +0.309 C 
ATOM     13  C   LIG A   1      -6.729   2.833 122.879  0.00  0.00    +0.136 C 
ATOM     14  O   LIG A   1      -9.000   2.712 122.161  0.00  0.00    -0.251 OA
ENDBRANCH  11  12
ENDBRANCH   8  11
ENDBRANCH   2   5
ENDBRANCH   1   2
BRANCH   1  15
ATOM     15  C   LIG A   1      -7.661   1.001 132.097  0.00  0.00    +0.236 C 
BRANCH  15  16
ATOM     16  O   LIG A   1      -7.034   2.300 132.041  0.00  0.00    -0.465 OA
BRANCH  16  17
ATOM     17  C   LIG A   1      -7.473   3.235 132.933  0.00  0.00    +0.304 C 
ATOM     18  C   LIG A   1      -7.969   4.466 132.228  0.00  0.00    +0.136 C 
ATOM     19  O   LIG A   1      -7.436   3.121 134.148  0.00  0.00    -0.251 OA
ENDBRANCH  16  17
ENDBRANCH  15  16
ENDBRANCH   1  15
BRANCH   1  20
ATOM     20  C   LIG A   1      -7.175  -0.619 130.121  0.00  0.00    +0.038 C 
BRANCH  20  21
ATOM     21  C   LIG A   1      -7.800  -2.020 129.765  0.00  0.00    +0.042 C 
BRANCH  21  22
ATOM     22  C   LIG A   1      -7.755  -2.528 128.337  0.00  0.00    -0.043 A 
ATOM     23  C   LIG A   1      -6.817  -1.982 127.464  0.00  0.00    +0.053 A 
ATOM     24  C   LIG A   1      -6.881  -2.146 126.073  0.00  0.00    +0.163 A 
ATOM     25  C   LIG A   1      -7.847  -3.006 125.535  0.00  0.00    +0.173 A 
ATOM     26  C   LIG A   1      -8.710  -3.681 126.402  0.00  0.00    +0.050 A 
ATOM     27  C   LIG A   1      -8.691  -3.408 127.788  0.00  0.00    +0.007 A 
BRANCH  24  28
ATOM     28  O   LIG A   1      -6.049  -1.435 125.240  0.00  0.00    -0.491 OA
ATOM     29  C   LIG A   1      -5.353  -0.369 125.904  0.00  0.00    +0.277 C 
ENDBRANCH  24  28
BRANCH  25  30
ATOM     30  O   LIG A   1      -7.975  -3.064 124.113  0.00  0.00    -0.422 OA
BRANCH  30  31
ATOM     31  C   LIG A   1      -9.123  -2.726 123.374  0.00  0.00    +0.309 C 
ATOM     32  C   LIG A   1      -9.035  -1.296 122.904  0.00  0.00    +0.136 C 
ATOM     33  O   LIG A   1     -10.111  -3.426 123.188  0.00  0.00    -0.251 OA
ENDBRANCH  30  31
ENDBRANCH  25  30
ENDBRANCH  21  22
ENDBRANCH  20  21
BRANCH  20  34
ATOM     34  C   LIG A   1      -5.903  -0.959 130.978  0.00  0.00    +0.236 C 
BRANCH  34  35
ATOM     35  O   LIG A   1      -5.422  -2.269 130.797  0.00  0.00    -0.465 OA
BRANCH  35  36
ATOM     36  C   LIG A   1      -4.200  -2.326 130.187  0.00  0.00    +0.304 C 
ATOM     37  C   LIG A   1      -4.114  -3.674 129.620  0.00  0.00    +0.136 C 
ATOM     38  O   LIG A   1      -3.263  -1.648 130.312  0.00  0.00    -0.251 OA
ENDBRANCH  35  36
ENDBRANCH  34  35
ENDBRANCH  20  34
ENDBRANCH   1  20
TORSDOF 17
ENDMDL
MODEL 8
REMARK VINA RESULT:      -6.9      2.094      3.177
REMARK  Name = NuBBE_2454
REMARK  23 active torsions:
REMARK  status: ('A' for Active; 'I' for Inactive)
REMARK    1  A    between atoms: C_1  and  O_2
REMARK    2  A    between atoms: O_2  and  C_3
REMARK    3  A    between atoms: C_5  and  C_6
REMARK    4  A    between atoms: C_6  and  C_7
REMARK    5  A    between atoms: C_7  and  C_9
REMARK    6  A    between atoms: C_7  and  C_14
REMARK    7  A    between atoms: C_9  and  O_10
REMARK    8  A    between atoms: O_10  and  C_11
REMARK    9  A    between atoms: C_11  and  C_12
REMARK   10  A    between atoms: C_14  and  C_16
REMARK   11  A    between atoms: C_14  and  C_29
REMARK   12  A    between atoms: C_16  and  C_17
REMARK   13  A    between atoms: C_19  and  O_20
REMARK   14  A    between atoms: O_20  and  C_21
REMARK   15  A    between atoms: C_22  and  O_25
REMARK   16  A    between atoms: O_25  and  C_26
REMARK   17  A    between atoms: C_26  and  C_27
REMARK   18  A    between atoms: C_29  and  O_30
REMARK   19  A    between atoms: O_30  and  C_31
REMARK   20  A    between atoms: C_31  and  C_32
REMARK   21  A    between atoms: C_36  and  O_37
REMARK   22  A    between atoms: O_37  and  C_38
REMARK   23  A    between atoms: C_38  and  C_39
REMARK                            x       y       z     vdW  Elec       q    Type
REMARK                         _______ _______ _______ _____ _____    ______ ____
ROOT
ATOM      1  C   LIG A   1      -6.631  -0.805 131.414  0.00  0.00    +0.038 C 
ENDROOT
BRANCH   1   2
ATOM      2  C   LIG A   1      -7.657  -1.939 130.839  0.00  0.00    +0.042 C 
BRANCH   2   5
ATOM      3  C   LIG A   1      -8.216  -1.607 127.021  0.00  0.00    +0.163 A 
ATOM      4  C   LIG A   1      -7.739  -1.412 128.344  0.00  0.00    +0.053 A 
ATOM      5  C   LIG A   1      -7.772  -2.379 129.328  0.00  0.00    -0.043 A 
ATOM      6  C   LIG A   1      -8.193  -3.670 128.887  0.00  0.00    +0.007 A 
ATOM      7  C   LIG A   1      -8.871  -3.833 127.635  0.00  0.00    +0.050 A 
ATOM      8  C   LIG A   1      -8.899  -2.798 126.697  0.00  0.00    +0.173 A 
BRANCH   3  10
ATOM      9  C   LIG A   1      -6.732  -0.411 125.585  0.00  0.00    +0.277 C 
ATOM     10  O   LIG A   1      -8.065  -0.629 126.073  0.00  0.00    -0.491 OA
ENDBRANCH   3  10
BRANCH   8  11
ATOM     11  O   LIG A   1      -9.762  -2.867 125.549  0.00  0.00    -0.422 OA
BRANCH  11  12
ATOM     12  C   LIG A   1      -9.296  -3.169 124.254  0.00  0.00    +0.309 C 
ATOM     13  C   LIG A   1      -7.912  -3.760 124.274  0.00  0.00    +0.136 C 
ATOM     14  O   LIG A   1      -9.893  -2.979 123.200  0.00  0.00    -0.251 OA
ENDBRANCH  11  12
ENDBRANCH   8  11
ENDBRANCH   2   5
ENDBRANCH   1   2
BRANCH   1  15
ATOM     15  C   LIG A   1      -5.906  -1.348 132.693  0.00  0.00    +0.236 C 
BRANCH  15  16
ATOM     16  O   LIG A   1      -4.796  -2.231 132.424  0.00  0.00    -0.465 OA
BRANCH  16  17
ATOM     17  C   LIG A   1      -3.617  -1.644 132.065  0.00  0.00    +0.304 C 
ATOM     18  C   LIG A   1      -3.274  -0.508 132.987  0.00  0.00    +0.136 C 
ATOM     19  O   LIG A   1      -2.939  -1.958 131.099  0.00  0.00    -0.251 OA
ENDBRANCH  16  17
ENDBRANCH  15  16
ENDBRANCH   1  15
BRANCH   1  20
ATOM     20  C   LIG A   1      -7.187   0.678 131.682  0.00  0.00    +0.038 C 
BRANCH  20  21
ATOM     21  C   LIG A   1      -7.070   1.687 130.479  0.00  0.00    +0.042 C 
BRANCH  21  22
ATOM     22  C   LIG A   1      -8.099   2.788 130.311  0.00  0.00    -0.043 A 
ATOM     23  C   LIG A   1      -7.654   4.092 130.104  0.00  0.00    +0.053 A 
ATOM     24  C   LIG A   1      -8.485   5.214 130.240  0.00  0.00    +0.163 A 
ATOM     25  C   LIG A   1      -9.855   5.021 130.459  0.00  0.00    +0.173 A 
ATOM     26  C   LIG A   1     -10.352   3.717 130.527  0.00  0.00    +0.050 A 
ATOM     27  C   LIG A   1      -9.472   2.612 130.497  0.00  0.00    +0.007 A 
BRANCH  24  28
ATOM     28  O   LIG A   1      -7.961   6.485 130.214  0.00  0.00    -0.491 OA
ATOM     29  C   LIG A   1      -7.059   6.753 131.298  0.00  0.00    +0.277 C 
ENDBRANCH  24  28
BRANCH  25  30
ATOM     30  O   LIG A   1     -10.660   6.173 130.716  0.00  0.00    -0.422 OA
BRANCH  30  31
ATOM     31  C   LIG A   1     -11.690   6.659 129.890  0.00  0.00    +0.309 C 
ATOM     32  C   LIG A   1     -11.147   6.988 128.523  0.00  0.00    +0.136 C 
ATOM     33  O   LIG A   1     -12.850   6.881 130.214  0.00  0.00    -0.251 OA
ENDBRANCH  30  31
ENDBRANCH  25  30
ENDBRANCH  21  22
ENDBRANCH  20  21
BRANCH  20  34
ATOM     34  C   LIG A   1      -6.591   1.455 132.910  0.00  0.00    +0.236 C 
BRANCH  34  35
ATOM     35  O   LIG A   1      -7.561   2.004 133.768  0.00  0.00    -0.465 OA
BRANCH  35  36
ATOM     36  C   LIG A   1      -7.517   3.368 133.845  0.00  0.00    +0.304 C 
ATOM     37  C   LIG A   1      -8.912   3.793 133.979  0.00  0.00    +0.136 C 
ATOM     38  O   LIG A   1      -6.670   4.112 133.556  0.00  0.00    -0.251 OA
ENDBRANCH  35  36
ENDBRANCH  34  35
ENDBRANCH  20  34
ENDBRANCH   1  20
TORSDOF 17
ENDMDL
MODEL 9
REMARK VINA RESULT:      -6.9      2.540      7.031
REMARK  Name = NuBBE_2454
REMARK  23 active torsions:
REMARK  status: ('A' for Active; 'I' for Inactive)
REMARK    1  A    between atoms: C_1  and  O_2
REMARK    2  A    between atoms: O_2  and  C_3
REMARK    3  A    between atoms: C_5  and  C_6
REMARK    4  A    between atoms: C_6  and  C_7
REMARK    5  A    between atoms: C_7  and  C_9
REMARK    6  A    between atoms: C_7  and  C_14
REMARK    7  A    between atoms: C_9  and  O_10
REMARK    8  A    between atoms: O_10  and  C_11
REMARK    9  A    between atoms: C_11  and  C_12
REMARK   10  A    between atoms: C_14  and  C_16
REMARK   11  A    between atoms: C_14  and  C_29
REMARK   12  A    between atoms: C_16  and  C_17
REMARK   13  A    between atoms: C_19  and  O_20
REMARK   14  A    between atoms: O_20  and  C_21
REMARK   15  A    between atoms: C_22  and  O_25
REMARK   16  A    between atoms: O_25  and  C_26
REMARK   17  A    between atoms: C_26  and  C_27
REMARK   18  A    between atoms: C_29  and  O_30
REMARK   19  A    between atoms: O_30  and  C_31
REMARK   20  A    between atoms: C_31  and  C_32
REMARK   21  A    between atoms: C_36  and  O_37
REMARK   22  A    between atoms: O_37  and  C_38
REMARK   23  A    between atoms: C_38  and  C_39
REMARK                            x       y       z     vdW  Elec       q    Type
REMARK                         _______ _______ _______ _____ _____    ______ ____
ROOT
ATOM      1  C   LIG A   1      -8.766  -2.044 125.884  0.00  0.00    +0.038 C 
ENDROOT
BRANCH   1   2
ATOM      2  C   LIG A   1      -8.544  -3.040 127.161  0.00  0.00    +0.042 C 
BRANCH   2   5
ATOM      3  C   LIG A   1      -7.181  -2.015 130.638  0.00  0.00    +0.163 A 
ATOM      4  C   LIG A   1      -7.953  -2.610 129.605  0.00  0.00    +0.053 A 
ATOM      5  C   LIG A   1      -7.496  -2.814 128.319  0.00  0.00    -0.043 A 
ATOM      6  C   LIG A   1      -6.114  -2.518 128.118  0.00  0.00    +0.007 A 
ATOM      7  C   LIG A   1      -5.388  -1.730 129.069  0.00  0.00    +0.050 A 
ATOM      8  C   LIG A   1      -5.920  -1.461 130.333  0.00  0.00    +0.173 A 
BRANCH   3  10
ATOM      9  C   LIG A   1      -7.322  -2.999 132.807  0.00  0.00    +0.277 C 
ATOM     10  O   LIG A   1      -7.671  -1.930 131.915  0.00  0.00    -0.491 OA
ENDBRANCH   3  10
BRANCH   8  11
ATOM     11  O   LIG A   1      -5.309  -0.490 131.200  0.00  0.00    -0.422 OA
BRANCH  11  12
ATOM     12  C   LIG A   1      -5.533   0.896 131.079  0.00  0.00    +0.309 C 
ATOM     13  C   LIG A   1      -4.247   1.671 130.979  0.00  0.00    +0.136 C 
ATOM     14  O   LIG A   1      -6.622   1.461 131.067  0.00  0.00    -0.251 OA
ENDBRANCH  11  12
ENDBRANCH   8  11
ENDBRANCH   2   5
ENDBRANCH   1   2
BRANCH   1  15
ATOM     15  C   LIG A   1      -8.321  -2.766 124.566  0.00  0.00    +0.236 C 
BRANCH  15  16
ATOM     16  O   LIG A   1      -7.065  -3.471 124.663  0.00  0.00    -0.465 OA
BRANCH  16  17
ATOM     17  C   LIG A   1      -6.044  -3.018 123.880  0.00  0.00    +0.304 C 
ATOM     18  C   LIG A   1      -4.860  -3.942 123.945  0.00  0.00    +0.136 C 
ATOM     19  O   LIG A   1      -6.055  -1.979 123.239  0.00  0.00    -0.251 OA
ENDBRANCH  16  17
ENDBRANCH  15  16
ENDBRANCH   1  15
BRANCH   1  20
ATOM     20  C   LIG A   1      -8.142  -0.564 125.940  0.00  0.00    +0.038 C 
BRANCH  20  21
ATOM     21  C   LIG A   1      -8.519   0.297 127.204  0.00  0.00    +0.042 C 
BRANCH  21  22
ATOM     22  C   LIG A   1      -7.612   1.427 127.647  0.00  0.00    -0.043 A 
ATOM     23  C   LIG A   1      -8.192   2.597 128.134  0.00  0.00    +0.053 A 
ATOM     24  C   LIG A   1      -7.483   3.798 128.282  0.00  0.00    +0.163 A 
ATOM     25  C   LIG A   1      -6.099   3.800 128.063  0.00  0.00    +0.173 A 
ATOM     26  C   LIG A   1      -5.468   2.604 127.713  0.00  0.00    +0.050 A 
ATOM     27  C   LIG A   1      -6.227   1.439 127.465  0.00  0.00    +0.007 A 
BRANCH  24  28
ATOM     28  O   LIG A   1      -8.137   4.970 128.583  0.00  0.00    -0.491 OA
ATOM     29  C   LIG A   1      -8.941   4.886 129.769  0.00  0.00    +0.277 C 
ENDBRANCH  24  28
BRANCH  25  30
ATOM     30  O   LIG A   1      -5.417   5.056 128.100  0.00  0.00    -0.422 OA
BRANCH  30  31
ATOM     31  C   LIG A   1      -4.259   5.343 128.844  0.00  0.00    +0.309 C 
ATOM     32  C   LIG A   1      -3.160   5.820 127.930  0.00  0.00    +0.136 C 
ATOM     33  O   LIG A   1      -4.093   5.165 130.045  0.00  0.00    -0.251 OA
ENDBRANCH  30  31
ENDBRANCH  25  30
ENDBRANCH  21  22
ENDBRANCH  20  21
BRANCH  20  34
ATOM     34  C   LIG A   1      -8.428   0.379 124.718  0.00  0.00    +0.236 C 
BRANCH  34  35
ATOM     35  O   LIG A   1      -9.795   0.562 124.440  0.00  0.00    -0.465 OA
BRANCH  35  36
ATOM     36  C   LIG A   1     -10.061   0.795 123.119  0.00  0.00    +0.304 C 
ATOM     37  C   LIG A   1      -9.304   2.002 122.780  0.00  0.00    +0.136 C 
ATOM     38  O   LIG A   1     -10.914   0.389 122.440  0.00  0.00    -0.251 OA
ENDBRANCH  35  36
ENDBRANCH  34  35
ENDBRANCH  20  34
ENDBRANCH   1  20
TORSDOF 17
ENDMDL
