MODEL 1
REMARK VINA RESULT:      -8.4      0.000      0.000
REMARK  Name = NuBBE_2351
REMARK  4 active torsions:
REMARK  status: ('A' for Active; 'I' for Inactive)
REMARK    1  A    between atoms: C_1  and  C_2
REMARK    2  A    between atoms: C_9  and  C_10
REMARK    3  A    between atoms: C_17  and  C_18
REMARK    4  A    between atoms: C_17  and  C_19
REMARK                            x       y       z     vdW  Elec       q    Type
REMARK                         _______ _______ _______ _____ _____    ______ ____
ROOT
ATOM      1  C   LIG A   1      -8.709  -0.970 126.123  0.00  0.00    +0.012 C 
ATOM      2  C   LIG A   1      -8.100  -2.355 125.781  0.00  0.00    -0.025 C 
ATOM      3  C   LIG A   1      -6.894  -2.171 124.813  0.00  0.00    +0.001 C 
ATOM      4  C   LIG A   1      -5.801  -1.318 125.499  0.00  0.00    +0.005 C 
ATOM      5  C   LIG A   1      -5.467  -1.676 126.981  0.00  0.00    +0.012 C 
ATOM      6  C   LIG A   1      -6.552  -2.263 127.933  0.00  0.00    -0.007 C 
ATOM      7  C   LIG A   1      -5.814  -2.987 129.111  0.00  0.00    -0.021 C 
ATOM      8  C   LIG A   1      -6.516  -2.889 130.275  0.00  0.00    -0.073 C 
ATOM      9  C   LIG A   1      -6.252  -3.269 131.677  0.00  0.00    +0.039 C 
ATOM     10  C   LIG A   1      -7.588  -3.101 127.118  0.00  0.00    +0.005 C 
ATOM     11  C   LIG A   1      -8.821  -3.549 127.956  0.00  0.00    +0.005 C 
ATOM     12  C   LIG A   1      -8.683  -3.496 129.466  0.00  0.00    +0.008 C 
ATOM     13  C   LIG A   1      -7.839  -2.297 129.951  0.00  0.00    +0.015 C 
ATOM     14  C   LIG A   1      -7.363  -1.325 128.858  0.00  0.00    +0.019 C 
ATOM     15  C   LIG A   1      -7.307  -1.751 123.320  0.00  0.00    -0.032 C 
ATOM     16  C   LIG A   1      -7.951  -0.358 123.117  0.00  0.00    +0.011 C 
ATOM     17  C   LIG A   1      -6.084  -1.754 122.376  0.00  0.00    +0.011 C 
ATOM     18  C   LIG A   1      -8.302  -2.820 122.795  0.00  0.00    +0.007 C 
ATOM     19  C   LIG A   1      -9.536  -2.960 123.673  0.00  0.00    +0.001 C 
ATOM     20  C   LIG A   1      -9.183  -3.257 125.120  0.00  0.00    +0.007 C 
ENDROOT
TORSDOF 0
ENDMDL
MODEL 2
REMARK VINA RESULT:      -7.9      1.107      6.017
REMARK  Name = NuBBE_2351
REMARK  4 active torsions:
REMARK  status: ('A' for Active; 'I' for Inactive)
REMARK    1  A    between atoms: C_1  and  C_2
REMARK    2  A    between atoms: C_9  and  C_10
REMARK    3  A    between atoms: C_17  and  C_18
REMARK    4  A    between atoms: C_17  and  C_19
REMARK                            x       y       z     vdW  Elec       q    Type
REMARK                         _______ _______ _______ _____ _____    ______ ____
ROOT
ATOM      1  C   LIG A   1      -7.289  -0.720 128.609  0.00  0.00    +0.012 C 
ATOM      2  C   LIG A   1      -6.427  -1.976 128.318  0.00  0.00    -0.025 C 
ATOM      3  C   LIG A   1      -6.733  -3.077 129.376  0.00  0.00    +0.001 C 
ATOM      4  C   LIG A   1      -8.223  -3.483 129.290  0.00  0.00    +0.005 C 
ATOM      5  C   LIG A   1      -8.803  -3.702 127.857  0.00  0.00    +0.012 C 
ATOM      6  C   LIG A   1      -8.256  -2.905 126.636  0.00  0.00    -0.007 C 
ATOM      7  C   LIG A   1      -8.634  -3.700 125.339  0.00  0.00    -0.021 C 
ATOM      8  C   LIG A   1      -8.879  -2.860 124.294  0.00  0.00    -0.073 C 
ATOM      9  C   LIG A   1      -9.371  -3.043 122.914  0.00  0.00    +0.039 C 
ATOM     10  C   LIG A   1      -6.747  -2.562 126.848  0.00  0.00    +0.005 C 
ATOM     11  C   LIG A   1      -6.175  -1.588 125.775  0.00  0.00    +0.005 C 
ATOM     12  C   LIG A   1      -6.970  -1.434 124.493  0.00  0.00    +0.008 C 
ATOM     13  C   LIG A   1      -8.496  -1.490 124.720  0.00  0.00    +0.015 C 
ATOM     14  C   LIG A   1      -8.954  -1.600 126.185  0.00  0.00    +0.019 C 
ATOM     15  C   LIG A   1      -6.153  -2.762 130.839  0.00  0.00    -0.032 C 
ATOM     16  C   LIG A   1      -6.756  -1.561 131.608  0.00  0.00    +0.011 C 
ATOM     17  C   LIG A   1      -6.341  -3.965 131.790  0.00  0.00    +0.011 C 
ATOM     18  C   LIG A   1      -4.628  -2.519 130.692  0.00  0.00    +0.007 C 
ATOM     19  C   LIG A   1      -4.299  -1.387 129.731  0.00  0.00    +0.001 C 
ATOM     20  C   LIG A   1      -4.917  -1.599 128.359  0.00  0.00    +0.007 C 
ENDROOT
TORSDOF 0
ENDMDL
MODEL 3
REMARK VINA RESULT:      -7.8      8.071     10.475
REMARK  Name = NuBBE_2351
REMARK  4 active torsions:
REMARK  status: ('A' for Active; 'I' for Inactive)
REMARK    1  A    between atoms: C_1  and  C_2
REMARK    2  A    between atoms: C_9  and  C_10
REMARK    3  A    between atoms: C_17  and  C_18
REMARK    4  A    between atoms: C_17  and  C_19
REMARK                            x       y       z     vdW  Elec       q    Type
REMARK                         _______ _______ _______ _____ _____    ______ ____
ROOT
ATOM      1  C   LIG A   1     -10.878   3.765 130.739  0.00  0.00    +0.012 C 
ATOM      2  C   LIG A   1      -9.888   4.810 131.317  0.00  0.00    -0.025 C 
ATOM      3  C   LIG A   1      -8.500   4.650 130.630  0.00  0.00    +0.001 C 
ATOM      4  C   LIG A   1      -8.638   4.905 129.110  0.00  0.00    +0.005 C 
ATOM      5  C   LIG A   1      -9.497   6.137 128.687  0.00  0.00    +0.012 C 
ATOM      6  C   LIG A   1     -10.694   6.624 129.557  0.00  0.00    -0.007 C 
ATOM      7  C   LIG A   1     -10.985   8.116 129.178  0.00  0.00    -0.021 C 
ATOM      8  C   LIG A   1     -12.314   8.403 129.271  0.00  0.00    -0.073 C 
ATOM      9  C   LIG A   1     -13.145   9.577 128.934  0.00  0.00    +0.039 C 
ATOM     10  C   LIG A   1     -10.426   6.310 131.064  0.00  0.00    +0.005 C 
ATOM     11  C   LIG A   1     -11.659   6.571 131.980  0.00  0.00    +0.005 C 
ATOM     12  C   LIG A   1     -12.762   7.445 131.416  0.00  0.00    +0.008 C 
ATOM     13  C   LIG A   1     -12.982   7.237 129.903  0.00  0.00    +0.015 C 
ATOM     14  C   LIG A   1     -12.129   6.138 129.246  0.00  0.00    +0.019 C 
ATOM     15  C   LIG A   1      -7.695   3.334 131.072  0.00  0.00    -0.032 C 
ATOM     16  C   LIG A   1      -8.285   1.960 130.669  0.00  0.00    +0.011 C 
ATOM     17  C   LIG A   1      -6.264   3.327 130.489  0.00  0.00    +0.011 C 
ATOM     18  C   LIG A   1      -7.566   3.364 132.618  0.00  0.00    +0.007 C 
ATOM     19  C   LIG A   1      -8.913   3.430 133.322  0.00  0.00    +0.001 C 
ATOM     20  C   LIG A   1      -9.750   4.608 132.855  0.00  0.00    +0.007 C 
ENDROOT
TORSDOF 0
ENDMDL
MODEL 4
REMARK VINA RESULT:      -7.5      1.702      5.780
REMARK  Name = NuBBE_2351
REMARK  4 active torsions:
REMARK  status: ('A' for Active; 'I' for Inactive)
REMARK    1  A    between atoms: C_1  and  C_2
REMARK    2  A    between atoms: C_9  and  C_10
REMARK    3  A    between atoms: C_17  and  C_18
REMARK    4  A    between atoms: C_17  and  C_19
REMARK                            x       y       z     vdW  Elec       q    Type
REMARK                         _______ _______ _______ _____ _____    ______ ____
ROOT
ATOM      1  C   LIG A   1      -6.524  -2.104 126.278  0.00  0.00    +0.012 C 
ATOM      2  C   LIG A   1      -7.941  -1.734 126.788  0.00  0.00    -0.025 C 
ATOM      3  C   LIG A   1      -7.850  -1.215 128.254  0.00  0.00    +0.001 C 
ATOM      4  C   LIG A   1      -6.971   0.057 128.302  0.00  0.00    +0.005 C 
ATOM      5  C   LIG A   1      -7.228   1.123 127.192  0.00  0.00    +0.012 C 
ATOM      6  C   LIG A   1      -7.724   0.708 125.775  0.00  0.00    -0.007 C 
ATOM      7  C   LIG A   1      -8.376   1.968 125.108  0.00  0.00    -0.021 C 
ATOM      8  C   LIG A   1      -8.181   1.975 123.760  0.00  0.00    -0.073 C 
ATOM      9  C   LIG A   1      -8.465   2.941 122.679  0.00  0.00    +0.039 C 
ATOM     10  C   LIG A   1      -8.599  -0.583 125.867  0.00  0.00    +0.005 C 
ATOM     11  C   LIG A   1      -8.962  -1.187 124.478  0.00  0.00    +0.005 C 
ATOM     12  C   LIG A   1      -8.804  -0.282 123.272  0.00  0.00    +0.008 C 
ATOM     13  C   LIG A   1      -7.590   0.665 123.385  0.00  0.00    +0.015 C 
ATOM     14  C   LIG A   1      -6.707   0.480 124.632  0.00  0.00    +0.019 C 
ATOM     15  C   LIG A   1      -7.531  -2.356 129.336  0.00  0.00    -0.032 C 
ATOM     16  C   LIG A   1      -6.143  -3.041 129.272  0.00  0.00    +0.011 C 
ATOM     17  C   LIG A   1      -7.624  -1.807 130.777  0.00  0.00    +0.011 C 
ATOM     18  C   LIG A   1      -8.615  -3.456 129.187  0.00  0.00    +0.007 C 
ATOM     19  C   LIG A   1      -8.668  -4.046 127.786  0.00  0.00    +0.001 C 
ATOM     20  C   LIG A   1      -8.868  -2.983 126.720  0.00  0.00    +0.007 C 
ENDROOT
TORSDOF 0
ENDMDL
MODEL 5
REMARK VINA RESULT:      -7.4      1.105      2.696
REMARK  Name = NuBBE_2351
REMARK  4 active torsions:
REMARK  status: ('A' for Active; 'I' for Inactive)
REMARK    1  A    between atoms: C_1  and  C_2
REMARK    2  A    between atoms: C_9  and  C_10
REMARK    3  A    between atoms: C_17  and  C_18
REMARK    4  A    between atoms: C_17  and  C_19
REMARK                            x       y       z     vdW  Elec       q    Type
REMARK                         _______ _______ _______ _____ _____    ______ ____
ROOT
ATOM      1  C   LIG A   1      -6.029  -1.874 126.114  0.00  0.00    +0.012 C 
ATOM      2  C   LIG A   1      -7.473  -1.344 126.319  0.00  0.00    -0.025 C 
ATOM      3  C   LIG A   1      -8.473  -2.228 125.516  0.00  0.00    +0.001 C 
ATOM      4  C   LIG A   1      -8.414  -3.685 126.035  0.00  0.00    +0.005 C 
ATOM      5  C   LIG A   1      -8.395  -3.870 127.585  0.00  0.00    +0.012 C 
ATOM      6  C   LIG A   1      -7.751  -2.802 128.518  0.00  0.00    -0.007 C 
ATOM      7  C   LIG A   1      -8.347  -2.999 129.954  0.00  0.00    -0.021 C 
ATOM      8  C   LIG A   1      -7.432  -2.697 130.918  0.00  0.00    -0.073 C 
ATOM      9  C   LIG A   1      -7.408  -2.808 132.390  0.00  0.00    +0.039 C 
ATOM     10  C   LIG A   1      -7.880  -1.382 127.880  0.00  0.00    +0.005 C 
ATOM     11  C   LIG A   1      -7.080  -0.285 128.642  0.00  0.00    +0.005 C 
ATOM     12  C   LIG A   1      -6.647  -0.608 130.059  0.00  0.00    +0.008 C 
ATOM     13  C   LIG A   1      -6.256  -2.090 130.246  0.00  0.00    +0.015 C 
ATOM     14  C   LIG A   1      -6.281  -2.956 128.975  0.00  0.00    +0.019 C 
ATOM     15  C   LIG A   1      -8.401  -2.025 123.926  0.00  0.00    -0.032 C 
ATOM     16  C   LIG A   1      -7.105  -2.467 123.202  0.00  0.00    +0.011 C 
ATOM     17  C   LIG A   1      -9.529  -2.798 123.208  0.00  0.00    +0.011 C 
ATOM     18  C   LIG A   1      -8.617  -0.515 123.640  0.00  0.00    +0.007 C 
ATOM     19  C   LIG A   1      -7.598   0.371 124.340  0.00  0.00    +0.001 C 
ATOM     20  C   LIG A   1      -7.563   0.134 125.840  0.00  0.00    +0.007 C 
ENDROOT
TORSDOF 0
ENDMDL
MODEL 6
REMARK VINA RESULT:      -7.1      1.503      5.855
REMARK  Name = NuBBE_2351
REMARK  4 active torsions:
REMARK  status: ('A' for Active; 'I' for Inactive)
REMARK    1  A    between atoms: C_1  and  C_2
REMARK    2  A    between atoms: C_9  and  C_10
REMARK    3  A    between atoms: C_17  and  C_18
REMARK    4  A    between atoms: C_17  and  C_19
REMARK                            x       y       z     vdW  Elec       q    Type
REMARK                         _______ _______ _______ _____ _____    ______ ____
ROOT
ATOM      1  C   LIG A   1      -5.868  -2.234 128.083  0.00  0.00    +0.012 C 
ATOM      2  C   LIG A   1      -7.351  -2.107 128.523  0.00  0.00    -0.025 C 
ATOM      3  C   LIG A   1      -7.544  -0.794 129.338  0.00  0.00    +0.001 C 
ATOM      4  C   LIG A   1      -7.196   0.425 128.452  0.00  0.00    +0.005 C 
ATOM      5  C   LIG A   1      -7.758   0.410 126.996  0.00  0.00    +0.012 C 
ATOM      6  C   LIG A   1      -7.982  -0.928 126.232  0.00  0.00    -0.007 C 
ATOM      7  C   LIG A   1      -9.009  -0.655 125.079  0.00  0.00    -0.021 C 
ATOM      8  C   LIG A   1      -8.749  -1.428 123.987  0.00  0.00    -0.073 C 
ATOM      9  C   LIG A   1      -9.301  -1.504 122.620  0.00  0.00    +0.039 C 
ATOM     10  C   LIG A   1      -8.327  -2.072 127.238  0.00  0.00    +0.005 C 
ATOM     11  C   LIG A   1      -8.360  -3.485 126.584  0.00  0.00    +0.005 C 
ATOM     12  C   LIG A   1      -8.472  -3.541 125.072  0.00  0.00    +0.008 C 
ATOM     13  C   LIG A   1      -7.698  -2.405 124.369  0.00  0.00    +0.015 C 
ATOM     14  C   LIG A   1      -6.886  -1.476 125.288  0.00  0.00    +0.019 C 
ATOM     15  C   LIG A   1      -6.895  -0.830 130.805  0.00  0.00    -0.032 C 
ATOM     16  C   LIG A   1      -5.352  -0.913 130.908  0.00  0.00    +0.011 C 
ATOM     17  C   LIG A   1      -7.270   0.430 131.617  0.00  0.00    +0.011 C 
ATOM     18  C   LIG A   1      -7.490  -2.056 131.548  0.00  0.00    +0.007 C 
ATOM     19  C   LIG A   1      -7.240  -3.367 130.819  0.00  0.00    +0.001 C 
ATOM     20  C   LIG A   1      -7.750  -3.338 129.389  0.00  0.00    +0.007 C 
ENDROOT
TORSDOF 0
ENDMDL
MODEL 7
REMARK VINA RESULT:      -6.9      1.998      2.698
REMARK  Name = NuBBE_2351
REMARK  4 active torsions:
REMARK  status: ('A' for Active; 'I' for Inactive)
REMARK    1  A    between atoms: C_1  and  C_2
REMARK    2  A    between atoms: C_9  and  C_10
REMARK    3  A    between atoms: C_17  and  C_18
REMARK    4  A    between atoms: C_17  and  C_19
REMARK                            x       y       z     vdW  Elec       q    Type
REMARK                         _______ _______ _______ _____ _____    ______ ____
ROOT
ATOM      1  C   LIG A   1      -9.027   0.733 126.770  0.00  0.00    +0.012 C 
ATOM      2  C   LIG A   1      -8.107   0.001 125.757  0.00  0.00    -0.025 C 
ATOM      3  C   LIG A   1      -6.962   0.955 125.307  0.00  0.00    +0.001 C 
ATOM      4  C   LIG A   1      -6.107   1.358 126.533  0.00  0.00    +0.005 C 
ATOM      5  C   LIG A   1      -5.724   0.211 127.520  0.00  0.00    +0.012 C 
ATOM      6  C   LIG A   1      -6.657  -1.017 127.732  0.00  0.00    -0.007 C 
ATOM      7  C   LIG A   1      -5.790  -2.181 128.323  0.00  0.00    -0.021 C 
ATOM      8  C   LIG A   1      -6.514  -2.958 129.177  0.00  0.00    -0.073 C 
ATOM      9  C   LIG A   1      -6.192  -4.083 130.078  0.00  0.00    +0.039 C 
ATOM     10  C   LIG A   1      -7.457  -1.317 126.424  0.00  0.00    +0.005 C 
ATOM     11  C   LIG A   1      -8.566  -2.395 126.609  0.00  0.00    +0.005 C 
ATOM     12  C   LIG A   1      -8.468  -3.280 127.836  0.00  0.00    +0.008 C 
ATOM     13  C   LIG A   1      -7.934  -2.532 129.076  0.00  0.00    +0.015 C 
ATOM     14  C   LIG A   1      -7.678  -1.026 128.894  0.00  0.00    +0.019 C 
ATOM     15  C   LIG A   1      -7.437   2.141 124.337  0.00  0.00    -0.032 C 
ATOM     16  C   LIG A   1      -8.384   3.216 124.925  0.00  0.00    +0.011 C 
ATOM     17  C   LIG A   1      -6.232   2.942 123.794  0.00  0.00    +0.011 C 
ATOM     18  C   LIG A   1      -8.148   1.491 123.121  0.00  0.00    +0.007 C 
ATOM     19  C   LIG A   1      -9.330   0.622 123.523  0.00  0.00    +0.001 C 
ATOM     20  C   LIG A   1      -8.941  -0.453 124.523  0.00  0.00    +0.007 C 
ENDROOT
TORSDOF 0
ENDMDL
MODEL 8
REMARK VINA RESULT:      -6.9      2.987      5.468
REMARK  Name = NuBBE_2351
REMARK  4 active torsions:
REMARK  status: ('A' for Active; 'I' for Inactive)
REMARK    1  A    between atoms: C_1  and  C_2
REMARK    2  A    between atoms: C_9  and  C_10
REMARK    3  A    between atoms: C_17  and  C_18
REMARK    4  A    between atoms: C_17  and  C_19
REMARK                            x       y       z     vdW  Elec       q    Type
REMARK                         _______ _______ _______ _____ _____    ______ ____
ROOT
ATOM      1  C   LIG A   1      -7.837  -0.482 126.767  0.00  0.00    +0.012 C 
ATOM      2  C   LIG A   1      -7.119  -0.592 125.396  0.00  0.00    -0.025 C 
ATOM      3  C   LIG A   1      -8.133  -1.064 124.312  0.00  0.00    +0.001 C 
ATOM      4  C   LIG A   1      -9.274  -0.027 124.179  0.00  0.00    +0.005 C 
ATOM      5  C   LIG A   1      -8.849   1.474 124.141  0.00  0.00    +0.012 C 
ATOM      6  C   LIG A   1      -7.579   1.972 124.893  0.00  0.00    -0.007 C 
ATOM      7  C   LIG A   1      -7.142   3.331 124.246  0.00  0.00    -0.021 C 
ATOM      8  C   LIG A   1      -6.590   4.168 125.170  0.00  0.00    -0.073 C 
ATOM      9  C   LIG A   1      -6.126   5.569 125.149  0.00  0.00    +0.039 C 
ATOM     10  C   LIG A   1      -6.509   0.835 124.954  0.00  0.00    +0.005 C 
ATOM     11  C   LIG A   1      -5.294   1.175 125.867  0.00  0.00    +0.005 C 
ATOM     12  C   LIG A   1      -5.090   2.634 126.226  0.00  0.00    +0.008 C 
ATOM     13  C   LIG A   1      -6.417   3.396 126.427  0.00  0.00    +0.015 C 
ATOM     14  C   LIG A   1      -7.699   2.551 126.322  0.00  0.00    +0.019 C 
ATOM     15  C   LIG A   1      -8.567  -2.603 124.443  0.00  0.00    -0.032 C 
ATOM     16  C   LIG A   1      -9.389  -3.015 125.689  0.00  0.00    +0.011 C 
ATOM     17  C   LIG A   1      -9.434  -3.048 123.243  0.00  0.00    +0.011 C 
ATOM     18  C   LIG A   1      -7.271  -3.456 124.421  0.00  0.00    +0.007 C 
ATOM     19  C   LIG A   1      -6.297  -3.078 125.527  0.00  0.00    +0.001 C 
ATOM     20  C   LIG A   1      -5.939  -1.602 125.499  0.00  0.00    +0.007 C 
ENDROOT
TORSDOF 0
ENDMDL
MODEL 9
REMARK VINA RESULT:      -6.8      1.199      2.529
REMARK  Name = NuBBE_2351
REMARK  4 active torsions:
REMARK  status: ('A' for Active; 'I' for Inactive)
REMARK    1  A    between atoms: C_1  and  C_2
REMARK    2  A    between atoms: C_9  and  C_10
REMARK    3  A    between atoms: C_17  and  C_18
REMARK    4  A    between atoms: C_17  and  C_19
REMARK                            x       y       z     vdW  Elec       q    Type
REMARK                         _______ _______ _______ _____ _____    ______ ____
ROOT
ATOM      1  C   LIG A   1      -7.854  -3.011 126.072  0.00  0.00    +0.012 C 
ATOM      2  C   LIG A   1      -6.787  -1.901 125.884  0.00  0.00    -0.025 C 
ATOM      3  C   LIG A   1      -7.452  -0.639 125.259  0.00  0.00    +0.001 C 
ATOM      4  C   LIG A   1      -8.547  -0.101 126.211  0.00  0.00    +0.005 C 
ATOM      5  C   LIG A   1      -8.177  -0.026 127.725  0.00  0.00    +0.012 C 
ATOM      6  C   LIG A   1      -7.176  -1.036 128.362  0.00  0.00    -0.007 C 
ATOM      7  C   LIG A   1      -6.625  -0.396 129.682  0.00  0.00    -0.021 C 
ATOM      8  C   LIG A   1      -6.373  -1.344 130.628  0.00  0.00    -0.073 C 
ATOM      9  C   LIG A   1      -5.967  -1.307 132.047  0.00  0.00    +0.039 C 
ATOM     10  C   LIG A   1      -6.127  -1.496 127.300  0.00  0.00    +0.005 C 
ATOM     11  C   LIG A   1      -5.218  -2.662 127.790  0.00  0.00    +0.005 C 
ATOM     12  C   LIG A   1      -5.167  -2.913 129.285  0.00  0.00    +0.008 C 
ATOM     13  C   LIG A   1      -6.523  -2.673 129.982  0.00  0.00    +0.015 C 
ATOM     14  C   LIG A   1      -7.700  -2.315 129.057  0.00  0.00    +0.019 C 
ATOM     15  C   LIG A   1      -7.855  -0.803 123.715  0.00  0.00    -0.032 C 
ATOM     16  C   LIG A   1      -8.971  -1.819 123.367  0.00  0.00    +0.011 C 
ATOM     17  C   LIG A   1      -8.347   0.533 123.115  0.00  0.00    +0.011 C 
ATOM     18  C   LIG A   1      -6.574  -1.216 122.941  0.00  0.00    +0.007 C 
ATOM     19  C   LIG A   1      -5.951  -2.498 123.472  0.00  0.00    +0.001 C 
ATOM     20  C   LIG A   1      -5.647  -2.418 124.959  0.00  0.00    +0.007 C 
ENDROOT
TORSDOF 0
ENDMDL
