MODEL 1
REMARK VINA RESULT:      -9.3      0.000      0.000
REMARK  Name = NuBBE_1174
REMARK  19 active torsions:
REMARK  status: ('A' for Active; 'I' for Inactive)
REMARK    1  A    between atoms: C_1  and  C_2
REMARK    2  A    between atoms: C_2  and  C_58
REMARK    3  A    between atoms: C_5  and  C_39
REMARK    4  A    between atoms: C_8  and  C_38
REMARK    5  A    between atoms: C_9  and  C_37
REMARK    6  A    between atoms: C_11  and  O_36
REMARK    7  A    between atoms: C_15  and  C_16
REMARK    8  A    between atoms: C_15  and  C_35
REMARK    9  A    between atoms: C_16  and  O_17
REMARK   10  A    between atoms: C_18  and  O_34
REMARK   11  A    between atoms: C_20  and  O_33
REMARK   12  A    between atoms: C_23  and  C_32
REMARK   13  A    between atoms: C_39  and  O_40
REMARK   14  A    between atoms: O_40  and  C_41
REMARK   15  A    between atoms: C_43  and  O_45
REMARK   16  A    between atoms: C_46  and  O_48
REMARK   17  A    between atoms: C_49  and  O_51
REMARK   18  A    between atoms: C_52  and  C_54
REMARK   19  A    between atoms: C_54  and  O_55
REMARK                            x       y       z     vdW  Elec       q    Type
REMARK                         _______ _______ _______ _____ _____    ______ ____
ROOT
ATOM      1  C   LIG A   1      -7.160   5.015 135.576  0.00  0.00    +0.011 C 
ATOM      2  C   LIG A   1      -5.977   4.432 134.777  0.00  0.00    -0.034 C 
ATOM      3  C   LIG A   1      -5.285   5.541 133.967  0.00  0.00    +0.007 C 
ATOM      4  C   LIG A   1      -6.156   6.083 132.839  0.00  0.00    +0.019 C 
ATOM      5  C   LIG A   1      -6.810   4.986 131.947  0.00  0.00    +0.074 C 
ATOM      6  C   LIG A   1      -6.349   5.230 130.492  0.00  0.00    +0.019 C 
ATOM      7  C   LIG A   1      -6.949   4.240 129.507  0.00  0.00    +0.012 C 
ATOM      8  C   LIG A   1      -6.808   2.723 129.869  0.00  0.00    -0.005 C 
ATOM      9  C   LIG A   1      -7.977   1.872 129.135  0.00  0.00    -0.017 C 
ATOM     10  C   LIG A   1      -8.099   2.158 127.605  0.00  0.00    +0.039 C 
ATOM     11  C   LIG A   1      -7.527   1.155 126.609  0.00  0.00    +0.119 C 
ATOM     12  C   LIG A   1      -7.895  -0.296 126.975  0.00  0.00    +0.034 C 
ATOM     13  C   LIG A   1      -7.697  -1.354 125.805  0.00  0.00    +0.025 C 
ATOM     14  C   LIG A   1      -8.253  -2.720 126.301  0.00  0.00    +0.151 C 
ATOM     15  C   LIG A   1      -7.700  -3.171 127.660  0.00  0.00    +0.144 C 
ATOM     16  C   LIG A   1      -7.931  -2.119 128.742  0.00  0.00    +0.041 C 
ATOM     17  C   LIG A   1      -7.353  -0.704 128.405  0.00  0.00    -0.020 C 
ATOM     18  C   LIG A   1      -7.946   0.331 129.471  0.00  0.00    +0.006 C 
ATOM     19  C   LIG A   1      -7.594   0.052 130.959  0.00  0.00    +0.031 C 
ATOM     20  C   LIG A   1      -7.196   1.222 131.819  0.00  0.00    -0.026 C 
ATOM     21  C   LIG A   1      -6.843   2.451 131.386  0.00  0.00    -0.063 C 
ATOM     22  C   LIG A   1      -6.330   3.558 132.332  0.00  0.00    +0.033 C 
ATOM     23  C   LIG A   1      -6.470   3.283 133.852  0.00  0.00    +0.015 C 
ATOM     24  C   LIG A   1      -5.817  -0.827 128.500  0.00  0.00    +0.012 C 
ATOM     25  C   LIG A   1      -6.243  -1.487 125.298  0.00  0.00    +0.016 C 
ATOM     26  C   LIG A   1      -9.374   2.369 129.719  0.00  0.00    +0.012 C 
ATOM     27  C   LIG A   1      -5.375   2.327 129.443  0.00  0.00    +0.016 C 
ATOM     28  C   LIG A   1      -4.965   3.877 135.801  0.00  0.00    +0.011 C 
ENDROOT
BRANCH  15  29
ATOM     29  O   LIG A   1      -8.369  -4.378 128.053  0.00  0.00    -0.389 OA
ATOM     30  H   LIG A   1      -7.740  -4.862 128.623  0.00  0.00    +0.210 HD
ENDBRANCH  15  29
BRANCH  14  31
ATOM     31  O   LIG A   1      -8.032  -3.773 125.346  0.00  0.00    -0.389 OA
ATOM     32  H   LIG A   1      -7.424  -4.421 125.743  0.00  0.00    +0.210 HD
ENDBRANCH  14  31
BRANCH  11  33
ATOM     33  O   LIG A   1      -6.135   1.345 126.436  0.00  0.00    -0.392 OA
ATOM     34  H   LIG A   1      -5.737   1.453 127.317  0.00  0.00    +0.210 HD
ENDBRANCH  11  33
BRANCH   5  35
ATOM     35  C   LIG A   1      -8.348   5.155 132.061  0.00  0.00    +0.316 C 
ATOM     36  O   LIG A   1      -9.093   4.483 132.746  0.00  0.00    -0.250 OA
BRANCH  35  37
ATOM     37  O   LIG A   1      -8.732   6.241 131.330  0.00  0.00    -0.432 OA
BRANCH  37  38
ATOM     38  C   LIG A   1      -9.943   6.132 130.554  0.00  0.00    +0.342 C 
ATOM     39  C   LIG A   1     -11.016   6.868 131.395  0.00  0.00    +0.214 C 
ATOM     40  C   LIG A   1     -12.255   7.245 130.580  0.00  0.00    +0.180 C 
ATOM     41  C   LIG A   1     -11.885   7.852 129.227  0.00  0.00    +0.177 C 
ATOM     42  C   LIG A   1     -10.937   6.887 128.509  0.00  0.00    +0.179 C 
ATOM     43  O   LIG A   1      -9.742   6.786 129.300  0.00  0.00    -0.331 OA
BRANCH  39  44
ATOM     44  O   LIG A   1     -11.427   6.089 132.530  0.00  0.00    -0.383 OA
ATOM     45  H   LIG A   1     -10.731   5.419 132.676  0.00  0.00    +0.210 HD
ENDBRANCH  39  44
BRANCH  40  46
ATOM     46  O   LIG A   1     -13.058   8.187 131.324  0.00  0.00    -0.386 OA
ATOM     47  H   LIG A   1     -12.459   8.762 131.835  0.00  0.00    +0.210 HD
ENDBRANCH  40  46
BRANCH  41  48
ATOM     48  O   LIG A   1     -13.071   8.112 128.480  0.00  0.00    -0.387 OA
ATOM     49  H   LIG A   1     -13.112   9.081 128.352  0.00  0.00    +0.210 HD
ENDBRANCH  41  48
BRANCH  42  50
ATOM     50  C   LIG A   1     -10.574   7.410 127.114  0.00  0.00    +0.190 C 
BRANCH  50  51
ATOM     51  O   LIG A   1     -11.455   6.861 126.138  0.00  0.00    -0.392 OA
ATOM     52  H   LIG A   1     -12.127   7.535 125.943  0.00  0.00    +0.209 HD
ENDBRANCH  50  51
ENDBRANCH  42  50
ENDBRANCH  37  38
ENDBRANCH  35  37
ENDBRANCH   5  35
BRANCH  13  53
ATOM     53  C   LIG A   1      -8.534  -0.961 124.542  0.00  0.00    +0.165 C 
BRANCH  53  54
ATOM     54  O   LIG A   1      -9.669  -1.804 124.373  0.00  0.00    -0.394 OA
ATOM     55  H   LIG A   1     -10.078  -1.560 123.522  0.00  0.00    +0.209 HD
ENDBRANCH  53  54
ENDBRANCH  13  53
TORSDOF 13
ENDMDL
MODEL 2
REMARK VINA RESULT:      -9.1      4.177      9.787
REMARK  Name = NuBBE_1174
REMARK  19 active torsions:
REMARK  status: ('A' for Active; 'I' for Inactive)
REMARK    1  A    between atoms: C_1  and  C_2
REMARK    2  A    between atoms: C_2  and  C_58
REMARK    3  A    between atoms: C_5  and  C_39
REMARK    4  A    between atoms: C_8  and  C_38
REMARK    5  A    between atoms: C_9  and  C_37
REMARK    6  A    between atoms: C_11  and  O_36
REMARK    7  A    between atoms: C_15  and  C_16
REMARK    8  A    between atoms: C_15  and  C_35
REMARK    9  A    between atoms: C_16  and  O_17
REMARK   10  A    between atoms: C_18  and  O_34
REMARK   11  A    between atoms: C_20  and  O_33
REMARK   12  A    between atoms: C_23  and  C_32
REMARK   13  A    between atoms: C_39  and  O_40
REMARK   14  A    between atoms: O_40  and  C_41
REMARK   15  A    between atoms: C_43  and  O_45
REMARK   16  A    between atoms: C_46  and  O_48
REMARK   17  A    between atoms: C_49  and  O_51
REMARK   18  A    between atoms: C_52  and  C_54
REMARK   19  A    between atoms: C_54  and  O_55
REMARK                            x       y       z     vdW  Elec       q    Type
REMARK                         _______ _______ _______ _____ _____    ______ ____
ROOT
ATOM      1  C   LIG A   1      -3.896   3.791 125.874  0.00  0.00    +0.011 C 
ATOM      2  C   LIG A   1      -2.868   3.350 126.937  0.00  0.00    -0.034 C 
ATOM      3  C   LIG A   1      -3.323   2.042 127.605  0.00  0.00    +0.007 C 
ATOM      4  C   LIG A   1      -4.569   2.218 128.465  0.00  0.00    +0.019 C 
ATOM      5  C   LIG A   1      -4.507   3.423 129.450  0.00  0.00    +0.074 C 
ATOM      6  C   LIG A   1      -4.698   2.869 130.880  0.00  0.00    +0.019 C 
ATOM      7  C   LIG A   1      -4.693   3.957 131.942  0.00  0.00    +0.012 C 
ATOM      8  C   LIG A   1      -3.489   4.957 131.910  0.00  0.00    -0.005 C 
ATOM      9  C   LIG A   1      -3.915   6.352 132.618  0.00  0.00    -0.017 C 
ATOM     10  C   LIG A   1      -4.561   6.172 134.027  0.00  0.00    +0.039 C 
ATOM     11  C   LIG A   1      -3.727   6.451 135.273  0.00  0.00    +0.119 C 
ATOM     12  C   LIG A   1      -2.923   7.760 135.150  0.00  0.00    +0.034 C 
ATOM     13  C   LIG A   1      -2.357   8.331 136.521  0.00  0.00    +0.025 C 
ATOM     14  C   LIG A   1      -1.710   9.716 136.227  0.00  0.00    +0.151 C 
ATOM     15  C   LIG A   1      -0.692   9.706 135.079  0.00  0.00    +0.144 C 
ATOM     16  C   LIG A   1      -1.299   9.158 133.789  0.00  0.00    +0.041 C 
ATOM     17  C   LIG A   1      -1.924   7.729 133.922  0.00  0.00    -0.020 C 
ATOM     18  C   LIG A   1      -2.777   7.446 132.599  0.00  0.00    +0.006 C 
ATOM     19  C   LIG A   1      -1.985   7.459 131.262  0.00  0.00    +0.031 C 
ATOM     20  C   LIG A   1      -2.283   6.379 130.256  0.00  0.00    -0.026 C 
ATOM     21  C   LIG A   1      -2.964   5.236 130.487  0.00  0.00    -0.063 C 
ATOM     22  C   LIG A   1      -3.119   4.124 129.428  0.00  0.00    +0.033 C 
ATOM     23  C   LIG A   1      -2.666   4.478 127.986  0.00  0.00    +0.015 C 
ATOM     24  C   LIG A   1      -0.742   6.749 134.078  0.00  0.00    +0.012 C 
ATOM     25  C   LIG A   1      -1.370   7.391 137.250  0.00  0.00    +0.016 C 
ATOM     26  C   LIG A   1      -5.086   6.995 131.750  0.00  0.00    +0.012 C 
ATOM     27  C   LIG A   1      -2.321   4.223 132.609  0.00  0.00    +0.016 C 
ATOM     28  C   LIG A   1      -1.539   3.081 126.200  0.00  0.00    +0.011 C 
ENDROOT
BRANCH  15  29
ATOM     29  O   LIG A   1      -0.257  11.052 134.836  0.00  0.00    -0.389 OA
ATOM     30  H   LIG A   1       0.012  11.409 135.705  0.00  0.00    +0.210 HD
ENDBRANCH  15  29
BRANCH  14  31
ATOM     31  O   LIG A   1      -1.079  10.276 137.392  0.00  0.00    -0.389 OA
ATOM     32  H   LIG A   1      -1.475  11.148 137.563  0.00  0.00    +0.210 HD
ENDBRANCH  14  31
BRANCH  11  33
ATOM     33  O   LIG A   1      -2.920   5.337 135.607  0.00  0.00    -0.392 OA
ATOM     34  H   LIG A   1      -2.616   4.930 134.777  0.00  0.00    +0.210 HD
ENDBRANCH  11  33
BRANCH   5  35
ATOM     35  C   LIG A   1      -5.671   4.381 129.082  0.00  0.00    +0.316 C 
ATOM     36  O   LIG A   1      -5.606   5.328 128.324  0.00  0.00    -0.250 OA
BRANCH  35  37
ATOM     37  O   LIG A   1      -6.815   3.941 129.681  0.00  0.00    -0.432 OA
BRANCH  37  38
ATOM     38  C   LIG A   1      -7.685   4.930 130.270  0.00  0.00    +0.342 C 
ATOM     39  C   LIG A   1      -9.001   4.829 129.457  0.00  0.00    +0.214 C 
ATOM     40  C   LIG A   1     -10.192   5.472 130.170  0.00  0.00    +0.180 C 
ATOM     41  C   LIG A   1     -10.248   5.086 131.648  0.00  0.00    +0.177 C 
ATOM     42  C   LIG A   1      -8.893   5.408 132.283  0.00  0.00    +0.179 C 
ATOM     43  O   LIG A   1      -7.906   4.586 131.639  0.00  0.00    -0.331 OA
BRANCH  39  44
ATOM     44  O   LIG A   1      -8.865   5.421 128.154  0.00  0.00    -0.383 OA
ATOM     45  H   LIG A   1      -8.070   5.025 127.748  0.00  0.00    +0.210 HD
ENDBRANCH  39  44
BRANCH  40  46
ATOM     46  O   LIG A   1     -11.419   5.073 129.523  0.00  0.00    -0.386 OA
ATOM     47  H   LIG A   1     -11.203   4.410 128.842  0.00  0.00    +0.210 HD
ENDBRANCH  40  46
BRANCH  41  48
ATOM     48  O   LIG A   1     -11.327   5.770 132.280  0.00  0.00    -0.387 OA
ATOM     49  H   LIG A   1     -12.045   5.830 131.618  0.00  0.00    +0.210 HD
ENDBRANCH  41  48
BRANCH  42  50
ATOM     50  C   LIG A   1      -8.902   5.099 133.785  0.00  0.00    +0.190 C 
BRANCH  50  51
ATOM     51  O   LIG A   1      -9.850   4.073 134.070  0.00  0.00    -0.392 OA
ATOM     52  H   LIG A   1     -10.255   3.812 133.226  0.00  0.00    +0.209 HD
ENDBRANCH  50  51
ENDBRANCH  42  50
ENDBRANCH  37  38
ENDBRANCH  35  37
ENDBRANCH   5  35
BRANCH  13  53
ATOM     53  C   LIG A   1      -3.512   8.585 137.546  0.00  0.00    +0.165 C 
BRANCH  53  54
ATOM     54  O   LIG A   1      -4.079   9.882 137.399  0.00  0.00    -0.394 OA
ATOM     55  H   LIG A   1      -4.630   9.861 136.595  0.00  0.00    +0.209 HD
ENDBRANCH  53  54
ENDBRANCH  13  53
TORSDOF 13
ENDMDL
MODEL 3
REMARK VINA RESULT:      -8.7      5.111      8.792
REMARK  Name = NuBBE_1174
REMARK  19 active torsions:
REMARK  status: ('A' for Active; 'I' for Inactive)
REMARK    1  A    between atoms: C_1  and  C_2
REMARK    2  A    between atoms: C_2  and  C_58
REMARK    3  A    between atoms: C_5  and  C_39
REMARK    4  A    between atoms: C_8  and  C_38
REMARK    5  A    between atoms: C_9  and  C_37
REMARK    6  A    between atoms: C_11  and  O_36
REMARK    7  A    between atoms: C_15  and  C_16
REMARK    8  A    between atoms: C_15  and  C_35
REMARK    9  A    between atoms: C_16  and  O_17
REMARK   10  A    between atoms: C_18  and  O_34
REMARK   11  A    between atoms: C_20  and  O_33
REMARK   12  A    between atoms: C_23  and  C_32
REMARK   13  A    between atoms: C_39  and  O_40
REMARK   14  A    between atoms: O_40  and  C_41
REMARK   15  A    between atoms: C_43  and  O_45
REMARK   16  A    between atoms: C_46  and  O_48
REMARK   17  A    between atoms: C_49  and  O_51
REMARK   18  A    between atoms: C_52  and  C_54
REMARK   19  A    between atoms: C_54  and  O_55
REMARK                            x       y       z     vdW  Elec       q    Type
REMARK                         _______ _______ _______ _____ _____    ______ ____
ROOT
ATOM      1  C   LIG A   1      -6.479  -1.407 123.268  0.00  0.00    +0.011 C 
ATOM      2  C   LIG A   1      -6.027  -2.628 124.095  0.00  0.00    -0.034 C 
ATOM      3  C   LIG A   1      -7.172  -3.649 124.205  0.00  0.00    +0.007 C 
ATOM      4  C   LIG A   1      -8.336  -3.144 125.050  0.00  0.00    +0.019 C 
ATOM      5  C   LIG A   1      -7.919  -2.536 126.423  0.00  0.00    +0.074 C 
ATOM      6  C   LIG A   1      -8.641  -3.338 127.528  0.00  0.00    +0.019 C 
ATOM      7  C   LIG A   1      -8.344  -2.818 128.926  0.00  0.00    +0.012 C 
ATOM      8  C   LIG A   1      -6.834  -2.632 129.295  0.00  0.00    -0.005 C 
ATOM      9  C   LIG A   1      -6.689  -1.532 130.478  0.00  0.00    -0.017 C 
ATOM     10  C   LIG A   1      -7.620  -1.796 131.702  0.00  0.00    +0.039 C 
ATOM     11  C   LIG A   1      -7.032  -2.406 132.971  0.00  0.00    +0.119 C 
ATOM     12  C   LIG A   1      -5.701  -1.739 133.369  0.00  0.00    +0.034 C 
ATOM     13  C   LIG A   1      -5.231  -2.018 134.861  0.00  0.00    +0.025 C 
ATOM     14  C   LIG A   1      -3.963  -1.156 135.128  0.00  0.00    +0.151 C 
ATOM     15  C   LIG A   1      -2.857  -1.319 134.077  0.00  0.00    +0.144 C 
ATOM     16  C   LIG A   1      -3.368  -1.026 132.668  0.00  0.00    +0.041 C 
ATOM     17  C   LIG A   1      -4.605  -1.883 132.236  0.00  0.00    -0.020 C 
ATOM     18  C   LIG A   1      -5.194  -1.243 130.894  0.00  0.00    +0.006 C 
ATOM     19  C   LIG A   1      -4.231  -1.210 129.675  0.00  0.00    +0.031 C 
ATOM     20  C   LIG A   1      -4.787  -1.591 128.328  0.00  0.00    -0.026 C 
ATOM     21  C   LIG A   1      -5.958  -2.223 128.095  0.00  0.00    -0.063 C 
ATOM     22  C   LIG A   1      -6.395  -2.686 126.688  0.00  0.00    +0.033 C 
ATOM     23  C   LIG A   1      -5.540  -2.173 125.499  0.00  0.00    +0.015 C 
ATOM     24  C   LIG A   1      -4.085  -3.320 132.021  0.00  0.00    +0.012 C 
ATOM     25  C   LIG A   1      -4.980  -3.508 135.188  0.00  0.00    +0.016 C 
ATOM     26  C   LIG A   1      -7.210  -0.139 129.907  0.00  0.00    +0.012 C 
ATOM     27  C   LIG A   1      -6.324  -4.042 129.676  0.00  0.00    +0.016 C 
ATOM     28  C   LIG A   1      -4.862  -3.289 123.329  0.00  0.00    +0.011 C 
ENDROOT
BRANCH  15  29
ATOM     29  O   LIG A   1      -1.799  -0.395 134.374  0.00  0.00    -0.389 OA
ATOM     30  H   LIG A   1      -1.008  -0.940 134.556  0.00  0.00    +0.210 HD
ENDBRANCH  15  29
BRANCH  14  31
ATOM     31  O   LIG A   1      -3.399  -1.411 136.427  0.00  0.00    -0.389 OA
ATOM     32  H   LIG A   1      -2.810  -0.671 136.654  0.00  0.00    +0.210 HD
ENDBRANCH  14  31
BRANCH  11  33
ATOM     33  O   LIG A   1      -6.935  -3.813 132.863  0.00  0.00    -0.392 OA
ATOM     34  H   LIG A   1      -6.071  -4.081 133.221  0.00  0.00    +0.210 HD
ENDBRANCH  11  33
BRANCH   5  35
ATOM     35  C   LIG A   1      -8.389  -1.057 126.433  0.00  0.00    +0.316 C 
ATOM     36  O   LIG A   1      -9.541  -0.672 126.466  0.00  0.00    -0.250 OA
BRANCH  35  37
ATOM     37  O   LIG A   1      -7.295  -0.244 126.485  0.00  0.00    -0.432 OA
BRANCH  37  38
ATOM     38  C   LIG A   1      -7.464   1.132 126.084  0.00  0.00    +0.342 C 
ATOM     39  C   LIG A   1      -6.074   1.780 126.308  0.00  0.00    +0.214 C 
ATOM     40  C   LIG A   1      -5.906   3.102 125.557  0.00  0.00    +0.180 C 
ATOM     41  C   LIG A   1      -6.415   3.011 124.119  0.00  0.00    +0.177 C 
ATOM     42  C   LIG A   1      -7.854   2.489 124.149  0.00  0.00    +0.179 C 
ATOM     43  O   LIG A   1      -7.823   1.163 124.702  0.00  0.00    -0.331 OA
BRANCH  39  44
ATOM     44  O   LIG A   1      -5.811   2.002 127.703  0.00  0.00    -0.383 OA
ATOM     45  H   LIG A   1      -4.843   2.110 127.792  0.00  0.00    +0.210 HD
ENDBRANCH  39  44
BRANCH  40  46
ATOM     46  O   LIG A   1      -4.513   3.484 125.550  0.00  0.00    -0.386 OA
ATOM     47  H   LIG A   1      -4.397   4.227 126.170  0.00  0.00    +0.210 HD
ENDBRANCH  40  46
BRANCH  41  48
ATOM     48  O   LIG A   1      -6.306   4.286 123.491  0.00  0.00    -0.387 OA
ATOM     49  H   LIG A   1      -5.888   4.133 122.620  0.00  0.00    +0.210 HD
ENDBRANCH  41  48
BRANCH  42  50
ATOM     50  C   LIG A   1      -8.446   2.431 122.735  0.00  0.00    +0.190 C 
BRANCH  50  51
ATOM     51  O   LIG A   1      -8.640   3.749 122.228  0.00  0.00    -0.392 OA
ATOM     52  H   LIG A   1      -9.440   4.105 122.648  0.00  0.00    +0.209 HD
ENDBRANCH  50  51
ENDBRANCH  42  50
ENDBRANCH  37  38
ENDBRANCH  35  37
ENDBRANCH   5  35
BRANCH  13  53
ATOM     53  C   LIG A   1      -6.315  -1.552 135.890  0.00  0.00    +0.165 C 
BRANCH  53  54
ATOM     54  O   LIG A   1      -5.999  -0.286 136.458  0.00  0.00    -0.394 OA
ATOM     55  H   LIG A   1      -6.585   0.368 136.034  0.00  0.00    +0.209 HD
ENDBRANCH  53  54
ENDBRANCH  13  53
TORSDOF 13
ENDMDL
MODEL 4
REMARK VINA RESULT:      -8.7      3.755      9.084
REMARK  Name = NuBBE_1174
REMARK  19 active torsions:
REMARK  status: ('A' for Active; 'I' for Inactive)
REMARK    1  A    between atoms: C_1  and  C_2
REMARK    2  A    between atoms: C_2  and  C_58
REMARK    3  A    between atoms: C_5  and  C_39
REMARK    4  A    between atoms: C_8  and  C_38
REMARK    5  A    between atoms: C_9  and  C_37
REMARK    6  A    between atoms: C_11  and  O_36
REMARK    7  A    between atoms: C_15  and  C_16
REMARK    8  A    between atoms: C_15  and  C_35
REMARK    9  A    between atoms: C_16  and  O_17
REMARK   10  A    between atoms: C_18  and  O_34
REMARK   11  A    between atoms: C_20  and  O_33
REMARK   12  A    between atoms: C_23  and  C_32
REMARK   13  A    between atoms: C_39  and  O_40
REMARK   14  A    between atoms: O_40  and  C_41
REMARK   15  A    between atoms: C_43  and  O_45
REMARK   16  A    between atoms: C_46  and  O_48
REMARK   17  A    between atoms: C_49  and  O_51
REMARK   18  A    between atoms: C_52  and  C_54
REMARK   19  A    between atoms: C_54  and  O_55
REMARK                            x       y       z     vdW  Elec       q    Type
REMARK                         _______ _______ _______ _____ _____    ______ ____
ROOT
ATOM      1  C   LIG A   1      -7.370   4.123 125.633  0.00  0.00    +0.011 C 
ATOM      2  C   LIG A   1      -5.932   3.792 126.081  0.00  0.00    -0.034 C 
ATOM      3  C   LIG A   1      -5.873   2.375 126.675  0.00  0.00    +0.007 C 
ATOM      4  C   LIG A   1      -6.622   2.254 127.996  0.00  0.00    +0.019 C 
ATOM      5  C   LIG A   1      -6.286   3.368 129.032  0.00  0.00    +0.074 C 
ATOM      6  C   LIG A   1      -5.753   2.677 130.307  0.00  0.00    +0.019 C 
ATOM      7  C   LIG A   1      -5.418   3.661 131.417  0.00  0.00    +0.012 C 
ATOM      8  C   LIG A   1      -4.491   4.862 131.029  0.00  0.00    -0.005 C 
ATOM      9  C   LIG A   1      -4.735   6.097 132.052  0.00  0.00    -0.017 C 
ATOM     10  C   LIG A   1      -4.663   5.691 133.558  0.00  0.00    +0.039 C 
ATOM     11  C   LIG A   1      -3.408   6.016 134.360  0.00  0.00    +0.119 C 
ATOM     12  C   LIG A   1      -2.916   7.455 134.106  0.00  0.00    +0.034 C 
ATOM     13  C   LIG A   1      -1.881   8.008 135.178  0.00  0.00    +0.025 C 
ATOM     14  C   LIG A   1      -1.614   9.506 134.849  0.00  0.00    +0.151 C 
ATOM     15  C   LIG A   1      -1.216   9.771 133.391  0.00  0.00    +0.144 C 
ATOM     16  C   LIG A   1      -2.254   9.227 132.413  0.00  0.00    +0.041 C 
ATOM     17  C   LIG A   1      -2.568   7.703 132.582  0.00  0.00    -0.020 C 
ATOM     18  C   LIG A   1      -3.874   7.376 131.718  0.00  0.00    +0.006 C 
ATOM     19  C   LIG A   1      -3.762   7.637 130.190  0.00  0.00    +0.031 C 
ATOM     20  C   LIG A   1      -4.333   6.604 129.255  0.00  0.00    -0.026 C 
ATOM     21  C   LIG A   1      -4.690   5.343 129.578  0.00  0.00    -0.063 C 
ATOM     22  C   LIG A   1      -5.153   4.308 128.530  0.00  0.00    +0.033 C 
ATOM     23  C   LIG A   1      -5.433   4.852 127.103  0.00  0.00    +0.015 C 
ATOM     24  C   LIG A   1      -1.323   6.943 132.074  0.00  0.00    +0.012 C 
ATOM     25  C   LIG A   1      -0.562   7.208 135.271  0.00  0.00    +0.016 C 
ATOM     26  C   LIG A   1      -6.241   6.584 131.868  0.00  0.00    +0.012 C 
ATOM     27  C   LIG A   1      -3.051   4.298 131.050  0.00  0.00    +0.016 C 
ATOM     28  C   LIG A   1      -5.042   3.827 124.821  0.00  0.00    +0.011 C 
ENDROOT
BRANCH  15  29
ATOM     29  O   LIG A   1      -1.108  11.188 133.192  0.00  0.00    -0.389 OA
ATOM     30  H   LIG A   1      -0.260  11.333 132.728  0.00  0.00    +0.210 HD
ENDBRANCH  15  29
BRANCH  14  31
ATOM     31  O   LIG A   1      -0.610  10.078 135.707  0.00  0.00    -0.389 OA
ATOM     32  H   LIG A   1      -0.085  10.708 135.184  0.00  0.00    +0.210 HD
ENDBRANCH  14  31
BRANCH  11  33
ATOM     33  O   LIG A   1      -2.402   5.044 134.149  0.00  0.00    -0.392 OA
ATOM     34  H   LIG A   1      -1.848   5.010 134.948  0.00  0.00    +0.210 HD
ENDBRANCH  11  33
BRANCH   5  35
ATOM     35  C   LIG A   1      -7.605   4.126 129.339  0.00  0.00    +0.316 C 
ATOM     36  O   LIG A   1      -7.806   5.311 129.165  0.00  0.00    -0.250 OA
BRANCH  35  37
ATOM     37  O   LIG A   1      -8.543   3.231 129.761  0.00  0.00    -0.432 OA
BRANCH  37  38
ATOM     38  C   LIG A   1      -9.682   3.745 130.483  0.00  0.00    +0.342 C 
ATOM     39  C   LIG A   1      -9.078   4.413 131.744  0.00  0.00    +0.214 C 
ATOM     40  C   LIG A   1     -10.046   5.382 132.425  0.00  0.00    +0.180 C 
ATOM     41  C   LIG A   1     -10.748   6.292 131.416  0.00  0.00    +0.177 C 
ATOM     42  C   LIG A   1     -11.396   5.412 130.344  0.00  0.00    +0.179 C 
ATOM     43  O   LIG A   1     -10.344   4.710 129.664  0.00  0.00    -0.331 OA
BRANCH  39  44
ATOM     44  O   LIG A   1      -8.646   3.437 132.706  0.00  0.00    -0.383 OA
ATOM     45  H   LIG A   1      -8.784   3.833 133.589  0.00  0.00    +0.210 HD
ENDBRANCH  39  44
BRANCH  40  46
ATOM     46  O   LIG A   1      -9.331   6.192 133.383  0.00  0.00    -0.386 OA
ATOM     47  H   LIG A   1      -8.391   5.934 133.358  0.00  0.00    +0.210 HD
ENDBRANCH  40  46
BRANCH  41  48
ATOM     48  O   LIG A   1     -11.691   7.118 132.093  0.00  0.00    -0.387 OA
ATOM     49  H   LIG A   1     -12.556   6.667 132.024  0.00  0.00    +0.210 HD
ENDBRANCH  41  48
BRANCH  42  50
ATOM     50  C   LIG A   1     -12.170   6.263 129.330  0.00  0.00    +0.190 C 
BRANCH  50  51
ATOM     51  O   LIG A   1     -11.376   6.486 128.167  0.00  0.00    -0.392 OA
ATOM     52  H   LIG A   1     -10.618   5.880 128.216  0.00  0.00    +0.209 HD
ENDBRANCH  50  51
ENDBRANCH  42  50
ENDBRANCH  37  38
ENDBRANCH  35  37
ENDBRANCH   5  35
BRANCH  13  53
ATOM     53  C   LIG A   1      -2.486   7.967 136.620  0.00  0.00    +0.165 C 
BRANCH  53  54
ATOM     54  O   LIG A   1      -3.193   9.162 136.935  0.00  0.00    -0.394 OA
ATOM     55  H   LIG A   1      -2.594   9.713 137.471  0.00  0.00    +0.209 HD
ENDBRANCH  53  54
ENDBRANCH  13  53
TORSDOF 13
ENDMDL
MODEL 5
REMARK VINA RESULT:      -8.6      3.934      6.894
REMARK  Name = NuBBE_1174
REMARK  19 active torsions:
REMARK  status: ('A' for Active; 'I' for Inactive)
REMARK    1  A    between atoms: C_1  and  C_2
REMARK    2  A    between atoms: C_2  and  C_58
REMARK    3  A    between atoms: C_5  and  C_39
REMARK    4  A    between atoms: C_8  and  C_38
REMARK    5  A    between atoms: C_9  and  C_37
REMARK    6  A    between atoms: C_11  and  O_36
REMARK    7  A    between atoms: C_15  and  C_16
REMARK    8  A    between atoms: C_15  and  C_35
REMARK    9  A    between atoms: C_16  and  O_17
REMARK   10  A    between atoms: C_18  and  O_34
REMARK   11  A    between atoms: C_20  and  O_33
REMARK   12  A    between atoms: C_23  and  C_32
REMARK   13  A    between atoms: C_39  and  O_40
REMARK   14  A    between atoms: O_40  and  C_41
REMARK   15  A    between atoms: C_43  and  O_45
REMARK   16  A    between atoms: C_46  and  O_48
REMARK   17  A    between atoms: C_49  and  O_51
REMARK   18  A    between atoms: C_52  and  C_54
REMARK   19  A    between atoms: C_54  and  O_55
REMARK                            x       y       z     vdW  Elec       q    Type
REMARK                         _______ _______ _______ _____ _____    ______ ____
ROOT
ATOM      1  C   LIG A   1      -4.826  -5.250 135.337  0.00  0.00    +0.011 C 
ATOM      2  C   LIG A   1      -4.041  -5.231 134.009  0.00  0.00    -0.034 C 
ATOM      3  C   LIG A   1      -2.848  -4.266 134.111  0.00  0.00    +0.007 C 
ATOM      4  C   LIG A   1      -3.274  -2.806 134.214  0.00  0.00    +0.019 C 
ATOM      5  C   LIG A   1      -4.332  -2.368 133.158  0.00  0.00    +0.074 C 
ATOM      6  C   LIG A   1      -3.729  -1.196 132.351  0.00  0.00    +0.019 C 
ATOM      7  C   LIG A   1      -4.683  -0.649 131.301  0.00  0.00    +0.012 C 
ATOM      8  C   LIG A   1      -5.328  -1.694 130.331  0.00  0.00    -0.005 C 
ATOM      9  C   LIG A   1      -6.721  -1.111 129.741  0.00  0.00    -0.017 C 
ATOM     10  C   LIG A   1      -6.600   0.327 129.145  0.00  0.00    +0.039 C 
ATOM     11  C   LIG A   1      -6.541   0.506 127.632  0.00  0.00    +0.119 C 
ATOM     12  C   LIG A   1      -7.597  -0.351 126.907  0.00  0.00    +0.034 C 
ATOM     13  C   LIG A   1      -7.880   0.066 125.400  0.00  0.00    +0.025 C 
ATOM     14  C   LIG A   1      -9.064  -0.801 124.882  0.00  0.00    +0.151 C 
ATOM     15  C   LIG A   1      -8.881  -2.310 125.096  0.00  0.00    +0.144 C 
ATOM     16  C   LIG A   1      -8.625  -2.647 126.563  0.00  0.00    +0.041 C 
ATOM     17  C   LIG A   1      -7.407  -1.895 127.197  0.00  0.00    -0.020 C 
ATOM     18  C   LIG A   1      -7.473  -2.112 128.781  0.00  0.00    +0.006 C 
ATOM     19  C   LIG A   1      -7.388  -3.585 129.270  0.00  0.00    +0.031 C 
ATOM     20  C   LIG A   1      -6.514  -3.882 130.460  0.00  0.00    -0.026 C 
ATOM     21  C   LIG A   1      -5.578  -3.066 130.989  0.00  0.00    -0.063 C 
ATOM     22  C   LIG A   1      -4.640  -3.499 132.137  0.00  0.00    +0.033 C 
ATOM     23  C   LIG A   1      -4.982  -4.841 132.836  0.00  0.00    +0.015 C 
ATOM     24  C   LIG A   1      -6.139  -2.517 126.572  0.00  0.00    +0.012 C 
ATOM     25  C   LIG A   1      -6.654  -0.036 124.463  0.00  0.00    +0.016 C 
ATOM     26  C   LIG A   1      -7.722  -0.923 130.966  0.00  0.00    +0.012 C 
ATOM     27  C   LIG A   1      -4.255  -1.979 129.254  0.00  0.00    +0.016 C 
ATOM     28  C   LIG A   1      -3.493  -6.656 133.784  0.00  0.00    +0.011 C 
ENDROOT
BRANCH  15  29
ATOM     29  O   LIG A   1     -10.079  -2.983 124.681  0.00  0.00    -0.389 OA
ATOM     30  H   LIG A   1      -9.840  -3.494 123.883  0.00  0.00    +0.210 HD
ENDBRANCH  15  29
BRANCH  14  31
ATOM     31  O   LIG A   1      -9.336  -0.568 123.488  0.00  0.00    -0.389 OA
ATOM     32  H   LIG A   1      -8.547  -0.818 122.978  0.00  0.00    +0.210 HD
ENDBRANCH  14  31
BRANCH  11  33
ATOM     33  O   LIG A   1      -5.230   0.298 127.144  0.00  0.00    -0.392 OA
ATOM     34  H   LIG A   1      -4.615   0.770 127.731  0.00  0.00    +0.210 HD
ENDBRANCH  11  33
BRANCH   5  35
ATOM     35  C   LIG A   1      -5.591  -1.898 133.934  0.00  0.00    +0.316 C 
ATOM     36  O   LIG A   1      -6.745  -2.119 133.626  0.00  0.00    -0.250 OA
BRANCH  35  37
ATOM     37  O   LIG A   1      -5.199  -1.263 135.075  0.00  0.00    -0.432 OA
BRANCH  37  38
ATOM     38  C   LIG A   1      -5.519   0.138 135.206  0.00  0.00    +0.342 C 
ATOM     39  C   LIG A   1      -4.152   0.863 135.125  0.00  0.00    +0.214 C 
ATOM     40  C   LIG A   1      -4.288   2.355 134.814  0.00  0.00    +0.180 C 
ATOM     41  C   LIG A   1      -5.289   2.614 133.688  0.00  0.00    +0.177 C 
ATOM     42  C   LIG A   1      -6.609   1.930 134.049  0.00  0.00    +0.179 C 
ATOM     43  O   LIG A   1      -6.361   0.516 134.116  0.00  0.00    -0.331 OA
BRANCH  39  44
ATOM     44  O   LIG A   1      -3.398   0.710 136.339  0.00  0.00    -0.383 OA
ATOM     45  H   LIG A   1      -3.618   1.476 136.904  0.00  0.00    +0.210 HD
ENDBRANCH  39  44
BRANCH  40  46
ATOM     46  O   LIG A   1      -3.001   2.894 134.445  0.00  0.00    -0.386 OA
ATOM     47  H   LIG A   1      -2.312   2.389 134.916  0.00  0.00    +0.210 HD
ENDBRANCH  40  46
BRANCH  41  48
ATOM     48  O   LIG A   1      -5.434   4.019 133.491  0.00  0.00    -0.387 OA
ATOM     49  H   LIG A   1      -6.389   4.213 133.570  0.00  0.00    +0.210 HD
ENDBRANCH  41  48
BRANCH  42  50
ATOM     50  C   LIG A   1      -7.679   2.203 132.984  0.00  0.00    +0.190 C 
BRANCH  50  51
ATOM     51  O   LIG A   1      -7.062   2.506 131.735  0.00  0.00    -0.392 OA
ATOM     52  H   LIG A   1      -7.620   3.166 131.291  0.00  0.00    +0.209 HD
ENDBRANCH  50  51
ENDBRANCH  42  50
ENDBRANCH  37  38
ENDBRANCH  35  37
ENDBRANCH   5  35
BRANCH  13  53
ATOM     53  C   LIG A   1      -8.342   1.558 125.305  0.00  0.00    +0.165 C 
BRANCH  53  54
ATOM     54  O   LIG A   1      -9.757   1.670 125.190  0.00  0.00    -0.394 OA
ATOM     55  H   LIG A   1     -10.030   1.078 124.465  0.00  0.00    +0.209 HD
ENDBRANCH  53  54
ENDBRANCH  13  53
TORSDOF 13
ENDMDL
MODEL 6
REMARK VINA RESULT:      -8.5      2.848      5.380
REMARK  Name = NuBBE_1174
REMARK  19 active torsions:
REMARK  status: ('A' for Active; 'I' for Inactive)
REMARK    1  A    between atoms: C_1  and  C_2
REMARK    2  A    between atoms: C_2  and  C_58
REMARK    3  A    between atoms: C_5  and  C_39
REMARK    4  A    between atoms: C_8  and  C_38
REMARK    5  A    between atoms: C_9  and  C_37
REMARK    6  A    between atoms: C_11  and  O_36
REMARK    7  A    between atoms: C_15  and  C_16
REMARK    8  A    between atoms: C_15  and  C_35
REMARK    9  A    between atoms: C_16  and  O_17
REMARK   10  A    between atoms: C_18  and  O_34
REMARK   11  A    between atoms: C_20  and  O_33
REMARK   12  A    between atoms: C_23  and  C_32
REMARK   13  A    between atoms: C_39  and  O_40
REMARK   14  A    between atoms: O_40  and  C_41
REMARK   15  A    between atoms: C_43  and  O_45
REMARK   16  A    between atoms: C_46  and  O_48
REMARK   17  A    between atoms: C_49  and  O_51
REMARK   18  A    between atoms: C_52  and  C_54
REMARK   19  A    between atoms: C_54  and  O_55
REMARK                            x       y       z     vdW  Elec       q    Type
REMARK                         _______ _______ _______ _____ _____    ______ ____
ROOT
ATOM      1  C   LIG A   1      -6.979  -3.316 135.270  0.00  0.00    +0.011 C 
ATOM      2  C   LIG A   1      -6.049  -3.862 134.166  0.00  0.00    -0.034 C 
ATOM      3  C   LIG A   1      -4.683  -3.159 134.226  0.00  0.00    +0.007 C 
ATOM      4  C   LIG A   1      -4.756  -1.687 133.839  0.00  0.00    +0.019 C 
ATOM      5  C   LIG A   1      -5.535  -1.406 132.519  0.00  0.00    +0.074 C 
ATOM      6  C   LIG A   1      -4.571  -0.682 131.553  0.00  0.00    +0.019 C 
ATOM      7  C   LIG A   1      -5.224  -0.317 130.230  0.00  0.00    +0.012 C 
ATOM      8  C   LIG A   1      -5.973  -1.469 129.479  0.00  0.00    -0.005 C 
ATOM      9  C   LIG A   1      -7.099  -0.844 128.494  0.00  0.00    -0.017 C 
ATOM     10  C   LIG A   1      -6.562   0.286 127.560  0.00  0.00    +0.039 C 
ATOM     11  C   LIG A   1      -6.270  -0.030 126.097  0.00  0.00    +0.119 C 
ATOM     12  C   LIG A   1      -7.399  -0.853 125.447  0.00  0.00    +0.034 C 
ATOM     13  C   LIG A   1      -7.380  -0.880 123.858  0.00  0.00    +0.025 C 
ATOM     14  C   LIG A   1      -8.662  -1.623 123.381  0.00  0.00    +0.151 C 
ATOM     15  C   LIG A   1      -8.876  -2.995 124.033  0.00  0.00    +0.144 C 
ATOM     16  C   LIG A   1      -8.896  -2.900 125.557  0.00  0.00    +0.041 C 
ATOM     17  C   LIG A   1      -7.624  -2.236 126.182  0.00  0.00    -0.020 C 
ATOM     18  C   LIG A   1      -7.940  -1.932 127.721  0.00  0.00    +0.006 C 
ATOM     19  C   LIG A   1      -8.274  -3.166 128.604  0.00  0.00    +0.031 C 
ATOM     20  C   LIG A   1      -7.656  -3.239 129.975  0.00  0.00    -0.026 C 
ATOM     21  C   LIG A   1      -6.626  -2.494 130.429  0.00  0.00    -0.063 C 
ATOM     22  C   LIG A   1      -5.973  -2.718 131.810  0.00  0.00    +0.033 C 
ATOM     23  C   LIG A   1      -6.713  -3.685 132.772  0.00  0.00    +0.015 C 
ATOM     24  C   LIG A   1      -6.474  -3.251 126.010  0.00  0.00    +0.012 C 
ATOM     25  C   LIG A   1      -6.106  -1.500 123.241  0.00  0.00    +0.016 C 
ATOM     26  C   LIG A   1      -8.173  -0.096 129.403  0.00  0.00    +0.012 C 
ATOM     27  C   LIG A   1      -4.871  -2.274 128.751  0.00  0.00    +0.016 C 
ATOM     28  C   LIG A   1      -5.836  -5.363 134.453  0.00  0.00    +0.011 C 
ENDROOT
BRANCH  15  29
ATOM     29  O   LIG A   1     -10.137  -3.522 123.598  0.00  0.00    -0.389 OA
ATOM     30  H   LIG A   1     -10.068  -4.493 123.679  0.00  0.00    +0.210 HD
ENDBRANCH  15  29
BRANCH  14  31
ATOM     31  O   LIG A   1      -8.691  -1.787 121.952  0.00  0.00    -0.389 OA
ATOM     32  H   LIG A   1      -8.216  -1.040 121.549  0.00  0.00    +0.210 HD
ENDBRANCH  14  31
BRANCH  11  33
ATOM     33  O   LIG A   1      -4.995  -0.627 125.948  0.00  0.00    -0.392 OA
ATOM     34  H   LIG A   1      -4.329   0.017 126.243  0.00  0.00    +0.210 HD
ENDBRANCH  11  33
BRANCH   5  35
ATOM     35  C   LIG A   1      -6.733  -0.487 132.878  0.00  0.00    +0.316 C 
ATOM     36  O   LIG A   1      -7.887  -0.837 133.015  0.00  0.00    -0.250 OA
BRANCH  35  37
ATOM     37  O   LIG A   1      -6.271   0.778 133.100  0.00  0.00    -0.432 OA
BRANCH  37  38
ATOM     38  C   LIG A   1      -7.247   1.818 133.317  0.00  0.00    +0.342 C 
ATOM     39  C   LIG A   1      -6.412   3.068 133.694  0.00  0.00    +0.214 C 
ATOM     40  C   LIG A   1      -7.196   4.374 133.549  0.00  0.00    +0.180 C 
ATOM     41  C   LIG A   1      -7.983   4.424 132.239  0.00  0.00    +0.177 C 
ATOM     42  C   LIG A   1      -8.848   3.164 132.148  0.00  0.00    +0.179 C 
ATOM     43  O   LIG A   1      -7.962   2.033 132.099  0.00  0.00    -0.331 OA
BRANCH  39  44
ATOM     44  O   LIG A   1      -5.902   2.980 135.034  0.00  0.00    -0.383 OA
ATOM     45  H   LIG A   1      -6.054   3.851 135.450  0.00  0.00    +0.210 HD
ENDBRANCH  39  44
BRANCH  40  46
ATOM     46  O   LIG A   1      -6.288   5.495 133.606  0.00  0.00    -0.386 OA
ATOM     47  H   LIG A   1      -5.704   5.454 132.826  0.00  0.00    +0.210 HD
ENDBRANCH  40  46
BRANCH  41  48
ATOM     48  O   LIG A   1      -8.753   5.623 132.191  0.00  0.00    -0.387 OA
ATOM     49  H   LIG A   1      -8.642   5.988 131.290  0.00  0.00    +0.210 HD
ENDBRANCH  41  48
BRANCH  42  50
ATOM     50  C   LIG A   1      -9.711   3.181 130.881  0.00  0.00    +0.190 C 
BRANCH  50  51
ATOM     51  O   LIG A   1     -10.888   3.957 131.098  0.00  0.00    -0.392 OA
ATOM     52  H   LIG A   1     -11.642   3.429 130.788  0.00  0.00    +0.209 HD
ENDBRANCH  50  51
ENDBRANCH  42  50
ENDBRANCH  37  38
ENDBRANCH  35  37
ENDBRANCH   5  35
BRANCH  13  53
ATOM     53  C   LIG A   1      -7.455   0.568 123.268  0.00  0.00    +0.165 C 
BRANCH  53  54
ATOM     54  O   LIG A   1      -8.796   1.039 123.184  0.00  0.00    -0.394 OA
ATOM     55  H   LIG A   1      -8.806   1.743 122.510  0.00  0.00    +0.209 HD
ENDBRANCH  53  54
ENDBRANCH  13  53
TORSDOF 13
ENDMDL
MODEL 7
REMARK VINA RESULT:      -8.5      4.897      9.045
REMARK  Name = NuBBE_1174
REMARK  19 active torsions:
REMARK  status: ('A' for Active; 'I' for Inactive)
REMARK    1  A    between atoms: C_1  and  C_2
REMARK    2  A    between atoms: C_2  and  C_58
REMARK    3  A    between atoms: C_5  and  C_39
REMARK    4  A    between atoms: C_8  and  C_38
REMARK    5  A    between atoms: C_9  and  C_37
REMARK    6  A    between atoms: C_11  and  O_36
REMARK    7  A    between atoms: C_15  and  C_16
REMARK    8  A    between atoms: C_15  and  C_35
REMARK    9  A    between atoms: C_16  and  O_17
REMARK   10  A    between atoms: C_18  and  O_34
REMARK   11  A    between atoms: C_20  and  O_33
REMARK   12  A    between atoms: C_23  and  C_32
REMARK   13  A    between atoms: C_39  and  O_40
REMARK   14  A    between atoms: O_40  and  C_41
REMARK   15  A    between atoms: C_43  and  O_45
REMARK   16  A    between atoms: C_46  and  O_48
REMARK   17  A    between atoms: C_49  and  O_51
REMARK   18  A    between atoms: C_52  and  C_54
REMARK   19  A    between atoms: C_54  and  O_55
REMARK                            x       y       z     vdW  Elec       q    Type
REMARK                         _______ _______ _______ _____ _____    ______ ____
ROOT
ATOM      1  C   LIG A   1      -6.136  -1.643 123.787  0.00  0.00    +0.011 C 
ATOM      2  C   LIG A   1      -5.848  -2.907 124.622  0.00  0.00    -0.034 C 
ATOM      3  C   LIG A   1      -7.122  -3.759 124.754  0.00  0.00    +0.007 C 
ATOM      4  C   LIG A   1      -8.196  -3.090 125.605  0.00  0.00    +0.019 C 
ATOM      5  C   LIG A   1      -7.684  -2.532 126.967  0.00  0.00    +0.074 C 
ATOM      6  C   LIG A   1      -8.498  -3.216 128.088  0.00  0.00    +0.019 C 
ATOM      7  C   LIG A   1      -8.117  -2.730 129.476  0.00  0.00    +0.012 C 
ATOM      8  C   LIG A   1      -6.592  -2.752 129.830  0.00  0.00    -0.005 C 
ATOM      9  C   LIG A   1      -6.283  -1.671 130.999  0.00  0.00    -0.017 C 
ATOM     10  C   LIG A   1      -7.229  -1.792 132.235  0.00  0.00    +0.039 C 
ATOM     11  C   LIG A   1      -6.718  -2.466 133.504  0.00  0.00    +0.119 C 
ATOM     12  C   LIG A   1      -5.302  -1.986 133.883  0.00  0.00    +0.034 C 
ATOM     13  C   LIG A   1      -4.860  -2.313 135.374  0.00  0.00    +0.025 C 
ATOM     14  C   LIG A   1      -3.482  -1.633 135.620  0.00  0.00    +0.151 C 
ATOM     15  C   LIG A   1      -2.420  -1.957 134.560  0.00  0.00    +0.144 C 
ATOM     16  C   LIG A   1      -2.900  -1.609 133.153  0.00  0.00    +0.041 C 
ATOM     17  C   LIG A   1      -4.249  -2.290 132.742  0.00  0.00    -0.020 C 
ATOM     18  C   LIG A   1      -4.759  -1.587 131.398  0.00  0.00    +0.006 C 
ATOM     19  C   LIG A   1      -3.814  -1.700 130.170  0.00  0.00    +0.031 C 
ATOM     20  C   LIG A   1      -4.431  -2.013 128.833  0.00  0.00    -0.026 C 
ATOM     21  C   LIG A   1      -5.680  -2.479 128.617  0.00  0.00    -0.063 C 
ATOM     22  C   LIG A   1      -6.192  -2.889 127.220  0.00  0.00    +0.033 C 
ATOM     23  C   LIG A   1      -5.288  -2.512 126.017  0.00  0.00    +0.015 C 
ATOM     24  C   LIG A   1      -3.935  -3.788 132.537  0.00  0.00    +0.012 C 
ATOM     25  C   LIG A   1      -4.813  -3.820 135.714  0.00  0.00    +0.016 C 
ATOM     26  C   LIG A   1      -6.613  -0.225 130.418  0.00  0.00    +0.012 C 
ATOM     27  C   LIG A   1      -6.277  -4.214 130.221  0.00  0.00    +0.016 C 
ATOM     28  C   LIG A   1      -4.793  -3.730 123.853  0.00  0.00    +0.011 C 
ENDROOT
BRANCH  15  29
ATOM     29  O   LIG A   1      -1.242  -1.186 134.837  0.00  0.00    -0.389 OA
ATOM     30  H   LIG A   1      -1.150  -0.556 134.096  0.00  0.00    +0.210 HD
ENDBRANCH  15  29
BRANCH  14  31
ATOM     31  O   LIG A   1      -2.945  -1.951 136.916  0.00  0.00    -0.389 OA
ATOM     32  H   LIG A   1      -3.537  -2.596 137.340  0.00  0.00    +0.210 HD
ENDBRANCH  14  31
BRANCH  11  33
ATOM     33  O   LIG A   1      -6.817  -3.874 133.411  0.00  0.00    -0.392 OA
ATOM     34  H   LIG A   1      -6.037  -4.197 132.929  0.00  0.00    +0.210 HD
ENDBRANCH  11  33
BRANCH   5  35
ATOM     35  C   LIG A   1      -7.945  -1.002 126.966  0.00  0.00    +0.316 C 
ATOM     36  O   LIG A   1      -7.419  -0.186 127.696  0.00  0.00    -0.250 OA
BRANCH  35  37
ATOM     37  O   LIG A   1      -8.804  -0.699 125.951  0.00  0.00    -0.432 OA
BRANCH  37  38
ATOM     38  C   LIG A   1      -8.295   0.092 124.856  0.00  0.00    +0.342 C 
ATOM     39  C   LIG A   1      -9.425   0.068 123.796  0.00  0.00    +0.214 C 
ATOM     40  C   LIG A   1      -9.283   1.176 122.751  0.00  0.00    +0.180 C 
ATOM     41  C   LIG A   1      -8.949   2.524 123.390  0.00  0.00    +0.177 C 
ATOM     42  C   LIG A   1      -7.715   2.343 124.278  0.00  0.00    +0.179 C 
ATOM     43  O   LIG A   1      -8.065   1.422 125.324  0.00  0.00    -0.331 OA
BRANCH  39  44
ATOM     44  O   LIG A   1      -9.492  -1.199 123.121  0.00  0.00    -0.383 OA
ATOM     45  H   LIG A   1     -10.209  -1.706 123.549  0.00  0.00    +0.210 HD
ENDBRANCH  39  44
BRANCH  40  46
ATOM     46  O   LIG A   1     -10.510   1.294 121.998  0.00  0.00    -0.386 OA
ATOM     47  H   LIG A   1     -10.310   1.751 121.160  0.00  0.00    +0.210 HD
ENDBRANCH  40  46
BRANCH  41  48
ATOM     48  O   LIG A   1      -8.753   3.501 122.371  0.00  0.00    -0.387 OA
ATOM     49  H   LIG A   1      -9.434   4.189 122.510  0.00  0.00    +0.210 HD
ENDBRANCH  41  48
BRANCH  42  50
ATOM     50  C   LIG A   1      -7.290   3.677 124.905  0.00  0.00    +0.190 C 
BRANCH  50  51
ATOM     51  O   LIG A   1      -8.373   4.603 124.874  0.00  0.00    -0.392 OA
ATOM     52  H   LIG A   1      -8.885   4.421 124.068  0.00  0.00    +0.209 HD
ENDBRANCH  50  51
ENDBRANCH  42  50
ENDBRANCH  37  38
ENDBRANCH  35  37
ENDBRANCH   5  35
BRANCH  13  53
ATOM     53  C   LIG A   1      -5.857  -1.692 136.407  0.00  0.00    +0.165 C 
BRANCH  53  54
ATOM     54  O   LIG A   1      -5.739  -2.297 137.691  0.00  0.00    -0.394 OA
ATOM     55  H   LIG A   1      -5.703  -1.572 138.342  0.00  0.00    +0.209 HD
ENDBRANCH  53  54
ENDBRANCH  13  53
TORSDOF 13
ENDMDL
MODEL 8
REMARK VINA RESULT:      -8.3      2.443      4.195
REMARK  Name = NuBBE_1174
REMARK  19 active torsions:
REMARK  status: ('A' for Active; 'I' for Inactive)
REMARK    1  A    between atoms: C_1  and  C_2
REMARK    2  A    between atoms: C_2  and  C_58
REMARK    3  A    between atoms: C_5  and  C_39
REMARK    4  A    between atoms: C_8  and  C_38
REMARK    5  A    between atoms: C_9  and  C_37
REMARK    6  A    between atoms: C_11  and  O_36
REMARK    7  A    between atoms: C_15  and  C_16
REMARK    8  A    between atoms: C_15  and  C_35
REMARK    9  A    between atoms: C_16  and  O_17
REMARK   10  A    between atoms: C_18  and  O_34
REMARK   11  A    between atoms: C_20  and  O_33
REMARK   12  A    between atoms: C_23  and  C_32
REMARK   13  A    between atoms: C_39  and  O_40
REMARK   14  A    between atoms: O_40  and  C_41
REMARK   15  A    between atoms: C_43  and  O_45
REMARK   16  A    between atoms: C_46  and  O_48
REMARK   17  A    between atoms: C_49  and  O_51
REMARK   18  A    between atoms: C_52  and  C_54
REMARK   19  A    between atoms: C_54  and  O_55
REMARK                            x       y       z     vdW  Elec       q    Type
REMARK                         _______ _______ _______ _____ _____    ______ ____
ROOT
ATOM      1  C   LIG A   1      -3.104   5.954 133.064  0.00  0.00    +0.011 C 
ATOM      2  C   LIG A   1      -2.418   5.119 131.964  0.00  0.00    -0.034 C 
ATOM      3  C   LIG A   1      -1.722   6.043 130.950  0.00  0.00    +0.007 C 
ATOM      4  C   LIG A   1      -2.705   6.860 130.121  0.00  0.00    +0.019 C 
ATOM      5  C   LIG A   1      -3.869   6.031 129.499  0.00  0.00    +0.074 C 
ATOM      6  C   LIG A   1      -3.812   6.221 127.967  0.00  0.00    +0.019 C 
ATOM      7  C   LIG A   1      -4.925   5.485 127.238  0.00  0.00    +0.012 C 
ATOM      8  C   LIG A   1      -5.103   3.969 127.586  0.00  0.00    -0.005 C 
ATOM      9  C   LIG A   1      -6.624   3.507 127.263  0.00  0.00    -0.017 C 
ATOM     10  C   LIG A   1      -7.111   3.898 125.832  0.00  0.00    +0.039 C 
ATOM     11  C   LIG A   1      -7.158   2.834 124.742  0.00  0.00    +0.119 C 
ATOM     12  C   LIG A   1      -7.783   1.518 125.244  0.00  0.00    +0.034 C 
ATOM     13  C   LIG A   1      -8.239   0.512 124.101  0.00  0.00    +0.025 C 
ATOM     14  C   LIG A   1      -8.974  -0.679 124.782  0.00  0.00    +0.151 C 
ATOM     15  C   LIG A   1      -8.188  -1.335 125.924  0.00  0.00    +0.144 C 
ATOM     16  C   LIG A   1      -7.790  -0.321 126.994  0.00  0.00    +0.041 C 
ATOM     17  C   LIG A   1      -6.974   0.902 126.457  0.00  0.00    -0.020 C 
ATOM     18  C   LIG A   1      -6.917   1.998 127.621  0.00  0.00    +0.006 C 
ATOM     19  C   LIG A   1      -6.230   1.554 128.941  0.00  0.00    +0.031 C 
ATOM     20  C   LIG A   1      -5.290   2.524 129.607  0.00  0.00    -0.026 C 
ATOM     21  C   LIG A   1      -4.759   3.633 129.051  0.00  0.00    -0.063 C 
ATOM     22  C   LIG A   1      -3.706   4.508 129.765  0.00  0.00    +0.033 C 
ATOM     23  C   LIG A   1      -3.458   4.198 131.265  0.00  0.00    +0.015 C 
ATOM     24  C   LIG A   1      -5.575   0.363 126.090  0.00  0.00    +0.012 C 
ATOM     25  C   LIG A   1      -7.095   0.019 123.185  0.00  0.00    +0.016 C 
ATOM     26  C   LIG A   1      -7.592   4.329 128.224  0.00  0.00    +0.012 C 
ATOM     27  C   LIG A   1      -4.027   3.224 126.762  0.00  0.00    +0.016 C 
ATOM     28  C   LIG A   1      -1.340   4.256 132.653  0.00  0.00    +0.011 C 
ENDROOT
BRANCH  15  29
ATOM     29  O   LIG A   1      -9.014  -2.337 126.537  0.00  0.00    -0.389 OA
ATOM     30  H   LIG A   1      -8.406  -3.037 126.846  0.00  0.00    +0.210 HD
ENDBRANCH  15  29
BRANCH  14  31
ATOM     31  O   LIG A   1      -9.343  -1.699 123.836  0.00  0.00    -0.389 OA
ATOM     32  H   LIG A   1      -8.898  -2.525 124.092  0.00  0.00    +0.210 HD
ENDBRANCH  14  31
BRANCH  11  33
ATOM     33  O   LIG A   1      -5.884   2.650 124.153  0.00  0.00    -0.392 OA
ATOM     34  H   LIG A   1      -5.224   2.643 124.867  0.00  0.00    +0.210 HD
ENDBRANCH  11  33
BRANCH   5  35
ATOM     35  C   LIG A   1      -5.196   6.602 130.066  0.00  0.00    +0.316 C 
ATOM     36  O   LIG A   1      -5.502   7.776 130.129  0.00  0.00    -0.250 OA
BRANCH  35  37
ATOM     37  O   LIG A   1      -6.014   5.566 130.411  0.00  0.00    -0.432 OA
BRANCH  37  38
ATOM     38  C   LIG A   1      -6.756   5.680 131.644  0.00  0.00    +0.342 C 
ATOM     39  C   LIG A   1      -8.228   5.868 131.199  0.00  0.00    +0.214 C 
ATOM     40  C   LIG A   1      -9.229   5.583 132.321  0.00  0.00    +0.180 C 
ATOM     41  C   LIG A   1      -8.883   4.304 133.083  0.00  0.00    +0.177 C 
ATOM     42  C   LIG A   1      -7.429   4.402 133.554  0.00  0.00    +0.179 C 
ATOM     43  O   LIG A   1      -6.598   4.469 132.384  0.00  0.00    -0.331 OA
BRANCH  39  44
ATOM     44  O   LIG A   1      -8.465   7.191 130.692  0.00  0.00    -0.383 OA
ATOM     45  H   LIG A   1      -9.426   7.261 130.529  0.00  0.00    +0.210 HD
ENDBRANCH  39  44
BRANCH  40  46
ATOM     46  O   LIG A   1     -10.558   5.467 131.769  0.00  0.00    -0.386 OA
ATOM     47  H   LIG A   1     -11.083   4.894 132.357  0.00  0.00    +0.210 HD
ENDBRANCH  40  46
BRANCH  41  48
ATOM     48  O   LIG A   1      -9.798   4.128 134.162  0.00  0.00    -0.387 OA
ATOM     49  H   LIG A   1     -10.152   5.015 134.374  0.00  0.00    +0.210 HD
ENDBRANCH  41  48
BRANCH  42  50
ATOM     50  C   LIG A   1      -7.036   3.171 134.381  0.00  0.00    +0.190 C 
BRANCH  50  51
ATOM     51  O   LIG A   1      -7.580   1.991 133.795  0.00  0.00    -0.392 OA
ATOM     52  H   LIG A   1      -8.416   1.801 134.253  0.00  0.00    +0.209 HD
ENDBRANCH  50  51
ENDBRANCH  42  50
ENDBRANCH  37  38
ENDBRANCH  35  37
ENDBRANCH   5  35
BRANCH  13  53
ATOM     53  C   LIG A   1      -9.272   1.185 123.137  0.00  0.00    +0.165 C 
BRANCH  53  54
ATOM     54  O   LIG A   1     -10.412   1.673 123.836  0.00  0.00    -0.394 OA
ATOM     55  H   LIG A   1     -11.088   0.971 123.800  0.00  0.00    +0.209 HD
ENDBRANCH  53  54
ENDBRANCH  13  53
TORSDOF 13
ENDMDL
MODEL 9
REMARK VINA RESULT:      -8.3      5.427      9.665
REMARK  Name = NuBBE_1174
REMARK  19 active torsions:
REMARK  status: ('A' for Active; 'I' for Inactive)
REMARK    1  A    between atoms: C_1  and  C_2
REMARK    2  A    between atoms: C_2  and  C_58
REMARK    3  A    between atoms: C_5  and  C_39
REMARK    4  A    between atoms: C_8  and  C_38
REMARK    5  A    between atoms: C_9  and  C_37
REMARK    6  A    between atoms: C_11  and  O_36
REMARK    7  A    between atoms: C_15  and  C_16
REMARK    8  A    between atoms: C_15  and  C_35
REMARK    9  A    between atoms: C_16  and  O_17
REMARK   10  A    between atoms: C_18  and  O_34
REMARK   11  A    between atoms: C_20  and  O_33
REMARK   12  A    between atoms: C_23  and  C_32
REMARK   13  A    between atoms: C_39  and  O_40
REMARK   14  A    between atoms: O_40  and  C_41
REMARK   15  A    between atoms: C_43  and  O_45
REMARK   16  A    between atoms: C_46  and  O_48
REMARK   17  A    between atoms: C_49  and  O_51
REMARK   18  A    between atoms: C_52  and  C_54
REMARK   19  A    between atoms: C_54  and  O_55
REMARK                            x       y       z     vdW  Elec       q    Type
REMARK                         _______ _______ _______ _____ _____    ______ ____
ROOT
ATOM      1  C   LIG A   1      -6.232  -2.760 135.724  0.00  0.00    +0.011 C 
ATOM      2  C   LIG A   1      -7.311  -3.314 134.771  0.00  0.00    -0.034 C 
ATOM      3  C   LIG A   1      -6.998  -4.774 134.403  0.00  0.00    +0.007 C 
ATOM      4  C   LIG A   1      -5.751  -4.913 133.539  0.00  0.00    +0.019 C 
ATOM      5  C   LIG A   1      -5.703  -3.948 132.317  0.00  0.00    +0.074 C 
ATOM      6  C   LIG A   1      -5.585  -4.812 131.042  0.00  0.00    +0.019 C 
ATOM      7  C   LIG A   1      -5.494  -3.983 129.771  0.00  0.00    +0.012 C 
ATOM      8  C   LIG A   1      -6.590  -2.883 129.575  0.00  0.00    -0.005 C 
ATOM      9  C   LIG A   1      -6.035  -1.722 128.588  0.00  0.00    -0.017 C 
ATOM     10  C   LIG A   1      -5.426  -2.265 127.257  0.00  0.00    +0.039 C 
ATOM     11  C   LIG A   1      -6.243  -2.178 125.972  0.00  0.00    +0.119 C 
ATOM     12  C   LIG A   1      -6.910  -0.798 125.803  0.00  0.00    +0.034 C 
ATOM     13  C   LIG A   1      -7.431  -0.481 124.336  0.00  0.00    +0.025 C 
ATOM     14  C   LIG A   1      -7.932   0.992 124.319  0.00  0.00    +0.151 C 
ATOM     15  C   LIG A   1      -8.933   1.331 125.432  0.00  0.00    +0.144 C 
ATOM     16  C   LIG A   1      -8.369   1.015 126.816  0.00  0.00    +0.041 C 
ATOM     17  C   LIG A   1      -7.892  -0.464 126.998  0.00  0.00    -0.020 C 
ATOM     18  C   LIG A   1      -7.056  -0.541 128.361  0.00  0.00    +0.006 C 
ATOM     19  C   LIG A   1      -7.828  -0.162 129.655  0.00  0.00    +0.031 C 
ATOM     20  C   LIG A   1      -7.628  -1.025 130.872  0.00  0.00    -0.026 C 
ATOM     21  C   LIG A   1      -7.068  -2.253 130.899  0.00  0.00    -0.063 C 
ATOM     22  C   LIG A   1      -7.013  -3.122 132.175  0.00  0.00    +0.033 C 
ATOM     23  C   LIG A   1      -7.411  -2.423 133.501  0.00  0.00    +0.015 C 
ATOM     24  C   LIG A   1      -9.169  -1.331 127.044  0.00  0.00    +0.012 C 
ATOM     25  C   LIG A   1      -8.516  -1.451 123.815  0.00  0.00    +0.016 C 
ATOM     26  C   LIG A   1      -4.795  -1.029 129.310  0.00  0.00    +0.012 C 
ATOM     27  C   LIG A   1      -7.834  -3.628 129.038  0.00  0.00    +0.016 C 
ATOM     28  C   LIG A   1      -8.652  -3.283 135.534  0.00  0.00    +0.011 C 
ENDROOT
BRANCH  15  29
ATOM     29  O   LIG A   1      -9.228   2.735 125.376  0.00  0.00    -0.389 OA
ATOM     30  H   LIG A   1      -8.403   3.174 125.090  0.00  0.00    +0.210 HD
ENDBRANCH  15  29
BRANCH  14  31
ATOM     31  O   LIG A   1      -8.518   1.350 123.054  0.00  0.00    -0.389 OA
ATOM     32  H   LIG A   1      -9.278   1.934 123.225  0.00  0.00    +0.210 HD
ENDBRANCH  14  31
BRANCH  11  33
ATOM     33  O   LIG A   1      -7.161  -3.251 125.878  0.00  0.00    -0.392 OA
ATOM     34  H   LIG A   1      -6.999  -3.848 126.627  0.00  0.00    +0.210 HD
ENDBRANCH  11  33
BRANCH   5  35
ATOM     35  C   LIG A   1      -4.444  -3.055 132.483  0.00  0.00    +0.316 C 
ATOM     36  O   LIG A   1      -4.415  -1.842 132.432  0.00  0.00    -0.250 OA
BRANCH  35  37
ATOM     37  O   LIG A   1      -3.374  -3.847 132.782  0.00  0.00    -0.432 OA
BRANCH  37  38
ATOM     38  C   LIG A   1      -2.645  -3.559 133.993  0.00  0.00    +0.342 C 
ATOM     39  C   LIG A   1      -2.129  -4.937 134.479  0.00  0.00    +0.214 C 
ATOM     40  C   LIG A   1      -0.989  -4.822 135.492  0.00  0.00    +0.180 C 
ATOM     41  C   LIG A   1       0.057  -3.794 135.060  0.00  0.00    +0.177 C 
ATOM     42  C   LIG A   1      -0.659  -2.471 134.773  0.00  0.00    +0.179 C 
ATOM     43  O   LIG A   1      -1.555  -2.692 133.672  0.00  0.00    -0.331 OA
BRANCH  39  44
ATOM     44  O   LIG A   1      -3.184  -5.724 135.055  0.00  0.00    -0.383 OA
ATOM     45  H   LIG A   1      -2.826  -6.625 135.179  0.00  0.00    +0.210 HD
ENDBRANCH  39  44
BRANCH  40  46
ATOM     46  O   LIG A   1      -0.355  -6.109 135.658  0.00  0.00    -0.386 OA
ATOM     47  H   LIG A   1      -1.035  -6.799 135.555  0.00  0.00    +0.210 HD
ENDBRANCH  40  46
BRANCH  41  48
ATOM     48  O   LIG A   1       1.053  -3.671 136.072  0.00  0.00    -0.387 OA
ATOM     49  H   LIG A   1       1.708  -3.024 135.741  0.00  0.00    +0.210 HD
ENDBRANCH  41  48
BRANCH  42  50
ATOM     50  C   LIG A   1       0.345  -1.375 134.392  0.00  0.00    +0.190 C 
BRANCH  50  51
ATOM     51  O   LIG A   1       1.376  -1.918 133.570  0.00  0.00    -0.392 OA
ATOM     52  H   LIG A   1       0.951  -2.277 132.774  0.00  0.00    +0.209 HD
ENDBRANCH  50  51
ENDBRANCH  42  50
ENDBRANCH  37  38
ENDBRANCH  35  37
ENDBRANCH   5  35
BRANCH  13  53
ATOM     53  C   LIG A   1      -6.269  -0.571 123.292  0.00  0.00    +0.165 C 
BRANCH  53  54
ATOM     54  O   LIG A   1      -6.366  -1.741 122.487  0.00  0.00    -0.394 OA
ATOM     55  H   LIG A   1      -5.475  -1.915 122.133  0.00  0.00    +0.209 HD
ENDBRANCH  53  54
ENDBRANCH  13  53
TORSDOF 13
ENDMDL
