MODEL 1
REMARK VINA RESULT:      -8.6      0.000      0.000
REMARK  Name = NuBBE_1573
REMARK  6 active torsions:
REMARK  status: ('A' for Active; 'I' for Inactive)
REMARK    1  A    between atoms: C_1  and  C_2
REMARK    2  A    between atoms: C_4  and  C_19
REMARK    3  A    between atoms: C_9  and  C_11
REMARK    4  A    between atoms: C_21  and  O_22
REMARK    5  A    between atoms: O_22  and  C_23
REMARK    6  A    between atoms: C_24  and  O_27
REMARK                            x       y       z     vdW  Elec       q    Type
REMARK                         _______ _______ _______ _____ _____    ______ ____
ROOT
ATOM      1  C   LIG A   1      -9.631  -3.286 123.248  0.00  0.00    +0.009 C 
ATOM      2  C   LIG A   1      -8.464  -3.193 124.249  0.00  0.00    +0.001 C 
ATOM      3  C   LIG A   1      -8.774  -2.099 125.312  0.00  0.00    +0.053 C 
ATOM      4  C   LIG A   1      -8.379  -0.688 124.867  0.00  0.00    -0.033 A 
ATOM      5  C   LIG A   1      -7.520  -0.464 123.756  0.00  0.00    -0.040 A 
ATOM      6  C   LIG A   1      -7.041  -1.589 122.874  0.00  0.00    +0.039 C 
ATOM      7  C   LIG A   1      -7.123  -2.978 123.515  0.00  0.00    -0.006 C 
ATOM      8  C   LIG A   1      -5.905  -3.242 124.408  0.00  0.00    +0.008 C 
ATOM      9  C   LIG A   1      -7.163   0.851 123.397  0.00  0.00    +0.053 A 
ATOM     10  C   LIG A   1      -7.655   1.897 124.139  0.00  0.00    +0.167 A 
ATOM     11  C   LIG A   1      -8.494   1.689 125.207  0.00  0.00    +0.167 A 
ATOM     12  C   LIG A   1      -8.877   0.421 125.585  0.00  0.00    +0.054 A 
ATOM     13  O   LIG A   1      -8.870   2.851 125.804  0.00  0.00    -0.453 OA
ATOM     14  C   LIG A   1      -8.174   3.815 124.986  0.00  0.00    +0.466 C 
ATOM     15  O   LIG A   1      -7.402   3.216 123.926  0.00  0.00    -0.453 OA
ENDROOT
BRANCH   3  16
ATOM     16  C   LIG A   1      -8.293  -2.515 126.711  0.00  0.00    -0.036 A 
ATOM     17  C   LIG A   1      -7.193  -1.911 127.347  0.00  0.00    +0.053 A 
ATOM     18  C   LIG A   1      -6.861  -2.225 128.667  0.00  0.00    +0.162 A 
ATOM     19  C   LIG A   1      -7.598  -3.206 129.333  0.00  0.00    +0.159 A 
ATOM     20  C   LIG A   1      -8.649  -3.865 128.713  0.00  0.00    +0.049 A 
ATOM     21  C   LIG A   1      -9.007  -3.506 127.413  0.00  0.00    +0.008 A 
BRANCH  18  22
ATOM     22  O   LIG A   1      -5.866  -1.631 129.402  0.00  0.00    -0.491 OA
ATOM     23  C   LIG A   1      -4.538  -2.079 129.136  0.00  0.00    +0.277 C 
ENDBRANCH  18  22
BRANCH  19  24
ATOM     24  O   LIG A   1      -7.314  -3.527 130.633  0.00  0.00    -0.503 OA
ATOM     25  H   LIG A   1      -7.256  -4.502 130.643  0.00  0.00    +0.292 HD
ENDBRANCH  19  24
ENDBRANCH   3  16
TORSDOF 3
ENDMDL
MODEL 2
REMARK VINA RESULT:      -8.2      1.425      6.009
REMARK  Name = NuBBE_1573
REMARK  6 active torsions:
REMARK  status: ('A' for Active; 'I' for Inactive)
REMARK    1  A    between atoms: C_1  and  C_2
REMARK    2  A    between atoms: C_4  and  C_19
REMARK    3  A    between atoms: C_9  and  C_11
REMARK    4  A    between atoms: C_21  and  O_22
REMARK    5  A    between atoms: O_22  and  C_23
REMARK    6  A    between atoms: C_24  and  O_27
REMARK                            x       y       z     vdW  Elec       q    Type
REMARK                         _______ _______ _______ _____ _____    ______ ____
ROOT
ATOM      1  C   LIG A   1      -5.722  -2.672 122.826  0.00  0.00    +0.009 C 
ATOM      2  C   LIG A   1      -6.839  -1.645 123.088  0.00  0.00    +0.001 C 
ATOM      3  C   LIG A   1      -6.624  -0.983 124.481  0.00  0.00    +0.053 C 
ATOM      4  C   LIG A   1      -7.225  -1.788 125.637  0.00  0.00    -0.033 A 
ATOM      5  C   LIG A   1      -8.161  -2.836 125.416  0.00  0.00    -0.040 A 
ATOM      6  C   LIG A   1      -8.531  -3.300 124.030  0.00  0.00    +0.039 C 
ATOM      7  C   LIG A   1      -8.233  -2.288 122.920  0.00  0.00    -0.006 C 
ATOM      8  C   LIG A   1      -9.358  -1.254 122.806  0.00  0.00    +0.008 C 
ATOM      9  C   LIG A   1      -8.706  -3.534 126.511  0.00  0.00    +0.053 A 
ATOM     10  C   LIG A   1      -8.321  -3.179 127.782  0.00  0.00    +0.167 A 
ATOM     11  C   LIG A   1      -7.409  -2.176 128.003  0.00  0.00    +0.167 A 
ATOM     12  C   LIG A   1      -6.843  -1.476 126.960  0.00  0.00    +0.054 A 
ATOM     13  O   LIG A   1      -7.162  -1.983 129.325  0.00  0.00    -0.453 OA
ATOM     14  C   LIG A   1      -8.019  -2.986 129.912  0.00  0.00    +0.466 C 
ATOM     15  O   LIG A   1      -8.757  -3.750 128.937  0.00  0.00    -0.453 OA
ENDROOT
BRANCH   3  16
ATOM     16  C   LIG A   1      -6.975   0.513 124.459  0.00  0.00    -0.036 A 
ATOM     17  C   LIG A   1      -6.768   1.325 123.329  0.00  0.00    +0.053 A 
ATOM     18  C   LIG A   1      -7.214   2.649 123.300  0.00  0.00    +0.162 A 
ATOM     19  C   LIG A   1      -7.814   3.183 124.442  0.00  0.00    +0.159 A 
ATOM     20  C   LIG A   1      -7.977   2.428 125.593  0.00  0.00    +0.049 A 
ATOM     21  C   LIG A   1      -7.577   1.091 125.594  0.00  0.00    +0.008 A 
BRANCH  18  22
ATOM     22  O   LIG A   1      -7.138   3.492 122.221  0.00  0.00    -0.491 OA
ATOM     23  C   LIG A   1      -5.825   3.869 121.812  0.00  0.00    +0.277 C 
ENDBRANCH  18  22
BRANCH  19  24
ATOM     24  O   LIG A   1      -8.280   4.470 124.445  0.00  0.00    -0.503 OA
ATOM     25  H   LIG A   1      -8.289   4.731 125.386  0.00  0.00    +0.292 HD
ENDBRANCH  19  24
ENDBRANCH   3  16
TORSDOF 3
ENDMDL
MODEL 3
REMARK VINA RESULT:      -7.3      2.937      5.859
REMARK  Name = NuBBE_1573
REMARK  6 active torsions:
REMARK  status: ('A' for Active; 'I' for Inactive)
REMARK    1  A    between atoms: C_1  and  C_2
REMARK    2  A    between atoms: C_4  and  C_19
REMARK    3  A    between atoms: C_9  and  C_11
REMARK    4  A    between atoms: C_21  and  O_22
REMARK    5  A    between atoms: O_22  and  C_23
REMARK    6  A    between atoms: C_24  and  O_27
REMARK                            x       y       z     vdW  Elec       q    Type
REMARK                         _______ _______ _______ _____ _____    ______ ____
ROOT
ATOM      1  C   LIG A   1      -4.970  -2.461 128.864  0.00  0.00    +0.009 C 
ATOM      2  C   LIG A   1      -6.386  -2.575 128.269  0.00  0.00    +0.001 C 
ATOM      3  C   LIG A   1      -6.905  -1.160 127.878  0.00  0.00    +0.053 C 
ATOM      4  C   LIG A   1      -7.557  -0.408 129.042  0.00  0.00    -0.033 A 
ATOM      5  C   LIG A   1      -7.944  -1.068 130.240  0.00  0.00    -0.040 A 
ATOM      6  C   LIG A   1      -7.630  -2.522 130.491  0.00  0.00    +0.039 C 
ATOM      7  C   LIG A   1      -7.329  -3.334 129.228  0.00  0.00    -0.006 C 
ATOM      8  C   LIG A   1      -8.624  -3.795 128.551  0.00  0.00    +0.008 C 
ATOM      9  C   LIG A   1      -8.564  -0.341 131.275  0.00  0.00    +0.053 A 
ATOM     10  C   LIG A   1      -8.787   1.003 131.099  0.00  0.00    +0.167 A 
ATOM     11  C   LIG A   1      -8.406   1.651 129.949  0.00  0.00    +0.167 A 
ATOM     12  C   LIG A   1      -7.787   0.980 128.917  0.00  0.00    +0.054 A 
ATOM     13  O   LIG A   1      -8.712   2.974 129.974  0.00  0.00    -0.453 OA
ATOM     14  C   LIG A   1      -9.326   3.088 131.276  0.00  0.00    +0.466 C 
ATOM     15  O   LIG A   1      -9.375   1.840 131.996  0.00  0.00    -0.453 OA
ENDROOT
BRANCH   3  16
ATOM     16  C   LIG A   1      -7.710  -1.192 126.571  0.00  0.00    -0.036 A 
ATOM     17  C   LIG A   1      -8.667  -0.215 126.243  0.00  0.00    +0.053 A 
ATOM     18  C   LIG A   1      -9.290  -0.204 124.993  0.00  0.00    +0.162 A 
ATOM     19  C   LIG A   1      -8.999  -1.226 124.086  0.00  0.00    +0.159 A 
ATOM     20  C   LIG A   1      -8.108  -2.240 124.402  0.00  0.00    +0.049 A 
ATOM     21  C   LIG A   1      -7.451  -2.211 125.632  0.00  0.00    +0.008 A 
BRANCH  18  22
ATOM     22  O   LIG A   1     -10.168   0.752 124.547  0.00  0.00    -0.491 OA
ATOM     23  C   LIG A   1      -9.593   2.000 124.167  0.00  0.00    +0.277 C 
ENDBRANCH  18  22
BRANCH  19  24
ATOM     24  O   LIG A   1      -9.575  -1.238 122.845  0.00  0.00    -0.503 OA
ATOM     25  H   LIG A   1     -10.353  -0.651 122.924  0.00  0.00    +0.292 HD
ENDBRANCH  19  24
ENDBRANCH   3  16
TORSDOF 3
ENDMDL
MODEL 4
REMARK VINA RESULT:      -7.3      7.584      9.852
REMARK  Name = NuBBE_1573
REMARK  6 active torsions:
REMARK  status: ('A' for Active; 'I' for Inactive)
REMARK    1  A    between atoms: C_1  and  C_2
REMARK    2  A    between atoms: C_4  and  C_19
REMARK    3  A    between atoms: C_9  and  C_11
REMARK    4  A    between atoms: C_21  and  O_22
REMARK    5  A    between atoms: O_22  and  C_23
REMARK    6  A    between atoms: C_24  and  O_27
REMARK                            x       y       z     vdW  Elec       q    Type
REMARK                         _______ _______ _______ _____ _____    ______ ____
ROOT
ATOM      1  C   LIG A   1      -7.875   5.615 134.859  0.00  0.00    +0.009 C 
ATOM      2  C   LIG A   1      -7.091   5.049 133.660  0.00  0.00    +0.001 C 
ATOM      3  C   LIG A   1      -7.086   6.088 132.501  0.00  0.00    +0.053 C 
ATOM      4  C   LIG A   1      -8.326   6.008 131.606  0.00  0.00    -0.033 A 
ATOM      5  C   LIG A   1      -9.202   4.889 131.635  0.00  0.00    -0.040 A 
ATOM      6  C   LIG A   1      -9.036   3.768 132.629  0.00  0.00    +0.039 C 
ATOM      7  C   LIG A   1      -7.638   3.666 133.245  0.00  0.00    -0.006 C 
ATOM      8  C   LIG A   1      -6.686   2.901 132.319  0.00  0.00    +0.008 C 
ATOM      9  C   LIG A   1     -10.318   4.846 130.775  0.00  0.00    +0.053 A 
ATOM     10  C   LIG A   1     -10.532   5.897 129.916  0.00  0.00    +0.167 A 
ATOM     11  C   LIG A   1      -9.697   6.987 129.890  0.00  0.00    +0.167 A 
ATOM     12  C   LIG A   1      -8.602   7.074 130.721  0.00  0.00    +0.054 A 
ATOM     13  O   LIG A   1     -10.084   7.914 128.975  0.00  0.00    -0.453 OA
ATOM     14  C   LIG A   1     -11.264   7.285 128.432  0.00  0.00    +0.466 C 
ATOM     15  O   LIG A   1     -11.555   6.004 129.026  0.00  0.00    -0.453 OA
ENDROOT
BRANCH   3  16
ATOM     16  C   LIG A   1      -5.736   6.114 131.768  0.00  0.00    -0.036 A 
ATOM     17  C   LIG A   1      -5.622   5.938 130.378  0.00  0.00    +0.053 A 
ATOM     18  C   LIG A   1      -4.396   6.093 129.728  0.00  0.00    +0.162 A 
ATOM     19  C   LIG A   1      -3.257   6.361 130.491  0.00  0.00    +0.159 A 
ATOM     20  C   LIG A   1      -3.324   6.479 131.871  0.00  0.00    +0.049 A 
ATOM     21  C   LIG A   1      -4.563   6.376 132.505  0.00  0.00    +0.008 A 
BRANCH  18  22
ATOM     22  O   LIG A   1      -4.198   6.028 128.372  0.00  0.00    -0.491 OA
ATOM     23  C   LIG A   1      -4.701   4.864 127.720  0.00  0.00    +0.277 C 
ENDBRANCH  18  22
BRANCH  19  24
ATOM     24  O   LIG A   1      -2.042   6.538 129.888  0.00  0.00    -0.503 OA
ATOM     25  H   LIG A   1      -1.607   5.664 129.940  0.00  0.00    +0.292 HD
ENDBRANCH  19  24
ENDBRANCH   3  16
TORSDOF 3
ENDMDL
MODEL 5
REMARK VINA RESULT:      -7.1      7.570     10.451
REMARK  Name = NuBBE_1573
REMARK  6 active torsions:
REMARK  status: ('A' for Active; 'I' for Inactive)
REMARK    1  A    between atoms: C_1  and  C_2
REMARK    2  A    between atoms: C_4  and  C_19
REMARK    3  A    between atoms: C_9  and  C_11
REMARK    4  A    between atoms: C_21  and  O_22
REMARK    5  A    between atoms: O_22  and  C_23
REMARK    6  A    between atoms: C_24  and  O_27
REMARK                            x       y       z     vdW  Elec       q    Type
REMARK                         _______ _______ _______ _____ _____    ______ ____
ROOT
ATOM      1  C   LIG A   1      -2.981   7.735 133.720  0.00  0.00    +0.009 C 
ATOM      2  C   LIG A   1      -3.059   6.441 132.888  0.00  0.00    +0.001 C 
ATOM      3  C   LIG A   1      -3.954   6.677 131.636  0.00  0.00    +0.053 C 
ATOM      4  C   LIG A   1      -5.447   6.479 131.909  0.00  0.00    -0.033 A 
ATOM      5  C   LIG A   1      -5.917   5.823 133.080  0.00  0.00    -0.040 A 
ATOM      6  C   LIG A   1      -4.984   5.389 134.183  0.00  0.00    +0.039 C 
ATOM      7  C   LIG A   1      -3.519   5.251 133.758  0.00  0.00    -0.006 C 
ATOM      8  C   LIG A   1      -3.266   3.893 133.095  0.00  0.00    +0.008 C 
ATOM      9  C   LIG A   1      -7.300   5.641 133.278  0.00  0.00    +0.053 A 
ATOM     10  C   LIG A   1      -8.172   6.102 132.322  0.00  0.00    +0.167 A 
ATOM     11  C   LIG A   1      -7.727   6.746 131.193  0.00  0.00    +0.167 A 
ATOM     12  C   LIG A   1      -6.385   6.956 130.966  0.00  0.00    +0.054 A 
ATOM     13  O   LIG A   1      -8.746   7.125 130.378  0.00  0.00    -0.453 OA
ATOM     14  C   LIG A   1      -9.886   6.649 131.126  0.00  0.00    +0.466 C 
ATOM     15  O   LIG A   1      -9.528   6.000 132.363  0.00  0.00    -0.453 OA
ENDROOT
BRANCH   3  16
ATOM     16  C   LIG A   1      -3.401   5.953 130.399  0.00  0.00    -0.036 A 
ATOM     17  C   LIG A   1      -3.692   4.607 130.113  0.00  0.00    +0.053 A 
ATOM     18  C   LIG A   1      -3.278   4.017 128.916  0.00  0.00    +0.162 A 
ATOM     19  C   LIG A   1      -2.503   4.767 128.028  0.00  0.00    +0.159 A 
ATOM     20  C   LIG A   1      -2.146   6.077 128.309  0.00  0.00    +0.049 A 
ATOM     21  C   LIG A   1      -2.610   6.674 129.481  0.00  0.00    +0.008 A 
BRANCH  18  22
ATOM     22  O   LIG A   1      -3.584   2.744 128.506  0.00  0.00    -0.491 OA
ATOM     23  C   LIG A   1      -4.940   2.518 128.127  0.00  0.00    +0.277 C 
ENDBRANCH  18  22
BRANCH  19  24
ATOM     24  O   LIG A   1      -2.095   4.229 126.838  0.00  0.00    -0.503 OA
ATOM     25  H   LIG A   1      -2.512   4.789 126.154  0.00  0.00    +0.292 HD
ENDBRANCH  19  24
ENDBRANCH   3  16
TORSDOF 3
ENDMDL
MODEL 6
REMARK VINA RESULT:      -7.0      3.085      5.695
REMARK  Name = NuBBE_1573
REMARK  6 active torsions:
REMARK  status: ('A' for Active; 'I' for Inactive)
REMARK    1  A    between atoms: C_1  and  C_2
REMARK    2  A    between atoms: C_4  and  C_19
REMARK    3  A    between atoms: C_9  and  C_11
REMARK    4  A    between atoms: C_21  and  O_22
REMARK    5  A    between atoms: O_22  and  C_23
REMARK    6  A    between atoms: C_24  and  O_27
REMARK                            x       y       z     vdW  Elec       q    Type
REMARK                         _______ _______ _______ _____ _____    ______ ____
ROOT
ATOM      1  C   LIG A   1      -4.838  -2.764 129.556  0.00  0.00    +0.009 C 
ATOM      2  C   LIG A   1      -6.112  -2.763 128.691  0.00  0.00    +0.001 C 
ATOM      3  C   LIG A   1      -6.410  -1.316 128.200  0.00  0.00    +0.053 C 
ATOM      4  C   LIG A   1      -7.207  -0.483 129.208  0.00  0.00    -0.033 A 
ATOM      5  C   LIG A   1      -7.884  -1.078 130.307  0.00  0.00    -0.040 A 
ATOM      6  C   LIG A   1      -7.762  -2.549 130.621  0.00  0.00    +0.039 C 
ATOM      7  C   LIG A   1      -7.293  -3.412 129.446  0.00  0.00    -0.006 C 
ATOM      8  C   LIG A   1      -8.466  -3.769 128.526  0.00  0.00    +0.008 C 
ATOM      9  C   LIG A   1      -8.626  -0.276 131.196  0.00  0.00    +0.053 A 
ATOM     10  C   LIG A   1      -8.683   1.079 130.974  0.00  0.00    +0.167 A 
ATOM     11  C   LIG A   1      -8.023   1.664 129.920  0.00  0.00    +0.167 A 
ATOM     12  C   LIG A   1      -7.277   0.918 129.035  0.00  0.00    +0.054 A 
ATOM     13  O   LIG A   1      -8.204   3.010 129.880  0.00  0.00    -0.453 OA
ATOM     14  C   LIG A   1      -9.050   3.207 131.033  0.00  0.00    +0.466 C 
ATOM     15  O   LIG A   1      -9.357   1.984 131.733  0.00  0.00    -0.453 OA
ENDROOT
BRANCH   3  16
ATOM     16  C   LIG A   1      -6.940  -1.303 126.759  0.00  0.00    -0.036 A 
ATOM     17  C   LIG A   1      -6.148  -1.665 125.654  0.00  0.00    +0.053 A 
ATOM     18  C   LIG A   1      -6.696  -1.765 124.373  0.00  0.00    +0.162 A 
ATOM     19  C   LIG A   1      -8.040  -1.431 124.187  0.00  0.00    +0.159 A 
ATOM     20  C   LIG A   1      -8.832  -1.011 125.245  0.00  0.00    +0.049 A 
ATOM     21  C   LIG A   1      -8.289  -0.966 126.529  0.00  0.00    +0.008 A 
BRANCH  18  22
ATOM     22  O   LIG A   1      -6.031  -2.192 123.252  0.00  0.00    -0.491 OA
ATOM     23  C   LIG A   1      -4.984  -3.135 123.466  0.00  0.00    +0.277 C 
ENDBRANCH  18  22
BRANCH  19  24
ATOM     24  O   LIG A   1      -8.617  -1.535 122.951  0.00  0.00    -0.503 OA
ATOM     25  H   LIG A   1      -7.867  -1.533 122.324  0.00  0.00    +0.292 HD
ENDBRANCH  19  24
ENDBRANCH   3  16
TORSDOF 3
ENDMDL
MODEL 7
REMARK VINA RESULT:      -7.0      3.058      5.304
REMARK  Name = NuBBE_1573
REMARK  6 active torsions:
REMARK  status: ('A' for Active; 'I' for Inactive)
REMARK    1  A    between atoms: C_1  and  C_2
REMARK    2  A    between atoms: C_4  and  C_19
REMARK    3  A    between atoms: C_9  and  C_11
REMARK    4  A    between atoms: C_21  and  O_22
REMARK    5  A    between atoms: O_22  and  C_23
REMARK    6  A    between atoms: C_24  and  O_27
REMARK                            x       y       z     vdW  Elec       q    Type
REMARK                         _______ _______ _______ _____ _____    ______ ____
ROOT
ATOM      1  C   LIG A   1      -6.380  -3.834 130.545  0.00  0.00    +0.009 C 
ATOM      2  C   LIG A   1      -6.287  -2.314 130.314  0.00  0.00    +0.001 C 
ATOM      3  C   LIG A   1      -7.519  -1.833 129.494  0.00  0.00    +0.053 C 
ATOM      4  C   LIG A   1      -7.337  -1.977 127.981  0.00  0.00    -0.033 A 
ATOM      5  C   LIG A   1      -6.062  -2.202 127.395  0.00  0.00    -0.040 A 
ATOM      6  C   LIG A   1      -4.827  -2.433 128.230  0.00  0.00    +0.039 C 
ATOM      7  C   LIG A   1      -4.934  -1.934 129.674  0.00  0.00    -0.006 C 
ATOM      8  C   LIG A   1      -4.634  -0.433 129.758  0.00  0.00    +0.008 C 
ATOM      9  C   LIG A   1      -5.938  -2.304 125.996  0.00  0.00    +0.053 A 
ATOM     10  C   LIG A   1      -7.064  -2.177 125.220  0.00  0.00    +0.167 A 
ATOM     11  C   LIG A   1      -8.303  -1.970 125.778  0.00  0.00    +0.167 A 
ATOM     12  C   LIG A   1      -8.470  -1.876 127.142  0.00  0.00    +0.054 A 
ATOM     13  O   LIG A   1      -9.283  -1.876 124.842  0.00  0.00    -0.453 OA
ATOM     14  C   LIG A   1      -8.521  -2.052 123.629  0.00  0.00    +0.466 C 
ATOM     15  O   LIG A   1      -7.111  -2.246 123.862  0.00  0.00    -0.453 OA
ENDROOT
BRANCH   3  16
ATOM     16  C   LIG A   1      -8.023  -0.464 129.977  0.00  0.00    -0.036 A 
ATOM     17  C   LIG A   1      -8.036   0.675 129.152  0.00  0.00    +0.053 A 
ATOM     18  C   LIG A   1      -8.616   1.871 129.581  0.00  0.00    +0.162 A 
ATOM     19  C   LIG A   1      -9.129   1.944 130.879  0.00  0.00    +0.159 A 
ATOM     20  C   LIG A   1      -9.076   0.858 131.739  0.00  0.00    +0.049 A 
ATOM     21  C   LIG A   1      -8.543  -0.348 131.282  0.00  0.00    +0.008 A 
BRANCH  18  22
ATOM     22  O   LIG A   1      -8.756   3.007 128.824  0.00  0.00    -0.491 OA
ATOM     23  C   LIG A   1      -7.707   3.274 127.897  0.00  0.00    +0.277 C 
ENDBRANCH  18  22
BRANCH  19  24
ATOM     24  O   LIG A   1      -9.722   3.093 131.328  0.00  0.00    -0.503 OA
ATOM     25  H   LIG A   1      -9.093   3.462 131.977  0.00  0.00    +0.292 HD
ENDBRANCH  19  24
ENDBRANCH   3  16
TORSDOF 3
ENDMDL
MODEL 8
REMARK VINA RESULT:      -7.0      6.055      9.561
REMARK  Name = NuBBE_1573
REMARK  6 active torsions:
REMARK  status: ('A' for Active; 'I' for Inactive)
REMARK    1  A    between atoms: C_1  and  C_2
REMARK    2  A    between atoms: C_4  and  C_19
REMARK    3  A    between atoms: C_9  and  C_11
REMARK    4  A    between atoms: C_21  and  O_22
REMARK    5  A    between atoms: O_22  and  C_23
REMARK    6  A    between atoms: C_24  and  O_27
REMARK                            x       y       z     vdW  Elec       q    Type
REMARK                         _______ _______ _______ _____ _____    ______ ____
ROOT
ATOM      1  C   LIG A   1      -8.131   4.401 133.726  0.00  0.00    +0.009 C 
ATOM      2  C   LIG A   1      -8.207   5.435 132.587  0.00  0.00    +0.001 C 
ATOM      3  C   LIG A   1      -9.133   4.900 131.456  0.00  0.00    +0.053 C 
ATOM      4  C   LIG A   1      -8.410   3.994 130.455  0.00  0.00    -0.033 A 
ATOM      5  C   LIG A   1      -6.992   3.934 130.384  0.00  0.00    -0.040 A 
ATOM      6  C   LIG A   1      -6.110   4.665 131.364  0.00  0.00    +0.039 C 
ATOM      7  C   LIG A   1      -6.795   5.822 132.096  0.00  0.00    -0.006 C 
ATOM      8  C   LIG A   1      -6.789   7.093 131.239  0.00  0.00    +0.008 C 
ATOM      9  C   LIG A   1      -6.370   3.104 129.431  0.00  0.00    +0.053 A 
ATOM     10  C   LIG A   1      -7.157   2.367 128.580  0.00  0.00    +0.167 A 
ATOM     11  C   LIG A   1      -8.528   2.410 128.649  0.00  0.00    +0.167 A 
ATOM     12  C   LIG A   1      -9.177   3.199 129.574  0.00  0.00    +0.054 A 
ATOM     13  O   LIG A   1      -9.119   1.608 127.725  0.00  0.00    -0.453 OA
ATOM     14  C   LIG A   1      -7.961   1.050 127.068  0.00  0.00    +0.466 C 
ATOM     15  O   LIG A   1      -6.712   1.527 127.607  0.00  0.00    -0.453 OA
ENDROOT
BRANCH   3  16
ATOM     16  C   LIG A   1      -9.986   6.021 130.843  0.00  0.00    -0.036 A 
ATOM     17  C   LIG A   1      -9.651   6.657 129.634  0.00  0.00    +0.053 A 
ATOM     18  C   LIG A   1     -10.514   7.583 129.042  0.00  0.00    +0.162 A 
ATOM     19  C   LIG A   1     -11.695   7.925 129.705  0.00  0.00    +0.159 A 
ATOM     20  C   LIG A   1     -12.025   7.362 130.929  0.00  0.00    +0.049 A 
ATOM     21  C   LIG A   1     -11.183   6.399 131.485  0.00  0.00    +0.008 A 
BRANCH  18  22
ATOM     22  O   LIG A   1     -10.319   8.190 127.827  0.00  0.00    -0.491 OA
ATOM     23  C   LIG A   1     -10.698   7.432 126.680  0.00  0.00    +0.277 C 
ENDBRANCH  18  22
BRANCH  19  24
ATOM     24  O   LIG A   1     -12.573   8.813 129.146  0.00  0.00    -0.503 OA
ATOM     25  H   LIG A   1     -12.762   8.452 128.258  0.00  0.00    +0.292 HD
ENDBRANCH  19  24
ENDBRANCH   3  16
TORSDOF 3
ENDMDL
MODEL 9
REMARK VINA RESULT:      -6.9      7.057      9.680
REMARK  Name = NuBBE_1573
REMARK  6 active torsions:
REMARK  status: ('A' for Active; 'I' for Inactive)
REMARK    1  A    between atoms: C_1  and  C_2
REMARK    2  A    between atoms: C_4  and  C_19
REMARK    3  A    between atoms: C_9  and  C_11
REMARK    4  A    between atoms: C_21  and  O_22
REMARK    5  A    between atoms: O_22  and  C_23
REMARK    6  A    between atoms: C_24  and  O_27
REMARK                            x       y       z     vdW  Elec       q    Type
REMARK                         _______ _______ _______ _____ _____    ______ ____
ROOT
ATOM      1  C   LIG A   1      -1.737   5.086 132.762  0.00  0.00    +0.009 C 
ATOM      2  C   LIG A   1      -2.934   5.893 132.226  0.00  0.00    +0.001 C 
ATOM      3  C   LIG A   1      -4.002   4.920 131.644  0.00  0.00    +0.053 C 
ATOM      4  C   LIG A   1      -3.737   4.526 130.189  0.00  0.00    -0.033 A 
ATOM      5  C   LIG A   1      -2.817   5.238 129.372  0.00  0.00    -0.040 A 
ATOM      6  C   LIG A   1      -1.956   6.349 129.918  0.00  0.00    +0.039 C 
ATOM      7  C   LIG A   1      -2.470   6.969 131.221  0.00  0.00    -0.006 C 
ATOM      8  C   LIG A   1      -3.544   8.026 130.938  0.00  0.00    +0.008 C 
ATOM      9  C   LIG A   1      -2.624   4.855 128.030  0.00  0.00    +0.053 A 
ATOM     10  C   LIG A   1      -3.340   3.792 127.535  0.00  0.00    +0.167 A 
ATOM     11  C   LIG A   1      -4.223   3.091 128.321  0.00  0.00    +0.167 A 
ATOM     12  C   LIG A   1      -4.434   3.425 129.640  0.00  0.00    +0.054 A 
ATOM     13  O   LIG A   1      -4.826   2.079 127.645  0.00  0.00    -0.453 OA
ATOM     14  C   LIG A   1      -4.217   2.218 126.343  0.00  0.00    +0.466 C 
ATOM     15  O   LIG A   1      -3.271   3.304 126.268  0.00  0.00    -0.453 OA
ENDROOT
BRANCH   3  16
ATOM     16  C   LIG A   1      -5.429   5.392 131.958  0.00  0.00    -0.036 A 
ATOM     17  C   LIG A   1      -6.279   5.943 130.982  0.00  0.00    +0.053 A 
ATOM     18  C   LIG A   1      -7.612   6.245 131.271  0.00  0.00    +0.162 A 
ATOM     19  C   LIG A   1      -8.079   6.055 132.574  0.00  0.00    +0.159 A 
ATOM     20  C   LIG A   1      -7.249   5.572 133.575  0.00  0.00    +0.049 A 
ATOM     21  C   LIG A   1      -5.935   5.223 133.262  0.00  0.00    +0.008 A 
BRANCH  18  22
ATOM     22  O   LIG A   1      -8.541   6.701 130.370  0.00  0.00    -0.491 OA
ATOM     23  C   LIG A   1      -9.151   5.712 129.545  0.00  0.00    +0.277 C 
ENDBRANCH  18  22
BRANCH  19  24
ATOM     24  O   LIG A   1      -9.383   6.321 132.891  0.00  0.00    -0.503 OA
ATOM     25  H   LIG A   1      -9.464   6.086 133.836  0.00  0.00    +0.292 HD
ENDBRANCH  19  24
ENDBRANCH   3  16
TORSDOF 3
ENDMDL
