MODEL 1
REMARK VINA RESULT:      -8.0      0.000      0.000
REMARK  Name = NuBBE_2173
REMARK  9 active torsions:
REMARK  status: ('A' for Active; 'I' for Inactive)
REMARK    1  A    between atoms: C_6  and  O_7
REMARK    2  A    between atoms: O_7  and  C_8
REMARK    3  A    between atoms: C_8  and  C_9
REMARK    4  A    between atoms: C_10  and  C_11
REMARK    5  A    between atoms: C_10  and  C_12
REMARK    6  A    between atoms: C_17  and  C_18
REMARK    7  A    between atoms: C_20  and  O_21
REMARK    8  A    between atoms: C_22  and  O_23
REMARK    9  A    between atoms: O_23  and  C_24
REMARK                            x       y       z     vdW  Elec       q    Type
REMARK                         _______ _______ _______ _____ _____    ______ ____
ROOT
ATOM      1  O   LIG A   1     -11.015   3.859 130.029  0.00  0.00    -0.286 OA
ATOM      2  C   LIG A   1     -10.324   4.245 130.965  0.00  0.00    +0.200 A 
ATOM      3  C   LIG A   1      -9.456   3.292 131.676  0.00  0.00    +0.065 A 
ATOM      4  C   LIG A   1      -9.363   1.961 131.256  0.00  0.00    +0.019 A 
ATOM      5  C   LIG A   1      -8.531   1.072 131.938  0.00  0.00    +0.046 A 
ATOM      6  C   LIG A   1      -7.788   1.514 133.040  0.00  0.00    +0.124 A 
ATOM      7  C   LIG A   1      -7.896   2.847 133.454  0.00  0.00    +0.092 A 
ATOM      8  C   LIG A   1      -8.725   3.733 132.771  0.00  0.00    +0.142 A 
ATOM      9  O   LIG A   1      -8.778   5.024 133.222  0.00  0.00    -0.462 OA
ATOM     10  C   LIG A   1      -9.545   5.920 132.515  0.00  0.00    +0.208 A 
ATOM     11  C   LIG A   1     -10.314   5.667 131.440  0.00  0.00    +0.064 A 
ENDROOT
BRANCH  11  12
ATOM     12  C   LIG A   1     -11.068   6.749 130.755  0.00  0.00    -0.008 A 
ATOM     13  C   LIG A   1     -10.560   7.353 129.593  0.00  0.00    +0.058 A 
ATOM     14  C   LIG A   1     -11.264   8.366 128.925  0.00  0.00    +0.159 A 
ATOM     15  C   LIG A   1     -12.492   8.814 129.411  0.00  0.00    +0.161 A 
ATOM     16  C   LIG A   1     -13.010   8.213 130.561  0.00  0.00    +0.050 A 
ATOM     17  C   LIG A   1     -12.311   7.198 131.226  0.00  0.00    +0.012 A 
BRANCH  14  18
ATOM     18  O   LIG A   1     -10.725   8.874 127.774  0.00  0.00    -0.503 OA
ATOM     19  H   LIG A   1     -10.163   9.635 127.999  0.00  0.00    +0.292 HD
ENDBRANCH  14  18
BRANCH  15  20
ATOM     20  O   LIG A   1     -13.316   9.757 128.858  0.00  0.00    -0.491 OA
ATOM     21  C   LIG A   1     -13.579  10.914 129.641  0.00  0.00    +0.277 C 
ENDBRANCH  15  20
ENDBRANCH  11  12
BRANCH   6  22
ATOM     22  O   LIG A   1      -6.950   0.751 133.796  0.00  0.00    -0.488 OA
BRANCH  22  23
ATOM     23  C   LIG A   1      -6.271  -0.323 133.150  0.00  0.00    +0.256 C 
BRANCH  23  24
ATOM     24  C   LIG A   1      -6.685  -1.586 133.847  0.00  0.00    +0.012 C 
ATOM     25  C   LIG A   1      -7.172  -2.709 133.283  0.00  0.00    -0.076 C 
ATOM     26  C   LIG A   1      -7.363  -2.910 131.805  0.00  0.00    +0.038 C 
ATOM     27  C   LIG A   1      -7.524  -3.906 134.125  0.00  0.00    +0.038 C 
ENDBRANCH  23  24
ENDBRANCH  22  23
ENDBRANCH   6  22
TORSDOF 6
ENDMDL
MODEL 2
REMARK VINA RESULT:      -8.0      1.370      2.347
REMARK  Name = NuBBE_2173
REMARK  9 active torsions:
REMARK  status: ('A' for Active; 'I' for Inactive)
REMARK    1  A    between atoms: C_6  and  O_7
REMARK    2  A    between atoms: O_7  and  C_8
REMARK    3  A    between atoms: C_8  and  C_9
REMARK    4  A    between atoms: C_10  and  C_11
REMARK    5  A    between atoms: C_10  and  C_12
REMARK    6  A    between atoms: C_17  and  C_18
REMARK    7  A    between atoms: C_20  and  O_21
REMARK    8  A    between atoms: C_22  and  O_23
REMARK    9  A    between atoms: O_23  and  C_24
REMARK                            x       y       z     vdW  Elec       q    Type
REMARK                         _______ _______ _______ _____ _____    ______ ____
ROOT
ATOM      1  O   LIG A   1     -11.016   3.876 130.005  0.00  0.00    -0.286 OA
ATOM      2  C   LIG A   1     -10.332   4.248 130.953  0.00  0.00    +0.200 A 
ATOM      3  C   LIG A   1      -9.461   3.287 131.649  0.00  0.00    +0.065 A 
ATOM      4  C   LIG A   1      -9.357   1.965 131.202  0.00  0.00    +0.019 A 
ATOM      5  C   LIG A   1      -8.522   1.068 131.870  0.00  0.00    +0.046 A 
ATOM      6  C   LIG A   1      -7.788   1.492 132.985  0.00  0.00    +0.124 A 
ATOM      7  C   LIG A   1      -7.907   2.816 133.425  0.00  0.00    +0.092 A 
ATOM      8  C   LIG A   1      -8.739   3.711 132.757  0.00  0.00    +0.142 A 
ATOM      9  O   LIG A   1      -8.803   4.991 133.233  0.00  0.00    -0.462 OA
ATOM     10  C   LIG A   1      -9.573   5.896 132.541  0.00  0.00    +0.208 A 
ATOM     11  C   LIG A   1     -10.335   5.660 131.457  0.00  0.00    +0.064 A 
ENDROOT
BRANCH  11  12
ATOM     12  C   LIG A   1     -11.093   6.750 130.791  0.00  0.00    -0.008 A 
ATOM     13  C   LIG A   1     -10.587   7.378 129.640  0.00  0.00    +0.058 A 
ATOM     14  C   LIG A   1     -11.295   8.398 128.988  0.00  0.00    +0.159 A 
ATOM     15  C   LIG A   1     -12.525   8.833 129.482  0.00  0.00    +0.161 A 
ATOM     16  C   LIG A   1     -13.042   8.209 130.620  0.00  0.00    +0.050 A 
ATOM     17  C   LIG A   1     -12.339   7.185 131.267  0.00  0.00    +0.012 A 
BRANCH  14  18
ATOM     18  O   LIG A   1     -10.757   8.929 127.848  0.00  0.00    -0.503 OA
ATOM     19  H   LIG A   1      -9.906   8.494 127.669  0.00  0.00    +0.292 HD
ENDBRANCH  14  18
BRANCH  15  20
ATOM     20  O   LIG A   1     -13.353   9.781 128.945  0.00  0.00    -0.491 OA
ATOM     21  C   LIG A   1     -13.557  10.960 129.713  0.00  0.00    +0.277 C 
ENDBRANCH  15  20
ENDBRANCH  11  12
BRANCH   6  22
ATOM     22  O   LIG A   1      -6.949   0.720 133.729  0.00  0.00    -0.488 OA
BRANCH  22  23
ATOM     23  C   LIG A   1      -5.843   0.114 133.064  0.00  0.00    +0.256 C 
BRANCH  23  24
ATOM     24  C   LIG A   1      -4.628   0.924 133.409  0.00  0.00    +0.012 C 
ATOM     25  C   LIG A   1      -4.018   1.850 132.644  0.00  0.00    -0.076 C 
ATOM     26  C   LIG A   1      -4.483   2.270 131.277  0.00  0.00    +0.038 C 
ATOM     27  C   LIG A   1      -2.810   2.595 133.147  0.00  0.00    +0.038 C 
ENDBRANCH  23  24
ENDBRANCH  22  23
ENDBRANCH   6  22
TORSDOF 6
ENDMDL
MODEL 3
REMARK VINA RESULT:      -7.9      1.135      2.090
REMARK  Name = NuBBE_2173
REMARK  9 active torsions:
REMARK  status: ('A' for Active; 'I' for Inactive)
REMARK    1  A    between atoms: C_6  and  O_7
REMARK    2  A    between atoms: O_7  and  C_8
REMARK    3  A    between atoms: C_8  and  C_9
REMARK    4  A    between atoms: C_10  and  C_11
REMARK    5  A    between atoms: C_10  and  C_12
REMARK    6  A    between atoms: C_17  and  C_18
REMARK    7  A    between atoms: C_20  and  O_21
REMARK    8  A    between atoms: C_22  and  O_23
REMARK    9  A    between atoms: O_23  and  C_24
REMARK                            x       y       z     vdW  Elec       q    Type
REMARK                         _______ _______ _______ _____ _____    ______ ____
ROOT
ATOM      1  O   LIG A   1      -9.133   6.417 132.431  0.00  0.00    -0.286 OA
ATOM      2  C   LIG A   1      -9.564   5.397 131.903  0.00  0.00    +0.200 A 
ATOM      3  C   LIG A   1      -9.017   4.086 132.288  0.00  0.00    +0.065 A 
ATOM      4  C   LIG A   1      -8.052   3.984 133.295  0.00  0.00    +0.019 A 
ATOM      5  C   LIG A   1      -7.547   2.732 133.652  0.00  0.00    +0.046 A 
ATOM      6  C   LIG A   1      -8.010   1.581 133.002  0.00  0.00    +0.124 A 
ATOM      7  C   LIG A   1      -8.971   1.698 131.992  0.00  0.00    +0.092 A 
ATOM      8  C   LIG A   1      -9.475   2.948 131.638  0.00  0.00    +0.142 A 
ATOM      9  O   LIG A   1     -10.419   2.992 130.649  0.00  0.00    -0.462 OA
ATOM     10  C   LIG A   1     -10.966   4.215 130.338  0.00  0.00    +0.208 A 
ATOM     11  C   LIG A   1     -10.643   5.411 130.862  0.00  0.00    +0.064 A 
ENDROOT
BRANCH  11  12
ATOM     12  C   LIG A   1     -11.347   6.653 130.450  0.00  0.00    -0.008 A 
ATOM     13  C   LIG A   1     -10.972   7.337 129.281  0.00  0.00    +0.058 A 
ATOM     14  C   LIG A   1     -11.635   8.502 128.867  0.00  0.00    +0.159 A 
ATOM     15  C   LIG A   1     -12.683   9.026 129.623  0.00  0.00    +0.161 A 
ATOM     16  C   LIG A   1     -13.070   8.349 130.782  0.00  0.00    +0.050 A 
ATOM     17  C   LIG A   1     -12.414   7.181 131.192  0.00  0.00    +0.012 A 
BRANCH  14  18
ATOM     18  O   LIG A   1     -11.241   9.085 127.695  0.00  0.00    -0.503 OA
ATOM     19  H   LIG A   1     -10.980  10.005 127.872  0.00  0.00    +0.292 HD
ENDBRANCH  14  18
BRANCH  15  20
ATOM     20  O   LIG A   1     -13.452  10.122 129.339  0.00  0.00    -0.491 OA
ATOM     21  C   LIG A   1     -13.462  11.164 130.306  0.00  0.00    +0.277 C 
ENDBRANCH  15  20
ENDBRANCH  11  12
BRANCH   6  22
ATOM     22  O   LIG A   1      -7.596   0.306 133.246  0.00  0.00    -0.488 OA
BRANCH  22  23
ATOM     23  C   LIG A   1      -6.529  -0.206 132.452  0.00  0.00    +0.256 C 
BRANCH  23  24
ATOM     24  C   LIG A   1      -7.036  -1.452 131.787  0.00  0.00    +0.012 C 
ATOM     25  C   LIG A   1      -7.467  -1.584 130.517  0.00  0.00    -0.076 C 
ATOM     26  C   LIG A   1      -7.487  -0.475 129.501  0.00  0.00    +0.038 C 
ATOM     27  C   LIG A   1      -7.928  -2.918 129.992  0.00  0.00    +0.038 C 
ENDBRANCH  23  24
ENDBRANCH  22  23
ENDBRANCH   6  22
TORSDOF 6
ENDMDL
MODEL 4
REMARK VINA RESULT:      -7.6      7.339      8.438
REMARK  Name = NuBBE_2173
REMARK  9 active torsions:
REMARK  status: ('A' for Active; 'I' for Inactive)
REMARK    1  A    between atoms: C_6  and  O_7
REMARK    2  A    between atoms: O_7  and  C_8
REMARK    3  A    between atoms: C_8  and  C_9
REMARK    4  A    between atoms: C_10  and  C_11
REMARK    5  A    between atoms: C_10  and  C_12
REMARK    6  A    between atoms: C_17  and  C_18
REMARK    7  A    between atoms: C_20  and  O_21
REMARK    8  A    between atoms: C_22  and  O_23
REMARK    9  A    between atoms: O_23  and  C_24
REMARK                            x       y       z     vdW  Elec       q    Type
REMARK                         _______ _______ _______ _____ _____    ______ ____
ROOT
ATOM      1  O   LIG A   1      -6.937   0.018 123.131  0.00  0.00    -0.286 OA
ATOM      2  C   LIG A   1      -7.315   0.748 124.041  0.00  0.00    +0.200 A 
ATOM      3  C   LIG A   1      -7.439   0.214 125.406  0.00  0.00    +0.065 A 
ATOM      4  C   LIG A   1      -7.070  -1.105 125.692  0.00  0.00    +0.019 A 
ATOM      5  C   LIG A   1      -7.188  -1.595 126.994  0.00  0.00    +0.046 A 
ATOM      6  C   LIG A   1      -7.673  -0.765 128.012  0.00  0.00    +0.124 A 
ATOM      7  C   LIG A   1      -8.044   0.550 127.712  0.00  0.00    +0.092 A 
ATOM      8  C   LIG A   1      -7.924   1.038 126.412  0.00  0.00    +0.142 A 
ATOM      9  O   LIG A   1      -8.296   2.335 126.187  0.00  0.00    -0.462 OA
ATOM     10  C   LIG A   1      -8.121   2.843 124.921  0.00  0.00    +0.208 A 
ATOM     11  C   LIG A   1      -7.669   2.191 123.835  0.00  0.00    +0.064 A 
ENDROOT
BRANCH  11  12
ATOM     12  C   LIG A   1      -7.500   2.882 122.531  0.00  0.00    -0.008 A 
ATOM     13  C   LIG A   1      -8.603   3.111 121.692  0.00  0.00    +0.058 A 
ATOM     14  C   LIG A   1      -8.467   3.775 120.464  0.00  0.00    +0.159 A 
ATOM     15  C   LIG A   1      -7.216   4.215 120.032  0.00  0.00    +0.161 A 
ATOM     16  C   LIG A   1      -6.113   4.001 120.863  0.00  0.00    +0.050 A 
ATOM     17  C   LIG A   1      -6.250   3.344 122.093  0.00  0.00    +0.012 A 
BRANCH  14  18
ATOM     18  O   LIG A   1      -9.595   3.999 119.723  0.00  0.00    -0.503 OA
ATOM     19  H   LIG A   1      -9.567   4.905 119.372  0.00  0.00    +0.292 HD
ENDBRANCH  14  18
BRANCH  15  20
ATOM     20  O   LIG A   1      -6.922   4.909 118.889  0.00  0.00    -0.491 OA
ATOM     21  C   LIG A   1      -5.708   5.649 118.884  0.00  0.00    +0.277 C 
ENDBRANCH  15  20
ENDBRANCH  11  12
BRANCH   6  22
ATOM     22  O   LIG A   1      -7.846  -1.120 129.316  0.00  0.00    -0.488 OA
BRANCH  22  23
ATOM     23  C   LIG A   1      -6.714  -1.042 130.178  0.00  0.00    +0.256 C 
BRANCH  23  24
ATOM     24  C   LIG A   1      -6.546  -2.394 130.805  0.00  0.00    +0.012 C 
ATOM     25  C   LIG A   1      -5.685  -3.365 130.440  0.00  0.00    -0.076 C 
ATOM     26  C   LIG A   1      -4.687  -3.244 129.321  0.00  0.00    +0.038 C 
ATOM     27  C   LIG A   1      -5.626  -4.669 131.190  0.00  0.00    +0.038 C 
ENDBRANCH  23  24
ENDBRANCH  22  23
ENDBRANCH   6  22
TORSDOF 6
ENDMDL
MODEL 5
REMARK VINA RESULT:      -7.2      7.353     11.439
REMARK  Name = NuBBE_2173
REMARK  9 active torsions:
REMARK  status: ('A' for Active; 'I' for Inactive)
REMARK    1  A    between atoms: C_6  and  O_7
REMARK    2  A    between atoms: O_7  and  C_8
REMARK    3  A    between atoms: C_8  and  C_9
REMARK    4  A    between atoms: C_10  and  C_11
REMARK    5  A    between atoms: C_10  and  C_12
REMARK    6  A    between atoms: C_17  and  C_18
REMARK    7  A    between atoms: C_20  and  O_21
REMARK    8  A    between atoms: C_22  and  O_23
REMARK    9  A    between atoms: O_23  and  C_24
REMARK                            x       y       z     vdW  Elec       q    Type
REMARK                         _______ _______ _______ _____ _____    ______ ____
ROOT
ATOM      1  O   LIG A   1      -5.170  -1.826 128.734  0.00  0.00    -0.286 OA
ATOM      2  C   LIG A   1      -6.232  -2.310 128.356  0.00  0.00    +0.200 A 
ATOM      3  C   LIG A   1      -6.657  -2.139 126.957  0.00  0.00    +0.065 A 
ATOM      4  C   LIG A   1      -5.832  -1.484 126.036  0.00  0.00    +0.019 A 
ATOM      5  C   LIG A   1      -6.248  -1.335 124.712  0.00  0.00    +0.046 A 
ATOM      6  C   LIG A   1      -7.488  -1.845 124.307  0.00  0.00    +0.124 A 
ATOM      7  C   LIG A   1      -8.306  -2.493 125.240  0.00  0.00    +0.092 A 
ATOM      8  C   LIG A   1      -7.889  -2.642 126.561  0.00  0.00    +0.142 A 
ATOM      9  O   LIG A   1      -8.731  -3.293 127.420  0.00  0.00    -0.462 OA
ATOM     10  C   LIG A   1      -8.299  -3.499 128.709  0.00  0.00    +0.208 A 
ATOM     11  C   LIG A   1      -7.144  -3.082 129.260  0.00  0.00    +0.064 A 
ENDROOT
BRANCH  11  12
ATOM     12  C   LIG A   1      -6.795  -3.409 130.667  0.00  0.00    -0.008 A 
ATOM     13  C   LIG A   1      -7.406  -2.730 131.735  0.00  0.00    +0.058 A 
ATOM     14  C   LIG A   1      -7.101  -3.035 133.069  0.00  0.00    +0.159 A 
ATOM     15  C   LIG A   1      -6.161  -4.019 133.373  0.00  0.00    +0.161 A 
ATOM     16  C   LIG A   1      -5.554  -4.707 132.319  0.00  0.00    +0.050 A 
ATOM     17  C   LIG A   1      -5.863  -4.408 130.986  0.00  0.00    +0.012 A 
BRANCH  14  18
ATOM     18  O   LIG A   1      -7.770  -2.361 134.054  0.00  0.00    -0.503 OA
ATOM     19  H   LIG A   1      -7.138  -1.805 134.541  0.00  0.00    +0.292 HD
ENDBRANCH  14  18
BRANCH  15  20
ATOM     20  O   LIG A   1      -5.783  -4.460 134.613  0.00  0.00    -0.491 OA
ATOM     21  C   LIG A   1      -6.186  -5.775 134.974  0.00  0.00    +0.277 C 
ENDBRANCH  15  20
ENDBRANCH  11  12
BRANCH   6  22
ATOM     22  O   LIG A   1      -8.015  -1.759 123.053  0.00  0.00    -0.488 OA
BRANCH  22  23
ATOM     23  C   LIG A   1      -9.258  -1.079 122.904  0.00  0.00    +0.256 C 
BRANCH  23  24
ATOM     24  C   LIG A   1      -8.969   0.390 122.999  0.00  0.00    +0.012 C 
ATOM     25  C   LIG A   1      -9.211   1.206 124.043  0.00  0.00    -0.076 C 
ATOM     26  C   LIG A   1      -9.808   0.765 125.351  0.00  0.00    +0.038 C 
ATOM     27  C   LIG A   1      -8.840   2.664 123.988  0.00  0.00    +0.038 C 
ENDBRANCH  23  24
ENDBRANCH  22  23
ENDBRANCH   6  22
TORSDOF 6
ENDMDL
MODEL 6
REMARK VINA RESULT:      -7.2      8.261      8.983
REMARK  Name = NuBBE_2173
REMARK  9 active torsions:
REMARK  status: ('A' for Active; 'I' for Inactive)
REMARK    1  A    between atoms: C_6  and  O_7
REMARK    2  A    between atoms: O_7  and  C_8
REMARK    3  A    between atoms: C_8  and  C_9
REMARK    4  A    between atoms: C_10  and  C_11
REMARK    5  A    between atoms: C_10  and  C_12
REMARK    6  A    between atoms: C_17  and  C_18
REMARK    7  A    between atoms: C_20  and  O_21
REMARK    8  A    between atoms: C_22  and  O_23
REMARK    9  A    between atoms: O_23  and  C_24
REMARK                            x       y       z     vdW  Elec       q    Type
REMARK                         _______ _______ _______ _____ _____    ______ ____
ROOT
ATOM      1  O   LIG A   1      -5.261  -2.021 126.764  0.00  0.00    -0.286 OA
ATOM      2  C   LIG A   1      -6.053  -2.467 127.588  0.00  0.00    +0.200 A 
ATOM      3  C   LIG A   1      -5.571  -2.886 128.914  0.00  0.00    +0.065 A 
ATOM      4  C   LIG A   1      -4.227  -2.723 129.269  0.00  0.00    +0.019 A 
ATOM      5  C   LIG A   1      -3.788  -3.120 130.533  0.00  0.00    +0.046 A 
ATOM      6  C   LIG A   1      -4.692  -3.679 131.444  0.00  0.00    +0.124 A 
ATOM      7  C   LIG A   1      -6.032  -3.842 131.074  0.00  0.00    +0.092 A 
ATOM      8  C   LIG A   1      -6.470  -3.443 129.813  0.00  0.00    +0.142 A 
ATOM      9  O   LIG A   1      -7.794  -3.622 129.517  0.00  0.00    -0.462 OA
ATOM     10  C   LIG A   1      -8.245  -3.174 128.298  0.00  0.00    +0.208 A 
ATOM     11  C   LIG A   1      -7.519  -2.615 127.313  0.00  0.00    +0.064 A 
ENDROOT
BRANCH  11  12
ATOM     12  C   LIG A   1      -8.153  -2.145 126.054  0.00  0.00    -0.008 A 
ATOM     13  C   LIG A   1      -8.821  -3.045 125.208  0.00  0.00    +0.058 A 
ATOM     14  C   LIG A   1      -9.439  -2.619 124.023  0.00  0.00    +0.159 A 
ATOM     15  C   LIG A   1      -9.390  -1.278 123.643  0.00  0.00    +0.161 A 
ATOM     16  C   LIG A   1      -8.736  -0.373 124.482  0.00  0.00    +0.050 A 
ATOM     17  C   LIG A   1      -8.125  -0.797 125.669  0.00  0.00    +0.012 A 
BRANCH  14  18
ATOM     18  O   LIG A   1     -10.108  -3.548 123.274  0.00  0.00    -0.503 OA
ATOM     19  H   LIG A   1     -10.929  -3.150 122.939  0.00  0.00    +0.292 HD
ENDBRANCH  14  18
BRANCH  15  20
ATOM     20  O   LIG A   1      -9.971  -0.698 122.547  0.00  0.00    -0.491 OA
ATOM     21  C   LIG A   1     -10.136   0.713 122.583  0.00  0.00    +0.277 C 
ENDBRANCH  15  20
ENDBRANCH  11  12
BRANCH   6  22
ATOM     22  O   LIG A   1      -4.394  -4.115 132.700  0.00  0.00    -0.488 OA
BRANCH  22  23
ATOM     23  C   LIG A   1      -4.985  -3.425 133.798  0.00  0.00    +0.256 C 
BRANCH  23  24
ATOM     24  C   LIG A   1      -5.692  -4.452 134.632  0.00  0.00    +0.012 C 
ATOM     25  C   LIG A   1      -7.019  -4.564 134.841  0.00  0.00    -0.076 C 
ATOM     26  C   LIG A   1      -8.059  -3.666 134.229  0.00  0.00    +0.038 C 
ATOM     27  C   LIG A   1      -7.576  -5.671 135.695  0.00  0.00    +0.038 C 
ENDBRANCH  23  24
ENDBRANCH  22  23
ENDBRANCH   6  22
TORSDOF 6
ENDMDL
MODEL 7
REMARK VINA RESULT:      -7.0      1.414      2.631
REMARK  Name = NuBBE_2173
REMARK  9 active torsions:
REMARK  status: ('A' for Active; 'I' for Inactive)
REMARK    1  A    between atoms: C_6  and  O_7
REMARK    2  A    between atoms: O_7  and  C_8
REMARK    3  A    between atoms: C_8  and  C_9
REMARK    4  A    between atoms: C_10  and  C_11
REMARK    5  A    between atoms: C_10  and  C_12
REMARK    6  A    between atoms: C_17  and  C_18
REMARK    7  A    between atoms: C_20  and  O_21
REMARK    8  A    between atoms: C_22  and  O_23
REMARK    9  A    between atoms: O_23  and  C_24
REMARK                            x       y       z     vdW  Elec       q    Type
REMARK                         _______ _______ _______ _____ _____    ______ ____
ROOT
ATOM      1  O   LIG A   1      -8.105   5.312 132.502  0.00  0.00    -0.286 OA
ATOM      2  C   LIG A   1      -8.614   4.293 132.048  0.00  0.00    +0.200 A 
ATOM      3  C   LIG A   1      -8.102   2.974 132.455  0.00  0.00    +0.065 A 
ATOM      4  C   LIG A   1      -7.080   2.868 133.404  0.00  0.00    +0.019 A 
ATOM      5  C   LIG A   1      -6.609   1.610 133.783  0.00  0.00    +0.046 A 
ATOM      6  C   LIG A   1      -7.163   0.456 133.216  0.00  0.00    +0.124 A 
ATOM      7  C   LIG A   1      -8.181   0.576 132.263  0.00  0.00    +0.092 A 
ATOM      8  C   LIG A   1      -8.651   1.833 131.887  0.00  0.00    +0.142 A 
ATOM      9  O   LIG A   1      -9.654   1.880 130.957  0.00  0.00    -0.462 OA
ATOM     10  C   LIG A   1     -10.165   3.113 130.628  0.00  0.00    +0.208 A 
ATOM     11  C   LIG A   1      -9.756   4.314 131.077  0.00  0.00    +0.064 A 
ENDROOT
BRANCH  11  12
ATOM     12  C   LIG A   1     -10.430   5.569 130.655  0.00  0.00    -0.008 A 
ATOM     13  C   LIG A   1     -11.604   6.003 131.293  0.00  0.00    +0.058 A 
ATOM     14  C   LIG A   1     -12.246   7.193 130.919  0.00  0.00    +0.159 A 
ATOM     15  C   LIG A   1     -11.739   7.975 129.882  0.00  0.00    +0.161 A 
ATOM     16  C   LIG A   1     -10.567   7.557 129.246  0.00  0.00    +0.050 A 
ATOM     17  C   LIG A   1      -9.921   6.373 129.623  0.00  0.00    +0.012 A 
BRANCH  14  18
ATOM     18  O   LIG A   1     -13.360   7.571 131.618  0.00  0.00    -0.503 OA
ATOM     19  H   LIG A   1     -13.478   6.969 132.372  0.00  0.00    +0.292 HD
ENDBRANCH  14  18
BRANCH  15  20
ATOM     20  O   LIG A   1     -12.220   9.173 129.426  0.00  0.00    -0.491 OA
ATOM     21  C   LIG A   1     -13.285   9.118 128.485  0.00  0.00    +0.277 C 
ENDBRANCH  15  20
ENDBRANCH  11  12
BRANCH   6  22
ATOM     22  O   LIG A   1      -6.790  -0.826 133.489  0.00  0.00    -0.488 OA
BRANCH  22  23
ATOM     23  C   LIG A   1      -7.601  -1.875 132.967  0.00  0.00    +0.256 C 
BRANCH  23  24
ATOM     24  C   LIG A   1      -6.670  -2.919 132.425  0.00  0.00    +0.012 C 
ATOM     25  C   LIG A   1      -6.693  -3.479 131.199  0.00  0.00    -0.076 C 
ATOM     26  C   LIG A   1      -7.671  -3.120 130.114  0.00  0.00    +0.038 C 
ATOM     27  C   LIG A   1      -5.669  -4.507 130.799  0.00  0.00    +0.038 C 
ENDBRANCH  23  24
ENDBRANCH  22  23
ENDBRANCH   6  22
TORSDOF 6
ENDMDL
MODEL 8
REMARK VINA RESULT:      -7.0      8.167      9.130
REMARK  Name = NuBBE_2173
REMARK  9 active torsions:
REMARK  status: ('A' for Active; 'I' for Inactive)
REMARK    1  A    between atoms: C_6  and  O_7
REMARK    2  A    between atoms: O_7  and  C_8
REMARK    3  A    between atoms: C_8  and  C_9
REMARK    4  A    between atoms: C_10  and  C_11
REMARK    5  A    between atoms: C_10  and  C_12
REMARK    6  A    between atoms: C_17  and  C_18
REMARK    7  A    between atoms: C_20  and  O_21
REMARK    8  A    between atoms: C_22  and  O_23
REMARK    9  A    between atoms: O_23  and  C_24
REMARK                            x       y       z     vdW  Elec       q    Type
REMARK                         _______ _______ _______ _____ _____    ______ ____
ROOT
ATOM      1  O   LIG A   1      -5.232  -2.089 126.859  0.00  0.00    -0.286 OA
ATOM      2  C   LIG A   1      -6.027  -2.496 127.699  0.00  0.00    +0.200 A 
ATOM      3  C   LIG A   1      -5.543  -2.910 129.026  0.00  0.00    +0.065 A 
ATOM      4  C   LIG A   1      -4.191  -2.786 129.362  0.00  0.00    +0.019 A 
ATOM      5  C   LIG A   1      -3.749  -3.178 130.627  0.00  0.00    +0.046 A 
ATOM      6  C   LIG A   1      -4.660  -3.692 131.558  0.00  0.00    +0.124 A 
ATOM      7  C   LIG A   1      -6.009  -3.817 131.206  0.00  0.00    +0.092 A 
ATOM      8  C   LIG A   1      -6.449  -3.423 129.944  0.00  0.00    +0.142 A 
ATOM      9  O   LIG A   1      -7.781  -3.563 129.667  0.00  0.00    -0.462 OA
ATOM     10  C   LIG A   1      -8.233  -3.119 128.447  0.00  0.00    +0.208 A 
ATOM     11  C   LIG A   1      -7.501  -2.600 127.444  0.00  0.00    +0.064 A 
ENDROOT
BRANCH  11  12
ATOM     12  C   LIG A   1      -8.135  -2.129 126.186  0.00  0.00    -0.008 A 
ATOM     13  C   LIG A   1      -8.793  -3.030 125.332  0.00  0.00    +0.058 A 
ATOM     14  C   LIG A   1      -9.410  -2.603 124.148  0.00  0.00    +0.159 A 
ATOM     15  C   LIG A   1      -9.371  -1.260 123.774  0.00  0.00    +0.161 A 
ATOM     16  C   LIG A   1      -8.727  -0.353 124.620  0.00  0.00    +0.050 A 
ATOM     17  C   LIG A   1      -8.116  -0.778 125.806  0.00  0.00    +0.012 A 
BRANCH  14  18
ATOM     18  O   LIG A   1     -10.070  -3.533 123.392  0.00  0.00    -0.503 OA
ATOM     19  H   LIG A   1     -10.946  -3.692 123.783  0.00  0.00    +0.292 HD
ENDBRANCH  14  18
BRANCH  15  20
ATOM     20  O   LIG A   1      -9.953  -0.679 122.679  0.00  0.00    -0.491 OA
ATOM     21  C   LIG A   1     -10.074   0.738 122.695  0.00  0.00    +0.277 C 
ENDBRANCH  15  20
ENDBRANCH  11  12
BRANCH   6  22
ATOM     22  O   LIG A   1      -4.361  -4.119 132.817  0.00  0.00    -0.488 OA
BRANCH  22  23
ATOM     23  C   LIG A   1      -4.357  -3.148 133.860  0.00  0.00    +0.256 C 
BRANCH  23  24
ATOM     24  C   LIG A   1      -2.928  -2.744 134.077  0.00  0.00    +0.012 C 
ATOM     25  C   LIG A   1      -2.350  -1.571 133.749  0.00  0.00    -0.076 C 
ATOM     26  C   LIG A   1      -3.069  -0.413 133.113  0.00  0.00    +0.038 C 
ATOM     27  C   LIG A   1      -0.899  -1.312 134.055  0.00  0.00    +0.038 C 
ENDBRANCH  23  24
ENDBRANCH  22  23
ENDBRANCH   6  22
TORSDOF 6
ENDMDL
MODEL 9
REMARK VINA RESULT:      -7.0      6.695      7.776
REMARK  Name = NuBBE_2173
REMARK  9 active torsions:
REMARK  status: ('A' for Active; 'I' for Inactive)
REMARK    1  A    between atoms: C_6  and  O_7
REMARK    2  A    between atoms: O_7  and  C_8
REMARK    3  A    between atoms: C_8  and  C_9
REMARK    4  A    between atoms: C_10  and  C_11
REMARK    5  A    between atoms: C_10  and  C_12
REMARK    6  A    between atoms: C_17  and  C_18
REMARK    7  A    between atoms: C_20  and  O_21
REMARK    8  A    between atoms: C_22  and  O_23
REMARK    9  A    between atoms: O_23  and  C_24
REMARK                            x       y       z     vdW  Elec       q    Type
REMARK                         _______ _______ _______ _____ _____    ______ ____
ROOT
ATOM      1  O   LIG A   1      -8.528  -1.145 124.231  0.00  0.00    -0.286 OA
ATOM      2  C   LIG A   1      -8.262  -0.531 125.259  0.00  0.00    +0.200 A 
ATOM      3  C   LIG A   1      -8.192  -1.248 126.542  0.00  0.00    +0.065 A 
ATOM      4  C   LIG A   1      -8.365  -2.636 126.595  0.00  0.00    +0.019 A 
ATOM      5  C   LIG A   1      -8.290  -3.301 127.819  0.00  0.00    +0.046 A 
ATOM      6  C   LIG A   1      -8.040  -2.580 128.993  0.00  0.00    +0.124 A 
ATOM      7  C   LIG A   1      -7.876  -1.191 128.928  0.00  0.00    +0.092 A 
ATOM      8  C   LIG A   1      -7.949  -0.529 127.704  0.00  0.00    +0.142 A 
ATOM      9  O   LIG A   1      -7.770   0.827 127.708  0.00  0.00    -0.462 OA
ATOM     10  C   LIG A   1      -7.778   1.480 126.498  0.00  0.00    +0.208 A 
ATOM     11  C   LIG A   1      -7.999   0.944 125.283  0.00  0.00    +0.064 A 
ENDROOT
BRANCH  11  12
ATOM     12  C   LIG A   1      -7.945   1.772 124.051  0.00  0.00    -0.008 A 
ATOM     13  C   LIG A   1      -6.746   2.387 123.651  0.00  0.00    +0.058 A 
ATOM     14  C   LIG A   1      -6.671   3.160 122.483  0.00  0.00    +0.159 A 
ATOM     15  C   LIG A   1      -7.801   3.353 121.688  0.00  0.00    +0.161 A 
ATOM     16  C   LIG A   1      -8.996   2.739 122.072  0.00  0.00    +0.050 A 
ATOM     17  C   LIG A   1      -9.070   1.961 123.234  0.00  0.00    +0.012 A 
BRANCH  14  18
ATOM     18  O   LIG A   1      -5.458   3.688 122.137  0.00  0.00    -0.503 OA
ATOM     19  H   LIG A   1      -4.817   3.494 122.842  0.00  0.00    +0.292 HD
ENDBRANCH  14  18
BRANCH  15  20
ATOM     20  O   LIG A   1      -7.884   4.040 120.507  0.00  0.00    -0.491 OA
ATOM     21  C   LIG A   1      -9.141   4.017 119.842  0.00  0.00    +0.277 C 
ENDBRANCH  15  20
ENDBRANCH  11  12
BRANCH   6  22
ATOM     22  O   LIG A   1      -7.953  -3.103 130.248  0.00  0.00    -0.488 OA
BRANCH  22  23
ATOM     23  C   LIG A   1      -7.117  -2.431 131.187  0.00  0.00    +0.256 C 
BRANCH  23  24
ATOM     24  C   LIG A   1      -6.471  -3.488 132.034  0.00  0.00    +0.012 C 
ATOM     25  C   LIG A   1      -5.469  -4.318 131.683  0.00  0.00    -0.076 C 
ATOM     26  C   LIG A   1      -4.780  -4.308 130.347  0.00  0.00    +0.038 C 
ATOM     27  C   LIG A   1      -4.914  -5.318 132.663  0.00  0.00    +0.038 C 
ENDBRANCH  23  24
ENDBRANCH  22  23
ENDBRANCH   6  22
TORSDOF 6
ENDMDL
