MODEL 1
REMARK VINA RESULT:      -6.6      0.000      0.000
REMARK  Name = NuBBE_253
REMARK  3 active torsions:
REMARK  status: ('A' for Active; 'I' for Inactive)
REMARK    1  A    between atoms: O_1  and  C_2
REMARK    2  A    between atoms: C_5  and  O_7
REMARK    3  A    between atoms: C_8  and  O_10
REMARK                            x       y       z     vdW  Elec       q    Type
REMARK                         _______ _______ _______ _____ _____    ______ ____
ROOT
ATOM      1  C   LIG A   1     -11.590   8.428 128.630  0.00  0.00    +0.128 A 
ATOM      2  C   LIG A   1     -11.204   7.358 129.450  0.00  0.00    +0.065 A 
ATOM      3  C   LIG A   1     -11.823   7.174 130.702  0.00  0.00    -0.003 A 
ATOM      4  C   LIG A   1     -11.461   6.014 131.597  0.00  0.00    +0.174 C 
ATOM      5  C   LIG A   1     -10.773   4.874 130.814  0.00  0.00    +0.155 C 
ATOM      6  C   LIG A   1      -9.614   5.418 129.996  0.00  0.00    +0.114 C 
ATOM      7  C   LIG A   1     -10.133   6.425 129.002  0.00  0.00    +0.170 C 
ATOM      8  O   LIG A   1      -9.674   6.532 127.871  0.00  0.00    -0.292 OA
ATOM      9  C   LIG A   1     -12.792   8.103 131.124  0.00  0.00    +0.007 A 
ATOM     10  C   LIG A   1     -13.149   9.179 130.309  0.00  0.00    +0.004 A 
ATOM     11  C   LIG A   1     -12.553   9.336 129.059  0.00  0.00    +0.046 A 
ENDROOT
BRANCH   1  12
ATOM     12  O   LIG A   1     -11.060   8.651 127.387  0.00  0.00    -0.506 OA
ATOM     13  H   LIG A   1     -11.410   7.961 126.778  0.00  0.00    +0.292 HD
ENDBRANCH   1  12
BRANCH   4  14
ATOM     14  O   LIG A   1     -10.612   6.465 132.653  0.00  0.00    -0.385 OA
ATOM     15  H   LIG A   1     -10.642   7.437 132.681  0.00  0.00    +0.210 HD
ENDBRANCH   4  14
BRANCH   5  16
ATOM     16  O   LIG A   1     -10.287   3.831 131.662  0.00  0.00    -0.389 OA
ATOM     17  H   LIG A   1      -9.598   3.342 131.181  0.00  0.00    +0.210 HD
ENDBRANCH   5  16
TORSDOF 3
ENDMDL
MODEL 2
REMARK VINA RESULT:      -6.0      1.813      2.363
REMARK  Name = NuBBE_253
REMARK  3 active torsions:
REMARK  status: ('A' for Active; 'I' for Inactive)
REMARK    1  A    between atoms: O_1  and  C_2
REMARK    2  A    between atoms: C_5  and  O_7
REMARK    3  A    between atoms: C_8  and  O_10
REMARK                            x       y       z     vdW  Elec       q    Type
REMARK                         _______ _______ _______ _____ _____    ______ ____
ROOT
ATOM      1  C   LIG A   1     -11.158   6.857 127.154  0.00  0.00    +0.128 A 
ATOM      2  C   LIG A   1     -11.287   6.775 128.548  0.00  0.00    +0.065 A 
ATOM      3  C   LIG A   1     -12.543   6.982 129.150  0.00  0.00    -0.003 A 
ATOM      4  C   LIG A   1     -12.728   6.868 130.644  0.00  0.00    +0.174 C 
ATOM      5  C   LIG A   1     -11.592   6.057 131.306  0.00  0.00    +0.155 C 
ATOM      6  C   LIG A   1     -10.238   6.604 130.884  0.00  0.00    +0.114 C 
ATOM      7  C   LIG A   1     -10.094   6.481 129.389  0.00  0.00    +0.170 C 
ATOM      8  O   LIG A   1      -9.029   6.202 128.851  0.00  0.00    -0.292 OA
ATOM      9  C   LIG A   1     -13.642   7.313 128.336  0.00  0.00    +0.007 A 
ATOM     10  C   LIG A   1     -13.494   7.417 126.951  0.00  0.00    +0.004 A 
ATOM     11  C   LIG A   1     -12.255   7.181 126.361  0.00  0.00    +0.046 A 
ENDROOT
BRANCH   1  12
ATOM     12  O   LIG A   1      -9.979   6.634 126.494  0.00  0.00    -0.506 OA
ATOM     13  H   LIG A   1      -9.314   7.275 126.833  0.00  0.00    +0.292 HD
ENDBRANCH   1  12
BRANCH   4  14
ATOM     14  O   LIG A   1     -12.804   8.170 131.223  0.00  0.00    -0.385 OA
ATOM     15  H   LIG A   1     -13.514   8.172 131.888  0.00  0.00    +0.210 HD
ENDBRANCH   4  14
BRANCH   5  16
ATOM     16  O   LIG A   1     -11.665   6.061 132.734  0.00  0.00    -0.389 OA
ATOM     17  H   LIG A   1     -11.077   6.759 133.067  0.00  0.00    +0.210 HD
ENDBRANCH   5  16
TORSDOF 3
ENDMDL
MODEL 3
REMARK VINA RESULT:      -5.8      1.835      3.938
REMARK  Name = NuBBE_253
REMARK  3 active torsions:
REMARK  status: ('A' for Active; 'I' for Inactive)
REMARK    1  A    between atoms: O_1  and  C_2
REMARK    2  A    between atoms: C_5  and  O_7
REMARK    3  A    between atoms: C_8  and  O_10
REMARK                            x       y       z     vdW  Elec       q    Type
REMARK                         _______ _______ _______ _____ _____    ______ ____
ROOT
ATOM      1  C   LIG A   1      -9.222   5.557 129.508  0.00  0.00    +0.128 A 
ATOM      2  C   LIG A   1     -10.252   6.476 129.263  0.00  0.00    +0.065 A 
ATOM      3  C   LIG A   1     -11.034   6.957 130.332  0.00  0.00    -0.003 A 
ATOM      4  C   LIG A   1     -12.128   7.974 130.113  0.00  0.00    +0.174 C 
ATOM      5  C   LIG A   1     -11.947   8.737 128.782  0.00  0.00    +0.155 C 
ATOM      6  C   LIG A   1     -11.763   7.760 127.632  0.00  0.00    +0.114 C 
ATOM      7  C   LIG A   1     -10.525   6.935 127.873  0.00  0.00    +0.170 C 
ATOM      8  O   LIG A   1      -9.776   6.592 126.966  0.00  0.00    -0.292 OA
ATOM      9  C   LIG A   1     -10.791   6.464 131.627  0.00  0.00    +0.007 A 
ATOM     10  C   LIG A   1      -9.779   5.529 131.854  0.00  0.00    +0.004 A 
ATOM     11  C   LIG A   1      -8.991   5.082 130.796  0.00  0.00    +0.046 A 
ENDROOT
BRANCH   1  12
ATOM     12  O   LIG A   1      -8.399   5.073 128.528  0.00  0.00    -0.506 OA
ATOM     13  H   LIG A   1      -8.946   4.542 127.904  0.00  0.00    +0.292 HD
ENDBRANCH   1  12
BRANCH   4  14
ATOM     14  O   LIG A   1     -13.400   7.328 130.139  0.00  0.00    -0.385 OA
ATOM     15  H   LIG A   1     -13.979   7.810 130.755  0.00  0.00    +0.210 HD
ENDBRANCH   4  14
BRANCH   5  16
ATOM     16  O   LIG A   1     -13.048   9.599 128.481  0.00  0.00    -0.389 OA
ATOM     17  H   LIG A   1     -12.695  10.471 128.237  0.00  0.00    +0.210 HD
ENDBRANCH   5  16
TORSDOF 3
ENDMDL
MODEL 4
REMARK VINA RESULT:      -5.7      1.459      3.875
REMARK  Name = NuBBE_253
REMARK  3 active torsions:
REMARK  status: ('A' for Active; 'I' for Inactive)
REMARK    1  A    between atoms: O_1  and  C_2
REMARK    2  A    between atoms: C_5  and  O_7
REMARK    3  A    between atoms: C_8  and  O_10
REMARK                            x       y       z     vdW  Elec       q    Type
REMARK                         _______ _______ _______ _____ _____    ______ ____
ROOT
ATOM      1  C   LIG A   1     -10.812   6.451 130.950  0.00  0.00    +0.128 A 
ATOM      2  C   LIG A   1     -10.915   6.776 129.590  0.00  0.00    +0.065 A 
ATOM      3  C   LIG A   1     -12.042   7.477 129.118  0.00  0.00    -0.003 A 
ATOM      4  C   LIG A   1     -12.171   7.876 127.668  0.00  0.00    +0.174 C 
ATOM      5  C   LIG A   1     -10.805   7.880 126.947  0.00  0.00    +0.155 C 
ATOM      6  C   LIG A   1     -10.085   6.560 127.170  0.00  0.00    +0.114 C 
ATOM      7  C   LIG A   1      -9.839   6.369 128.644  0.00  0.00    +0.170 C 
ATOM      8  O   LIG A   1      -8.816   5.852 129.080  0.00  0.00    -0.292 OA
ATOM      9  C   LIG A   1     -13.070   7.800 130.023  0.00  0.00    +0.007 A 
ATOM     10  C   LIG A   1     -12.968   7.447 131.370  0.00  0.00    +0.004 A 
ATOM     11  C   LIG A   1     -11.836   6.780 131.834  0.00  0.00    +0.046 A 
ENDROOT
BRANCH   1  12
ATOM     12  O   LIG A   1      -9.733   5.803 131.488  0.00  0.00    -0.506 OA
ATOM     13  H   LIG A   1      -9.602   4.963 130.991  0.00  0.00    +0.292 HD
ENDBRANCH   1  12
BRANCH   4  14
ATOM     14  O   LIG A   1     -13.075   6.994 127.003  0.00  0.00    -0.385 OA
ATOM     15  H   LIG A   1     -12.688   6.102 126.996  0.00  0.00    +0.210 HD
ENDBRANCH   4  14
BRANCH   5  16
ATOM     16  O   LIG A   1     -10.920   8.109 125.540  0.00  0.00    -0.389 OA
ATOM     17  H   LIG A   1     -10.046   8.367 125.201  0.00  0.00    +0.210 HD
ENDBRANCH   5  16
TORSDOF 3
ENDMDL
MODEL 5
REMARK VINA RESULT:      -5.7      8.653     10.773
REMARK  Name = NuBBE_253
REMARK  3 active torsions:
REMARK  status: ('A' for Active; 'I' for Inactive)
REMARK    1  A    between atoms: O_1  and  C_2
REMARK    2  A    between atoms: C_5  and  O_7
REMARK    3  A    between atoms: C_8  and  O_10
REMARK                            x       y       z     vdW  Elec       q    Type
REMARK                         _______ _______ _______ _____ _____    ______ ____
ROOT
ATOM      1  C   LIG A   1      -8.883  -1.791 123.314  0.00  0.00    +0.128 A 
ATOM      2  C   LIG A   1      -8.663  -0.407 123.353  0.00  0.00    +0.065 A 
ATOM      3  C   LIG A   1      -7.398   0.094 123.716  0.00  0.00    -0.003 A 
ATOM      4  C   LIG A   1      -7.113   1.576 123.735  0.00  0.00    +0.174 C 
ATOM      5  C   LIG A   1      -8.127   2.369 122.881  0.00  0.00    +0.155 C 
ATOM      6  C   LIG A   1      -9.549   2.001 123.271  0.00  0.00    +0.114 C 
ATOM      7  C   LIG A   1      -9.771   0.532 123.021  0.00  0.00    +0.170 C 
ATOM      8  O   LIG A   1     -10.835   0.087 122.607  0.00  0.00    -0.292 OA
ATOM      9  C   LIG A   1      -6.386  -0.814 124.079  0.00  0.00    +0.007 A 
ATOM     10  C   LIG A   1      -6.625  -2.189 124.062  0.00  0.00    +0.004 A 
ATOM     11  C   LIG A   1      -7.871  -2.677 123.672  0.00  0.00    +0.046 A 
ENDROOT
BRANCH   1  12
ATOM     12  O   LIG A   1     -10.073  -2.353 122.937  0.00  0.00    -0.506 OA
ATOM     13  H   LIG A   1     -10.733  -1.629 122.836  0.00  0.00    +0.292 HD
ENDBRANCH   1  12
BRANCH   4  14
ATOM     14  O   LIG A   1      -7.125   2.054 125.080  0.00  0.00    -0.385 OA
ATOM     15  H   LIG A   1      -6.345   2.620 125.214  0.00  0.00    +0.210 HD
ENDBRANCH   4  14
BRANCH   5  16
ATOM     16  O   LIG A   1      -7.969   3.785 123.002  0.00  0.00    -0.389 OA
ATOM     17  H   LIG A   1      -8.787   4.211 122.695  0.00  0.00    +0.210 HD
ENDBRANCH   5  16
TORSDOF 3
ENDMDL
MODEL 6
REMARK VINA RESULT:      -5.4      8.730     10.316
REMARK  Name = NuBBE_253
REMARK  3 active torsions:
REMARK  status: ('A' for Active; 'I' for Inactive)
REMARK    1  A    between atoms: O_1  and  C_2
REMARK    2  A    between atoms: C_5  and  O_7
REMARK    3  A    between atoms: C_8  and  O_10
REMARK                            x       y       z     vdW  Elec       q    Type
REMARK                         _______ _______ _______ _____ _____    ______ ____
ROOT
ATOM      1  C   LIG A   1      -9.369   0.977 124.859  0.00  0.00    +0.128 A 
ATOM      2  C   LIG A   1      -9.055  -0.388 124.790  0.00  0.00    +0.065 A 
ATOM      3  C   LIG A   1      -9.249  -1.094 123.587  0.00  0.00    -0.003 A 
ATOM      4  C   LIG A   1      -8.888  -2.555 123.465  0.00  0.00    +0.174 C 
ATOM      5  C   LIG A   1      -7.889  -2.996 124.558  0.00  0.00    +0.155 C 
ATOM      6  C   LIG A   1      -8.395  -2.590 125.932  0.00  0.00    +0.114 C 
ATOM      7  C   LIG A   1      -8.527  -1.090 125.993  0.00  0.00    +0.170 C 
ATOM      8  O   LIG A   1      -8.265  -0.446 127.002  0.00  0.00    -0.292 OA
ATOM      9  C   LIG A   1      -9.801  -0.419 122.484  0.00  0.00    +0.007 A 
ATOM     10  C   LIG A   1     -10.135   0.934 122.573  0.00  0.00    +0.004 A 
ATOM     11  C   LIG A   1      -9.911   1.633 123.757  0.00  0.00    +0.046 A 
ENDROOT
BRANCH   1  12
ATOM     12  O   LIG A   1      -9.175   1.738 125.980  0.00  0.00    -0.506 OA
ATOM     13  H   LIG A   1      -8.845   2.621 125.696  0.00  0.00    +0.292 HD
ENDBRANCH   1  12
BRANCH   4  14
ATOM     14  O   LIG A   1     -10.071  -3.352 123.531  0.00  0.00    -0.385 OA
ATOM     15  H   LIG A   1     -10.582  -3.084 124.314  0.00  0.00    +0.210 HD
ENDBRANCH   4  14
BRANCH   5  16
ATOM     16  O   LIG A   1      -7.648  -4.405 124.554  0.00  0.00    -0.389 OA
ATOM     17  H   LIG A   1      -8.386  -4.842 125.012  0.00  0.00    +0.210 HD
ENDBRANCH   5  16
TORSDOF 3
ENDMDL
MODEL 7
REMARK VINA RESULT:      -5.3     10.424     11.363
REMARK  Name = NuBBE_253
REMARK  3 active torsions:
REMARK  status: ('A' for Active; 'I' for Inactive)
REMARK    1  A    between atoms: O_1  and  C_2
REMARK    2  A    between atoms: C_5  and  O_7
REMARK    3  A    between atoms: C_8  and  O_10
REMARK                            x       y       z     vdW  Elec       q    Type
REMARK                         _______ _______ _______ _____ _____    ______ ____
ROOT
ATOM      1  C   LIG A   1      -6.450  -1.966 127.419  0.00  0.00    +0.128 A 
ATOM      2  C   LIG A   1      -7.430  -2.227 126.451  0.00  0.00    +0.065 A 
ATOM      3  C   LIG A   1      -7.348  -1.614 125.185  0.00  0.00    -0.003 A 
ATOM      4  C   LIG A   1      -8.364  -1.899 124.106  0.00  0.00    +0.174 C 
ATOM      5  C   LIG A   1      -9.125  -3.218 124.363  0.00  0.00    +0.155 C 
ATOM      6  C   LIG A   1      -9.692  -3.235 125.774  0.00  0.00    +0.114 C 
ATOM      7  C   LIG A   1      -8.561  -3.143 126.766  0.00  0.00    +0.170 C 
ATOM      8  O   LIG A   1      -8.568  -3.750 127.831  0.00  0.00    -0.292 OA
ATOM      9  C   LIG A   1      -6.299  -0.711 124.934  0.00  0.00    +0.007 A 
ATOM     10  C   LIG A   1      -5.344  -0.439 125.916  0.00  0.00    +0.004 A 
ATOM     11  C   LIG A   1      -5.416  -1.072 127.154  0.00  0.00    +0.046 A 
ENDROOT
BRANCH   1  12
ATOM     12  O   LIG A   1      -6.442  -2.550 128.657  0.00  0.00    -0.506 OA
ATOM     13  H   LIG A   1      -6.462  -1.834 129.333  0.00  0.00    +0.292 HD
ENDBRANCH   1  12
BRANCH   4  14
ATOM     14  O   LIG A   1      -9.284  -0.812 124.008  0.00  0.00    -0.385 OA
ATOM     15  H   LIG A   1      -9.459  -0.474 124.903  0.00  0.00    +0.210 HD
ENDBRANCH   4  14
BRANCH   5  16
ATOM     16  O   LIG A   1     -10.193  -3.433 123.436  0.00  0.00    -0.389 OA
ATOM     17  H   LIG A   1      -9.807  -3.651 122.571  0.00  0.00    +0.210 HD
ENDBRANCH   5  16
TORSDOF 3
ENDMDL
MODEL 8
REMARK VINA RESULT:      -5.2      7.789      9.887
REMARK  Name = NuBBE_253
REMARK  3 active torsions:
REMARK  status: ('A' for Active; 'I' for Inactive)
REMARK    1  A    between atoms: O_1  and  C_2
REMARK    2  A    between atoms: C_5  and  O_7
REMARK    3  A    between atoms: C_8  and  O_10
REMARK                            x       y       z     vdW  Elec       q    Type
REMARK                         _______ _______ _______ _____ _____    ______ ____
ROOT
ATOM      1  C   LIG A   1      -8.969  -2.033 124.240  0.00  0.00    +0.128 A 
ATOM      2  C   LIG A   1      -9.036  -0.657 124.501  0.00  0.00    +0.065 A 
ATOM      3  C   LIG A   1      -8.383  -0.122 125.629  0.00  0.00    -0.003 A 
ATOM      4  C   LIG A   1      -8.403   1.358 125.921  0.00  0.00    +0.174 C 
ATOM      5  C   LIG A   1      -8.749   2.190 124.667  0.00  0.00    +0.155 C 
ATOM      6  C   LIG A   1     -10.019   1.665 124.017  0.00  0.00    +0.114 C 
ATOM      7  C   LIG A   1      -9.806   0.235 123.590  0.00  0.00    +0.170 C 
ATOM      8  O   LIG A   1     -10.283  -0.222 122.558  0.00  0.00    -0.292 OA
ATOM      9  C   LIG A   1      -7.709  -0.996 126.502  0.00  0.00    +0.007 A 
ATOM     10  C   LIG A   1      -7.672  -2.368 126.246  0.00  0.00    +0.004 A 
ATOM     11  C   LIG A   1      -8.295  -2.885 125.111  0.00  0.00    +0.046 A 
ENDROOT
BRANCH   1  12
ATOM     12  O   LIG A   1      -9.546  -2.621 123.147  0.00  0.00    -0.506 OA
ATOM     13  H   LIG A   1      -9.981  -3.453 123.442  0.00  0.00    +0.292 HD
ENDBRANCH   1  12
BRANCH   4  14
ATOM     14  O   LIG A   1      -9.337   1.632 126.965  0.00  0.00    -0.385 OA
ATOM     15  H   LIG A   1     -10.150   1.987 126.567  0.00  0.00    +0.210 HD
ENDBRANCH   4  14
BRANCH   5  16
ATOM     16  O   LIG A   1      -8.920   3.581 124.951  0.00  0.00    -0.389 OA
ATOM     17  H   LIG A   1      -8.721   3.726 125.892  0.00  0.00    +0.210 HD
ENDBRANCH   5  16
TORSDOF 3
ENDMDL
MODEL 9
REMARK VINA RESULT:      -5.1     10.306     11.144
REMARK  Name = NuBBE_253
REMARK  3 active torsions:
REMARK  status: ('A' for Active; 'I' for Inactive)
REMARK    1  A    between atoms: O_1  and  C_2
REMARK    2  A    between atoms: C_5  and  O_7
REMARK    3  A    between atoms: C_8  and  O_10
REMARK                            x       y       z     vdW  Elec       q    Type
REMARK                         _______ _______ _______ _____ _____    ______ ____
ROOT
ATOM      1  C   LIG A   1      -6.097  -2.098 127.946  0.00  0.00    +0.128 A 
ATOM      2  C   LIG A   1      -6.906  -1.954 126.811  0.00  0.00    +0.065 A 
ATOM      3  C   LIG A   1      -8.182  -2.550 126.776  0.00  0.00    -0.003 A 
ATOM      4  C   LIG A   1      -9.095  -2.387 125.586  0.00  0.00    +0.174 C 
ATOM      5  C   LIG A   1      -8.703  -1.169 124.720  0.00  0.00    +0.155 C 
ATOM      6  C   LIG A   1      -7.225  -1.222 124.370  0.00  0.00    +0.114 C 
ATOM      7  C   LIG A   1      -6.411  -1.181 125.638  0.00  0.00    +0.170 C 
ATOM      8  O   LIG A   1      -5.345  -0.581 125.717  0.00  0.00    -0.292 OA
ATOM      9  C   LIG A   1      -8.602  -3.321 127.875  0.00  0.00    +0.007 A 
ATOM     10  C   LIG A   1      -7.776  -3.479 128.990  0.00  0.00    +0.004 A 
ATOM     11  C   LIG A   1      -6.528  -2.861 129.028  0.00  0.00    +0.046 A 
ENDROOT
BRANCH   1  12
ATOM     12  O   LIG A   1      -4.862  -1.520 128.068  0.00  0.00    -0.506 OA
ATOM     13  H   LIG A   1      -4.531  -1.697 128.978  0.00  0.00    +0.292 HD
ENDBRANCH   1  12
BRANCH   4  14
ATOM     14  O   LIG A   1      -9.078  -3.575 124.796  0.00  0.00    -0.385 OA
ATOM     15  H   LIG A   1      -9.591  -3.416 123.985  0.00  0.00    +0.210 HD
ENDBRANCH   4  14
BRANCH   5  16
ATOM     16  O   LIG A   1      -9.459  -1.080 123.510  0.00  0.00    -0.389 OA
ATOM     17  H   LIG A   1     -10.241  -0.528 123.678  0.00  0.00    +0.210 HD
ENDBRANCH   5  16
TORSDOF 3
ENDMDL
