MODEL 1
REMARK VINA RESULT:      -5.8      0.000      0.000
REMARK  Name = NuBBE_2216
REMARK  7 active torsions:
REMARK  status: ('A' for Active; 'I' for Inactive)
REMARK    1  A    between atoms: C_1  and  C_2
REMARK    2  A    between atoms: C_5  and  O_12
REMARK    3  A    between atoms: C_6  and  O_10
REMARK    4  A    between atoms: C_7  and  O_8
REMARK    5  A    between atoms: O_8  and  C_9
REMARK    6  A    between atoms: O_10  and  C_11
REMARK    7  A    between atoms: C_16  and  C_19
REMARK                            x       y       z     vdW  Elec       q    Type
REMARK                         _______ _______ _______ _____ _____    ______ ____
ROOT
ATOM      1  C   LIG A   1      -5.296  -0.621 125.453  0.00  0.00    +0.048 C 
ATOM      2  C   LIG A   1      -6.619   0.046 125.161  0.00  0.00    -0.001 A 
ATOM      3  C   LIG A   1      -7.549  -0.537 124.275  0.00  0.00    -0.020 A 
ATOM      4  C   LIG A   1      -8.733   0.154 123.963  0.00  0.00    +0.108 A 
ATOM      5  C   LIG A   1      -9.041   1.374 124.596  0.00  0.00    +0.177 A 
ATOM      6  C   LIG A   1      -8.166   1.922 125.551  0.00  0.00    +0.204 A 
ATOM      7  C   LIG A   1      -6.958   1.245 125.834  0.00  0.00    +0.168 A 
ATOM      8  C   LIG A   1      -9.659  -0.398 122.935  0.00  0.00    +0.343 C 
ATOM      9  O   LIG A   1     -10.544   0.308 122.458  0.00  0.00    -0.245 OA
ATOM     10  O   LIG A   1      -9.485  -1.682 122.543  0.00  0.00    -0.458 OA
ATOM     11  C   LIG A   1      -8.631  -2.558 123.299  0.00  0.00    +0.178 C 
ATOM     12  C   LIG A   1      -7.307  -1.869 123.615  0.00  0.00    +0.080 C 
ATOM     13  C   LIG A   1      -9.380  -3.076 124.525  0.00  0.00    +0.052 C 
ENDROOT
BRANCH   7  14
ATOM     14  O   LIG A   1      -5.980   1.710 126.686  0.00  0.00    -0.491 OA
ATOM     15  C   LIG A   1      -5.015   2.603 126.142  0.00  0.00    +0.277 C 
ENDBRANCH   7  14
BRANCH   6  16
ATOM     16  O   LIG A   1      -8.403   3.068 126.265  0.00  0.00    -0.488 OA
ATOM     17  C   LIG A   1      -8.123   4.321 125.656  0.00  0.00    +0.277 C 
ENDBRANCH   6  16
BRANCH   5  18
ATOM     18  O   LIG A   1     -10.217   2.027 124.311  0.00  0.00    -0.503 OA
ATOM     19  H   LIG A   1     -10.115   2.988 124.496  0.00  0.00    +0.292 HD
ENDBRANCH   5  18
TORSDOF 3
ENDMDL
MODEL 2
REMARK VINA RESULT:      -5.8      1.889      4.471
REMARK  Name = NuBBE_2216
REMARK  7 active torsions:
REMARK  status: ('A' for Active; 'I' for Inactive)
REMARK    1  A    between atoms: C_1  and  C_2
REMARK    2  A    between atoms: C_5  and  O_12
REMARK    3  A    between atoms: C_6  and  O_10
REMARK    4  A    between atoms: C_7  and  O_8
REMARK    5  A    between atoms: O_8  and  C_9
REMARK    6  A    between atoms: O_10  and  C_11
REMARK    7  A    between atoms: C_16  and  C_19
REMARK                            x       y       z     vdW  Elec       q    Type
REMARK                         _______ _______ _______ _____ _____    ______ ____
ROOT
ATOM      1  C   LIG A   1      -5.217  -0.144 125.763  0.00  0.00    +0.048 C 
ATOM      2  C   LIG A   1      -6.449  -0.234 124.892  0.00  0.00    -0.001 A 
ATOM      3  C   LIG A   1      -7.135   0.927 124.479  0.00  0.00    -0.020 A 
ATOM      4  C   LIG A   1      -8.324   0.801 123.741  0.00  0.00    +0.108 A 
ATOM      5  C   LIG A   1      -8.784  -0.466 123.330  0.00  0.00    +0.177 A 
ATOM      6  C   LIG A   1      -8.060  -1.626 123.655  0.00  0.00    +0.204 A 
ATOM      7  C   LIG A   1      -6.885  -1.500 124.431  0.00  0.00    +0.168 A 
ATOM      8  C   LIG A   1      -9.118   2.017 123.409  0.00  0.00    +0.343 C 
ATOM      9  O   LIG A   1     -10.275   1.909 123.009  0.00  0.00    -0.245 OA
ATOM     10  O   LIG A   1      -8.532   3.226 123.574  0.00  0.00    -0.458 OA
ATOM     11  C   LIG A   1      -7.112   3.318 123.778  0.00  0.00    +0.178 C 
ATOM     12  C   LIG A   1      -6.660   2.312 124.832  0.00  0.00    +0.080 C 
ATOM     13  C   LIG A   1      -6.388   3.194 122.438  0.00  0.00    +0.052 C 
ENDROOT
BRANCH   7  14
ATOM     14  O   LIG A   1      -6.128  -2.558 124.885  0.00  0.00    -0.491 OA
ATOM     15  C   LIG A   1      -5.220  -3.150 123.963  0.00  0.00    +0.277 C 
ENDBRANCH   7  14
BRANCH   6  16
ATOM     16  O   LIG A   1      -8.389  -2.895 123.252  0.00  0.00    -0.488 OA
ATOM     17  C   LIG A   1      -9.361  -3.617 123.996  0.00  0.00    +0.277 C 
ENDBRANCH   6  16
BRANCH   5  18
ATOM     18  O   LIG A   1      -9.930  -0.578 122.578  0.00  0.00    -0.503 OA
ATOM     19  H   LIG A   1     -10.035   0.221 122.013  0.00  0.00    +0.292 HD
ENDBRANCH   5  18
TORSDOF 3
ENDMDL
MODEL 3
REMARK VINA RESULT:      -5.7      3.286      4.791
REMARK  Name = NuBBE_2216
REMARK  7 active torsions:
REMARK  status: ('A' for Active; 'I' for Inactive)
REMARK    1  A    between atoms: C_1  and  C_2
REMARK    2  A    between atoms: C_5  and  O_12
REMARK    3  A    between atoms: C_6  and  O_10
REMARK    4  A    between atoms: C_7  and  O_8
REMARK    5  A    between atoms: O_8  and  C_9
REMARK    6  A    between atoms: O_10  and  C_11
REMARK    7  A    between atoms: C_16  and  C_19
REMARK                            x       y       z     vdW  Elec       q    Type
REMARK                         _______ _______ _______ _____ _____    ______ ____
ROOT
ATOM      1  C   LIG A   1      -5.259   0.016 126.238  0.00  0.00    +0.048 C 
ATOM      2  C   LIG A   1      -6.569  -0.733 126.167  0.00  0.00    -0.001 A 
ATOM      3  C   LIG A   1      -6.953  -1.629 127.185  0.00  0.00    -0.020 A 
ATOM      4  C   LIG A   1      -8.138  -2.371 127.044  0.00  0.00    +0.108 A 
ATOM      5  C   LIG A   1      -8.991  -2.160 125.942  0.00  0.00    +0.177 A 
ATOM      6  C   LIG A   1      -8.667  -1.202 124.965  0.00  0.00    +0.204 A 
ATOM      7  C   LIG A   1      -7.455  -0.485 125.090  0.00  0.00    +0.168 A 
ATOM      8  C   LIG A   1      -8.483  -3.408 128.056  0.00  0.00    +0.343 C 
ATOM      9  O   LIG A   1      -9.355  -4.240 127.814  0.00  0.00    -0.245 OA
ATOM     10  O   LIG A   1      -7.805  -3.408 129.227  0.00  0.00    -0.458 OA
ATOM     11  C   LIG A   1      -6.994  -2.278 129.591  0.00  0.00    +0.178 C 
ATOM     12  C   LIG A   1      -6.116  -1.853 128.419  0.00  0.00    +0.080 C 
ATOM     13  C   LIG A   1      -7.880  -1.166 130.150  0.00  0.00    +0.052 C 
ENDROOT
BRANCH   7  14
ATOM     14  O   LIG A   1      -6.982   0.421 124.166  0.00  0.00    -0.491 OA
ATOM     15  C   LIG A   1      -7.526   1.735 124.205  0.00  0.00    +0.277 C 
ENDBRANCH   7  14
BRANCH   6  16
ATOM     16  O   LIG A   1      -9.457  -0.879 123.892  0.00  0.00    -0.488 OA
ATOM     17  C   LIG A   1      -9.269  -1.580 122.670  0.00  0.00    +0.277 C 
ENDBRANCH   6  16
BRANCH   5  18
ATOM     18  O   LIG A   1     -10.165  -2.865 125.828  0.00  0.00    -0.503 OA
ATOM     19  H   LIG A   1     -10.221  -3.271 124.934  0.00  0.00    +0.292 HD
ENDBRANCH   5  18
TORSDOF 3
ENDMDL
MODEL 4
REMARK VINA RESULT:      -5.6      1.433      4.776
REMARK  Name = NuBBE_2216
REMARK  7 active torsions:
REMARK  status: ('A' for Active; 'I' for Inactive)
REMARK    1  A    between atoms: C_1  and  C_2
REMARK    2  A    between atoms: C_5  and  O_12
REMARK    3  A    between atoms: C_6  and  O_10
REMARK    4  A    between atoms: C_7  and  O_8
REMARK    5  A    between atoms: O_8  and  C_9
REMARK    6  A    between atoms: O_10  and  C_11
REMARK    7  A    between atoms: C_16  and  C_19
REMARK                            x       y       z     vdW  Elec       q    Type
REMARK                         _______ _______ _______ _____ _____    ______ ____
ROOT
ATOM      1  C   LIG A   1      -5.183  -0.229 125.836  0.00  0.00    +0.048 C 
ATOM      2  C   LIG A   1      -6.434   0.528 125.456  0.00  0.00    -0.001 A 
ATOM      3  C   LIG A   1      -6.522   1.924 125.630  0.00  0.00    -0.020 A 
ATOM      4  C   LIG A   1      -7.731   2.583 125.345  0.00  0.00    +0.108 A 
ATOM      5  C   LIG A   1      -8.822   1.877 124.800  0.00  0.00    +0.177 A 
ATOM      6  C   LIG A   1      -8.718   0.500 124.534  0.00  0.00    +0.204 A 
ATOM      7  C   LIG A   1      -7.514  -0.167 124.858  0.00  0.00    +0.168 A 
ATOM      8  C   LIG A   1      -7.867   4.035 125.644  0.00  0.00    +0.343 C 
ATOM      9  O   LIG A   1      -8.978   4.561 125.657  0.00  0.00    -0.245 OA
ATOM     10  O   LIG A   1      -6.743   4.741 125.908  0.00  0.00    -0.458 OA
ATOM     11  C   LIG A   1      -5.453   4.175 125.623  0.00  0.00    +0.178 C 
ATOM     12  C   LIG A   1      -5.370   2.746 126.148  0.00  0.00    +0.080 C 
ATOM     13  C   LIG A   1      -5.144   4.317 124.133  0.00  0.00    +0.052 C 
ENDROOT
BRANCH   7  14
ATOM     14  O   LIG A   1      -7.308  -1.523 124.724  0.00  0.00    -0.491 OA
ATOM     15  C   LIG A   1      -6.890  -1.993 123.448  0.00  0.00    +0.277 C 
ENDBRANCH   7  14
BRANCH   6  16
ATOM     16  O   LIG A   1      -9.697  -0.263 123.950  0.00  0.00    -0.488 OA
ATOM     17  C   LIG A   1      -9.922  -0.131 122.553  0.00  0.00    +0.277 C 
ENDBRANCH   6  16
BRANCH   5  18
ATOM     18  O   LIG A   1      -9.989   2.533 124.491  0.00  0.00    -0.503 OA
ATOM     19  H   LIG A   1     -10.567   2.572 125.287  0.00  0.00    +0.292 HD
ENDBRANCH   5  18
TORSDOF 3
ENDMDL
MODEL 5
REMARK VINA RESULT:      -5.6      2.152      4.321
REMARK  Name = NuBBE_2216
REMARK  7 active torsions:
REMARK  status: ('A' for Active; 'I' for Inactive)
REMARK    1  A    between atoms: C_1  and  C_2
REMARK    2  A    between atoms: C_5  and  O_12
REMARK    3  A    between atoms: C_6  and  O_10
REMARK    4  A    between atoms: C_7  and  O_8
REMARK    5  A    between atoms: O_8  and  C_9
REMARK    6  A    between atoms: O_10  and  C_11
REMARK    7  A    between atoms: C_16  and  C_19
REMARK                            x       y       z     vdW  Elec       q    Type
REMARK                         _______ _______ _______ _____ _____    ______ ____
ROOT
ATOM      1  C   LIG A   1      -7.743   0.840 127.718  0.00  0.00    +0.048 C 
ATOM      2  C   LIG A   1      -8.257   0.122 126.493  0.00  0.00    -0.001 A 
ATOM      3  C   LIG A   1      -8.676   0.836 125.352  0.00  0.00    -0.020 A 
ATOM      4  C   LIG A   1      -9.228   0.140 124.263  0.00  0.00    +0.108 A 
ATOM      5  C   LIG A   1      -9.279  -1.268 124.262  0.00  0.00    +0.177 A 
ATOM      6  C   LIG A   1      -8.779  -1.999 125.355  0.00  0.00    +0.204 A 
ATOM      7  C   LIG A   1      -8.261  -1.294 126.465  0.00  0.00    +0.168 A 
ATOM      8  C   LIG A   1      -9.786   0.898 123.109  0.00  0.00    +0.343 C 
ATOM      9  O   LIG A   1     -10.504   0.332 122.287  0.00  0.00    -0.245 OA
ATOM     10  O   LIG A   1      -9.488   2.215 123.006  0.00  0.00    -0.458 OA
ATOM     11  C   LIG A   1      -8.443   2.782 123.813  0.00  0.00    +0.178 C 
ATOM     12  C   LIG A   1      -8.589   2.338 125.264  0.00  0.00    +0.080 C 
ATOM     13  C   LIG A   1      -7.082   2.467 123.192  0.00  0.00    +0.052 C 
ENDROOT
BRANCH   7  14
ATOM     14  O   LIG A   1      -7.814  -1.883 127.628  0.00  0.00    -0.491 OA
ATOM     15  C   LIG A   1      -6.455  -2.302 127.664  0.00  0.00    +0.277 C 
ENDBRANCH   7  14
BRANCH   6  16
ATOM     16  O   LIG A   1      -8.727  -3.368 125.425  0.00  0.00    -0.488 OA
ATOM     17  C   LIG A   1      -7.759  -4.054 124.642  0.00  0.00    +0.277 C 
ENDBRANCH   6  16
BRANCH   5  18
ATOM     18  O   LIG A   1      -9.789  -1.945 123.179  0.00  0.00    -0.503 OA
ATOM     19  H   LIG A   1      -9.467  -1.528 122.348  0.00  0.00    +0.292 HD
ENDBRANCH   5  18
TORSDOF 3
ENDMDL
MODEL 6
REMARK VINA RESULT:      -5.6      4.084      6.549
REMARK  Name = NuBBE_2216
REMARK  7 active torsions:
REMARK  status: ('A' for Active; 'I' for Inactive)
REMARK    1  A    between atoms: C_1  and  C_2
REMARK    2  A    between atoms: C_5  and  O_12
REMARK    3  A    between atoms: C_6  and  O_10
REMARK    4  A    between atoms: C_7  and  O_8
REMARK    5  A    between atoms: O_8  and  C_9
REMARK    6  A    between atoms: O_10  and  C_11
REMARK    7  A    between atoms: C_16  and  C_19
REMARK                            x       y       z     vdW  Elec       q    Type
REMARK                         _______ _______ _______ _____ _____    ______ ____
ROOT
ATOM      1  C   LIG A   1      -9.364  -4.021 128.097  0.00  0.00    +0.048 C 
ATOM      2  C   LIG A   1      -8.156  -3.140 127.884  0.00  0.00    -0.001 A 
ATOM      3  C   LIG A   1      -7.304  -2.800 128.955  0.00  0.00    -0.020 A 
ATOM      4  C   LIG A   1      -6.237  -1.911 128.736  0.00  0.00    +0.108 A 
ATOM      5  C   LIG A   1      -5.956  -1.432 127.441  0.00  0.00    +0.177 A 
ATOM      6  C   LIG A   1      -6.741  -1.836 126.347  0.00  0.00    +0.204 A 
ATOM      7  C   LIG A   1      -7.836  -2.699 126.576  0.00  0.00    +0.168 A 
ATOM      8  C   LIG A   1      -5.412  -1.453 129.888  0.00  0.00    +0.343 C 
ATOM      9  O   LIG A   1      -4.663  -0.486 129.764  0.00  0.00    -0.245 OA
ATOM     10  O   LIG A   1      -5.523  -2.121 131.060  0.00  0.00    -0.458 OA
ATOM     11  C   LIG A   1      -6.188  -3.395 131.103  0.00  0.00    +0.178 C 
ATOM     12  C   LIG A   1      -7.513  -3.330 130.350  0.00  0.00    +0.080 C 
ATOM     13  C   LIG A   1      -5.240  -4.489 130.615  0.00  0.00    +0.052 C 
ENDROOT
BRANCH   7  14
ATOM     14  O   LIG A   1      -8.729  -3.107 125.610  0.00  0.00    -0.491 OA
ATOM     15  C   LIG A   1      -8.259  -4.038 124.641  0.00  0.00    +0.277 C 
ENDBRANCH   7  14
BRANCH   6  16
ATOM     16  O   LIG A   1      -6.513  -1.477 125.043  0.00  0.00    -0.488 OA
ATOM     17  C   LIG A   1      -7.068  -0.259 124.564  0.00  0.00    +0.277 C 
ENDBRANCH   6  16
BRANCH   5  18
ATOM     18  O   LIG A   1      -4.891  -0.590 127.229  0.00  0.00    -0.503 OA
ATOM     19  H   LIG A   1      -4.054  -1.108 127.227  0.00  0.00    +0.292 HD
ENDBRANCH   5  18
TORSDOF 3
ENDMDL
MODEL 7
REMARK VINA RESULT:      -5.5      1.742      2.349
REMARK  Name = NuBBE_2216
REMARK  7 active torsions:
REMARK  status: ('A' for Active; 'I' for Inactive)
REMARK    1  A    between atoms: C_1  and  C_2
REMARK    2  A    between atoms: C_5  and  O_12
REMARK    3  A    between atoms: C_6  and  O_10
REMARK    4  A    between atoms: C_7  and  O_8
REMARK    5  A    between atoms: O_8  and  C_9
REMARK    6  A    between atoms: O_10  and  C_11
REMARK    7  A    between atoms: C_16  and  C_19
REMARK                            x       y       z     vdW  Elec       q    Type
REMARK                         _______ _______ _______ _____ _____    ______ ____
ROOT
ATOM      1  C   LIG A   1      -5.510   0.478 125.844  0.00  0.00    +0.048 C 
ATOM      2  C   LIG A   1      -6.790   0.287 125.064  0.00  0.00    -0.001 A 
ATOM      3  C   LIG A   1      -7.359  -0.992 124.897  0.00  0.00    -0.020 A 
ATOM      4  C   LIG A   1      -8.503  -1.142 124.095  0.00  0.00    +0.108 A 
ATOM      5  C   LIG A   1      -9.140  -0.017 123.535  0.00  0.00    +0.177 A 
ATOM      6  C   LIG A   1      -8.637   1.275 123.769  0.00  0.00    +0.204 A 
ATOM      7  C   LIG A   1      -7.464   1.419 124.544  0.00  0.00    +0.168 A 
ATOM      8  C   LIG A   1      -9.033  -2.506 123.815  0.00  0.00    +0.343 C 
ATOM      9  O   LIG A   1      -9.852  -2.676 122.915  0.00  0.00    -0.245 OA
ATOM     10  O   LIG A   1      -8.580  -3.534 124.569  0.00  0.00    -0.458 OA
ATOM     11  C   LIG A   1      -7.841  -3.274 125.774  0.00  0.00    +0.178 C 
ATOM     12  C   LIG A   1      -6.762  -2.226 125.523  0.00  0.00    +0.080 C 
ATOM     13  C   LIG A   1      -8.807  -2.924 126.906  0.00  0.00    +0.052 C 
ENDROOT
BRANCH   7  14
ATOM     14  O   LIG A   1      -6.824   2.616 124.782  0.00  0.00    -0.491 OA
ATOM     15  C   LIG A   1      -6.136   3.215 123.690  0.00  0.00    +0.277 C 
ENDBRANCH   7  14
BRANCH   6  16
ATOM     16  O   LIG A   1      -9.217   2.435 123.321  0.00  0.00    -0.488 OA
ATOM     17  C   LIG A   1      -8.913   2.887 122.009  0.00  0.00    +0.277 C 
ENDBRANCH   6  16
BRANCH   5  18
ATOM     18  O   LIG A   1     -10.278  -0.168 122.779  0.00  0.00    -0.503 OA
ATOM     19  H   LIG A   1     -10.182   0.325 121.933  0.00  0.00    +0.292 HD
ENDBRANCH   5  18
TORSDOF 3
ENDMDL
MODEL 8
REMARK VINA RESULT:      -5.4      2.635      5.981
REMARK  Name = NuBBE_2216
REMARK  7 active torsions:
REMARK  status: ('A' for Active; 'I' for Inactive)
REMARK    1  A    between atoms: C_1  and  C_2
REMARK    2  A    between atoms: C_5  and  O_12
REMARK    3  A    between atoms: C_6  and  O_10
REMARK    4  A    between atoms: C_7  and  O_8
REMARK    5  A    between atoms: O_8  and  C_9
REMARK    6  A    between atoms: O_10  and  C_11
REMARK    7  A    between atoms: C_16  and  C_19
REMARK                            x       y       z     vdW  Elec       q    Type
REMARK                         _______ _______ _______ _____ _____    ______ ____
ROOT
ATOM      1  C   LIG A   1      -5.675   0.066 126.507  0.00  0.00    +0.048 C 
ATOM      2  C   LIG A   1      -5.782   1.490 126.017  0.00  0.00    -0.001 A 
ATOM      3  C   LIG A   1      -5.013   2.521 126.597  0.00  0.00    -0.020 A 
ATOM      4  C   LIG A   1      -5.201   3.847 126.172  0.00  0.00    +0.108 A 
ATOM      5  C   LIG A   1      -6.078   4.144 125.111  0.00  0.00    +0.177 A 
ATOM      6  C   LIG A   1      -6.783   3.116 124.460  0.00  0.00    +0.204 A 
ATOM      7  C   LIG A   1      -6.622   1.787 124.915  0.00  0.00    +0.168 A 
ATOM      8  C   LIG A   1      -4.483   4.952 126.867  0.00  0.00    +0.343 C 
ATOM      9  O   LIG A   1      -4.831   6.118 126.696  0.00  0.00    -0.245 OA
ATOM     10  O   LIG A   1      -3.457   4.629 127.689  0.00  0.00    -0.458 OA
ATOM     11  C   LIG A   1      -2.901   3.304 127.662  0.00  0.00    +0.178 C 
ATOM     12  C   LIG A   1      -4.011   2.259 127.692  0.00  0.00    +0.080 C 
ATOM     13  C   LIG A   1      -1.943   3.170 126.479  0.00  0.00    +0.052 C 
ENDROOT
BRANCH   7  14
ATOM     14  O   LIG A   1      -7.309   0.700 124.421  0.00  0.00    -0.491 OA
ATOM     15  C   LIG A   1      -6.754   0.038 123.291  0.00  0.00    +0.277 C 
ENDBRANCH   7  14
BRANCH   6  16
ATOM     16  O   LIG A   1      -7.611   3.292 123.381  0.00  0.00    -0.488 OA
ATOM     17  C   LIG A   1      -7.033   3.383 122.086  0.00  0.00    +0.277 C 
ENDBRANCH   6  16
BRANCH   5  18
ATOM     18  O   LIG A   1      -6.231   5.440 124.678  0.00  0.00    -0.503 OA
ATOM     19  H   LIG A   1      -7.188   5.645 124.579  0.00  0.00    +0.292 HD
ENDBRANCH   5  18
TORSDOF 3
ENDMDL
MODEL 9
REMARK VINA RESULT:      -5.4      2.893      4.041
REMARK  Name = NuBBE_2216
REMARK  7 active torsions:
REMARK  status: ('A' for Active; 'I' for Inactive)
REMARK    1  A    between atoms: C_1  and  C_2
REMARK    2  A    between atoms: C_5  and  O_12
REMARK    3  A    between atoms: C_6  and  O_10
REMARK    4  A    between atoms: C_7  and  O_8
REMARK    5  A    between atoms: O_8  and  C_9
REMARK    6  A    between atoms: O_10  and  C_11
REMARK    7  A    between atoms: C_16  and  C_19
REMARK                            x       y       z     vdW  Elec       q    Type
REMARK                         _______ _______ _______ _____ _____    ______ ____
ROOT
ATOM      1  C   LIG A   1      -5.509   0.706 126.489  0.00  0.00    +0.048 C 
ATOM      2  C   LIG A   1      -6.504  -0.430 126.498  0.00  0.00    -0.001 A 
ATOM      3  C   LIG A   1      -7.010  -0.966 125.296  0.00  0.00    -0.020 A 
ATOM      4  C   LIG A   1      -7.997  -1.965 125.345  0.00  0.00    +0.108 A 
ATOM      5  C   LIG A   1      -8.416  -2.501 126.579  0.00  0.00    +0.177 A 
ATOM      6  C   LIG A   1      -7.852  -2.042 127.783  0.00  0.00    +0.204 A 
ATOM      7  C   LIG A   1      -6.888  -1.009 127.733  0.00  0.00    +0.168 A 
ATOM      8  C   LIG A   1      -8.623  -2.445 124.082  0.00  0.00    +0.343 C 
ATOM      9  O   LIG A   1      -9.658  -3.107 124.119  0.00  0.00    -0.245 OA
ATOM     10  O   LIG A   1      -8.028  -2.121 122.911  0.00  0.00    -0.458 OA
ATOM     11  C   LIG A   1      -6.693  -1.588 122.904  0.00  0.00    +0.178 C 
ATOM     12  C   LIG A   1      -6.556  -0.480 123.944  0.00  0.00    +0.080 C 
ATOM     13  C   LIG A   1      -5.682  -2.723 123.058  0.00  0.00    +0.052 C 
ENDROOT
BRANCH   7  14
ATOM     14  O   LIG A   1      -6.317  -0.415 128.837  0.00  0.00    -0.491 OA
ATOM     15  C   LIG A   1      -7.128   0.486 129.582  0.00  0.00    +0.277 C 
ENDBRANCH   7  14
BRANCH   6  16
ATOM     16  O   LIG A   1      -8.146  -2.539 129.027  0.00  0.00    -0.488 OA
ATOM     17  C   LIG A   1      -7.334  -3.579 129.555  0.00  0.00    +0.277 C 
ENDBRANCH   6  16
BRANCH   5  18
ATOM     18  O   LIG A   1      -9.357  -3.502 126.618  0.00  0.00    -0.503 OA
ATOM     19  H   LIG A   1      -9.166  -4.107 127.370  0.00  0.00    +0.292 HD
ENDBRANCH   5  18
TORSDOF 3
ENDMDL
