MODEL 1
REMARK VINA RESULT:      -6.5      0.000      0.000
REMARK  Name = NuBBE_1934
REMARK  5 active torsions:
REMARK  status: ('A' for Active; 'I' for Inactive)
REMARK    1  A    between atoms: C_1  and  C_2
REMARK    2  A    between atoms: C_2  and  C_4
REMARK    3  A    between atoms: C_2  and  C_19
REMARK    4  A    between atoms: C_11  and  C_12
REMARK    5  A    between atoms: C_15  and  C_16
REMARK                            x       y       z     vdW  Elec       q    Type
REMARK                         _______ _______ _______ _____ _____    ______ ____
ROOT
ATOM      1  C   LIG A   1      -7.341  -1.769 126.735  0.00  0.00    +0.003 C 
ATOM      2  C   LIG A   1      -7.338  -2.264 125.243  0.00  0.00    +0.022 C 
ATOM      3  C   LIG A   1      -7.707  -1.201 124.129  0.00  0.00    +0.022 C 
ATOM      4  C   LIG A   1      -6.598  -0.990 123.074  0.00  0.00    +0.013 C 
ATOM      5  C   LIG A   1      -5.999  -2.292 122.569  0.00  0.00    +0.031 C 
ATOM      6  C   LIG A   1      -5.455  -3.074 123.718  0.00  0.00    -0.076 C 
ATOM      7  C   LIG A   1      -4.220  -3.887 123.457  0.00  0.00    +0.038 C 
ATOM      8  C   LIG A   1      -6.048  -3.021 124.921  0.00  0.00    -0.024 C 
ATOM      9  C   LIG A   1      -8.213   0.149 124.609  0.00  0.00    -0.073 C 
ATOM     10  C   LIG A   1      -8.513   1.206 123.575  0.00  0.00    +0.039 C 
ATOM     11  C   LIG A   1      -8.461   0.403 125.897  0.00  0.00    -0.027 C 
ATOM     12  C   LIG A   1      -8.305  -0.589 126.986  0.00  0.00    +0.031 C 
ENDROOT
BRANCH   1  14
ATOM     13  C   LIG A   1      -8.948  -3.700 127.368  0.00  0.00    +0.007 C 
ATOM     14  C   LIG A   1      -7.711  -2.888 127.798  0.00  0.00    -0.013 C 
ATOM     15  C   LIG A   1      -7.950  -2.421 129.235  0.00  0.00    +0.007 C 
ENDBRANCH   1  14
TORSDOF 1
ENDMDL
MODEL 2
REMARK VINA RESULT:      -6.3      1.969      4.468
REMARK  Name = NuBBE_1934
REMARK  5 active torsions:
REMARK  status: ('A' for Active; 'I' for Inactive)
REMARK    1  A    between atoms: C_1  and  C_2
REMARK    2  A    between atoms: C_2  and  C_4
REMARK    3  A    between atoms: C_2  and  C_19
REMARK    4  A    between atoms: C_11  and  C_12
REMARK    5  A    between atoms: C_15  and  C_16
REMARK                            x       y       z     vdW  Elec       q    Type
REMARK                         _______ _______ _______ _____ _____    ______ ____
ROOT
ATOM      1  C   LIG A   1      -6.818  -0.489 125.332  0.00  0.00    +0.003 C 
ATOM      2  C   LIG A   1      -7.901  -1.161 126.252  0.00  0.00    +0.022 C 
ATOM      3  C   LIG A   1      -8.853  -2.233 125.581  0.00  0.00    +0.022 C 
ATOM      4  C   LIG A   1      -8.787  -3.628 126.240  0.00  0.00    +0.013 C 
ATOM      5  C   LIG A   1      -8.823  -3.574 127.758  0.00  0.00    +0.031 C 
ATOM      6  C   LIG A   1      -7.698  -2.730 128.258  0.00  0.00    -0.076 C 
ATOM      7  C   LIG A   1      -7.073  -3.142 129.559  0.00  0.00    +0.038 C 
ATOM      8  C   LIG A   1      -7.274  -1.671 127.551  0.00  0.00    -0.024 C 
ATOM      9  C   LIG A   1      -8.764  -2.381 124.071  0.00  0.00    -0.073 C 
ATOM     10  C   LIG A   1      -9.613  -3.437 123.407  0.00  0.00    +0.039 C 
ATOM     11  C   LIG A   1      -8.018  -1.569 123.316  0.00  0.00    -0.027 C 
ATOM     12  C   LIG A   1      -7.228  -0.433 123.844  0.00  0.00    +0.031 C 
ENDROOT
BRANCH   1  14
ATOM     13  C   LIG A   1      -6.611   1.982 124.580  0.00  0.00    +0.007 C 
ATOM     14  C   LIG A   1      -6.429   0.993 125.748  0.00  0.00    -0.013 C 
ATOM     15  C   LIG A   1      -5.023   1.205 126.309  0.00  0.00    +0.007 C 
ENDBRANCH   1  14
TORSDOF 1
ENDMDL
MODEL 3
REMARK VINA RESULT:      -6.3      2.040      5.127
REMARK  Name = NuBBE_1934
REMARK  5 active torsions:
REMARK  status: ('A' for Active; 'I' for Inactive)
REMARK    1  A    between atoms: C_1  and  C_2
REMARK    2  A    between atoms: C_2  and  C_4
REMARK    3  A    between atoms: C_2  and  C_19
REMARK    4  A    between atoms: C_11  and  C_12
REMARK    5  A    between atoms: C_15  and  C_16
REMARK                            x       y       z     vdW  Elec       q    Type
REMARK                         _______ _______ _______ _____ _____    ______ ____
ROOT
ATOM      1  C   LIG A   1      -6.449  -2.520 125.831  0.00  0.00    +0.003 C 
ATOM      2  C   LIG A   1      -6.415  -2.155 127.359  0.00  0.00    +0.022 C 
ATOM      3  C   LIG A   1      -7.533  -2.794 128.279  0.00  0.00    +0.022 C 
ATOM      4  C   LIG A   1      -6.977  -3.654 129.436  0.00  0.00    +0.013 C 
ATOM      5  C   LIG A   1      -5.820  -2.993 130.168  0.00  0.00    +0.031 C 
ATOM      6  C   LIG A   1      -4.726  -2.683 129.202  0.00  0.00    -0.076 C 
ATOM      7  C   LIG A   1      -3.320  -2.792 129.718  0.00  0.00    +0.038 C 
ATOM      8  C   LIG A   1      -5.010  -2.343 127.935  0.00  0.00    -0.024 C 
ATOM      9  C   LIG A   1      -8.650  -3.550 127.578  0.00  0.00    -0.073 C 
ATOM     10  C   LIG A   1      -9.697  -4.225 128.429  0.00  0.00    +0.039 C 
ATOM     11  C   LIG A   1      -8.768  -3.578 126.248  0.00  0.00    -0.027 C 
ATOM     12  C   LIG A   1      -7.863  -2.867 125.316  0.00  0.00    +0.031 C 
ENDROOT
BRANCH   1  14
ATOM     13  C   LIG A   1      -6.208   0.023 125.399  0.00  0.00    +0.007 C 
ATOM     14  C   LIG A   1      -5.884  -1.388 124.871  0.00  0.00    -0.013 C 
ATOM     15  C   LIG A   1      -6.328  -1.440 123.409  0.00  0.00    +0.007 C 
ENDBRANCH   1  14
TORSDOF 1
ENDMDL
MODEL 4
REMARK VINA RESULT:      -6.1      2.171      3.586
REMARK  Name = NuBBE_1934
REMARK  5 active torsions:
REMARK  status: ('A' for Active; 'I' for Inactive)
REMARK    1  A    between atoms: C_1  and  C_2
REMARK    2  A    between atoms: C_2  and  C_4
REMARK    3  A    between atoms: C_2  and  C_19
REMARK    4  A    between atoms: C_11  and  C_12
REMARK    5  A    between atoms: C_15  and  C_16
REMARK                            x       y       z     vdW  Elec       q    Type
REMARK                         _______ _______ _______ _____ _____    ______ ____
ROOT
ATOM      1  C   LIG A   1      -7.421  -2.382 128.756  0.00  0.00    +0.003 C 
ATOM      2  C   LIG A   1      -6.472  -2.139 127.526  0.00  0.00    +0.022 C 
ATOM      3  C   LIG A   1      -7.035  -2.516 126.095  0.00  0.00    +0.022 C 
ATOM      4  C   LIG A   1      -7.070  -1.331 125.104  0.00  0.00    +0.013 C 
ATOM      5  C   LIG A   1      -5.793  -0.507 125.113  0.00  0.00    +0.031 C 
ATOM      6  C   LIG A   1      -5.532   0.000 126.493  0.00  0.00    -0.076 C 
ATOM      7  C   LIG A   1      -4.895   1.355 126.604  0.00  0.00    +0.038 C 
ATOM      8  C   LIG A   1      -5.876  -0.730 127.565  0.00  0.00    -0.024 C 
ATOM      9  C   LIG A   1      -8.364  -3.252 126.052  0.00  0.00    -0.073 C 
ATOM     10  C   LIG A   1      -8.959  -3.570 124.702  0.00  0.00    +0.039 C 
ATOM     11  C   LIG A   1      -8.981  -3.680 127.157  0.00  0.00    -0.027 C 
ATOM     12  C   LIG A   1      -8.440  -3.519 128.527  0.00  0.00    +0.031 C 
ENDROOT
BRANCH   1  14
ATOM     13  C   LIG A   1      -6.012  -4.113 130.071  0.00  0.00    +0.007 C 
ATOM     14  C   LIG A   1      -6.666  -2.718 130.112  0.00  0.00    -0.013 C 
ATOM     15  C   LIG A   1      -7.491  -2.640 131.397  0.00  0.00    +0.007 C 
ENDBRANCH   1  14
TORSDOF 1
ENDMDL
MODEL 5
REMARK VINA RESULT:      -6.1      2.783      4.634
REMARK  Name = NuBBE_1934
REMARK  5 active torsions:
REMARK  status: ('A' for Active; 'I' for Inactive)
REMARK    1  A    between atoms: C_1  and  C_2
REMARK    2  A    between atoms: C_2  and  C_4
REMARK    3  A    between atoms: C_2  and  C_19
REMARK    4  A    between atoms: C_11  and  C_12
REMARK    5  A    between atoms: C_15  and  C_16
REMARK                            x       y       z     vdW  Elec       q    Type
REMARK                         _______ _______ _______ _____ _____    ______ ____
ROOT
ATOM      1  C   LIG A   1      -7.995  -2.439 129.285  0.00  0.00    +0.003 C 
ATOM      2  C   LIG A   1      -7.535  -1.362 128.237  0.00  0.00    +0.022 C 
ATOM      3  C   LIG A   1      -8.057  -1.534 126.752  0.00  0.00    +0.022 C 
ATOM      4  C   LIG A   1      -8.868  -0.326 126.230  0.00  0.00    +0.013 C 
ATOM      5  C   LIG A   1      -8.223   1.011 126.552  0.00  0.00    +0.031 C 
ATOM      6  C   LIG A   1      -8.031   1.135 128.027  0.00  0.00    -0.076 C 
ATOM      7  C   LIG A   1      -8.179   2.509 128.613  0.00  0.00    +0.038 C 
ATOM      8  C   LIG A   1      -7.758   0.053 128.773  0.00  0.00    -0.024 C 
ATOM      9  C   LIG A   1      -8.798  -2.820 126.428  0.00  0.00    -0.073 C 
ATOM     10  C   LIG A   1      -9.362  -2.986 125.038  0.00  0.00    +0.039 C 
ATOM     11  C   LIG A   1      -8.904  -3.823 127.303  0.00  0.00    -0.027 C 
ATOM     12  C   LIG A   1      -8.300  -3.815 128.656  0.00  0.00    +0.031 C 
ENDROOT
BRANCH   1  14
ATOM     13  C   LIG A   1      -6.240  -4.055 130.297  0.00  0.00    +0.007 C 
ATOM     14  C   LIG A   1      -6.957  -2.700 130.458  0.00  0.00    -0.013 C 
ATOM     15  C   LIG A   1      -7.501  -2.640 131.886  0.00  0.00    +0.007 C 
ENDBRANCH   1  14
TORSDOF 1
ENDMDL
MODEL 6
REMARK VINA RESULT:      -5.7      2.210      4.447
REMARK  Name = NuBBE_1934
REMARK  5 active torsions:
REMARK  status: ('A' for Active; 'I' for Inactive)
REMARK    1  A    between atoms: C_1  and  C_2
REMARK    2  A    between atoms: C_2  and  C_4
REMARK    3  A    between atoms: C_2  and  C_19
REMARK    4  A    between atoms: C_11  and  C_12
REMARK    5  A    between atoms: C_15  and  C_16
REMARK                            x       y       z     vdW  Elec       q    Type
REMARK                         _______ _______ _______ _____ _____    ______ ____
ROOT
ATOM      1  C   LIG A   1      -8.212   0.231 126.797  0.00  0.00    +0.003 C 
ATOM      2  C   LIG A   1      -7.732  -1.142 126.200  0.00  0.00    +0.022 C 
ATOM      3  C   LIG A   1      -7.580  -2.353 127.209  0.00  0.00    +0.022 C 
ATOM      4  C   LIG A   1      -8.453  -3.577 126.853  0.00  0.00    +0.013 C 
ATOM      5  C   LIG A   1      -8.404  -3.938 125.378  0.00  0.00    +0.031 C 
ATOM      6  C   LIG A   1      -8.828  -2.765 124.559  0.00  0.00    -0.076 C 
ATOM      7  C   LIG A   1      -9.586  -3.061 123.298  0.00  0.00    +0.038 C 
ATOM      8  C   LIG A   1      -8.549  -1.515 124.961  0.00  0.00    -0.024 C 
ATOM      9  C   LIG A   1      -7.727  -2.037 128.688  0.00  0.00    -0.073 C 
ATOM     10  C   LIG A   1      -7.650  -3.179 129.671  0.00  0.00    +0.039 C 
ATOM     11  C   LIG A   1      -7.853  -0.788 129.143  0.00  0.00    -0.027 C 
ATOM     12  C   LIG A   1      -7.835   0.418 128.282  0.00  0.00    +0.031 C 
ENDROOT
BRANCH   1  14
ATOM     13  C   LIG A   1      -8.706   2.071 125.041  0.00  0.00    +0.007 C 
ATOM     14  C   LIG A   1      -7.665   1.508 126.028  0.00  0.00    -0.013 C 
ATOM     15  C   LIG A   1      -6.353   1.342 125.261  0.00  0.00    +0.007 C 
ENDBRANCH   1  14
TORSDOF 1
ENDMDL
MODEL 7
REMARK VINA RESULT:      -5.7     16.099     18.433
REMARK  Name = NuBBE_1934
REMARK  5 active torsions:
REMARK  status: ('A' for Active; 'I' for Inactive)
REMARK    1  A    between atoms: C_1  and  C_2
REMARK    2  A    between atoms: C_2  and  C_4
REMARK    3  A    between atoms: C_2  and  C_19
REMARK    4  A    between atoms: C_11  and  C_12
REMARK    5  A    between atoms: C_15  and  C_16
REMARK                            x       y       z     vdW  Elec       q    Type
REMARK                         _______ _______ _______ _____ _____    ______ ____
ROOT
ATOM      1  C   LIG A   1      -9.378  10.622 139.068  0.00  0.00    +0.003 C 
ATOM      2  C   LIG A   1      -7.888  10.204 139.340  0.00  0.00    +0.022 C 
ATOM      3  C   LIG A   1      -7.323   8.973 138.519  0.00  0.00    +0.022 C 
ATOM      4  C   LIG A   1      -6.084   9.309 137.660  0.00  0.00    +0.013 C 
ATOM      5  C   LIG A   1      -5.048  10.136 138.403  0.00  0.00    +0.031 C 
ATOM      6  C   LIG A   1      -5.673  11.399 138.897  0.00  0.00    -0.076 C 
ATOM      7  C   LIG A   1      -4.800  12.620 138.919  0.00  0.00    +0.038 C 
ATOM      8  C   LIG A   1      -6.959  11.419 139.280  0.00  0.00    -0.024 C 
ATOM      9  C   LIG A   1      -8.321   8.188 137.684  0.00  0.00    -0.073 C 
ATOM     10  C   LIG A   1      -7.804   7.048 136.841  0.00  0.00    +0.039 C 
ATOM     11  C   LIG A   1      -9.634   8.430 137.725  0.00  0.00    -0.027 C 
ATOM     12  C   LIG A   1     -10.266   9.451 138.593  0.00  0.00    +0.031 C 
ENDROOT
BRANCH   1  14
ATOM     13  C   LIG A   1     -10.158  12.808 140.219  0.00  0.00    +0.007 C 
ATOM     14  C   LIG A   1     -10.117  11.271 140.315  0.00  0.00    -0.013 C 
ATOM     15  C   LIG A   1      -9.572  10.916 141.699  0.00  0.00    +0.007 C 
ENDBRANCH   1  14
TORSDOF 1
ENDMDL
MODEL 8
REMARK VINA RESULT:      -5.7      4.762      6.455
REMARK  Name = NuBBE_1934
REMARK  5 active torsions:
REMARK  status: ('A' for Active; 'I' for Inactive)
REMARK    1  A    between atoms: C_1  and  C_2
REMARK    2  A    between atoms: C_2  and  C_4
REMARK    3  A    between atoms: C_2  and  C_19
REMARK    4  A    between atoms: C_11  and  C_12
REMARK    5  A    between atoms: C_15  and  C_16
REMARK                            x       y       z     vdW  Elec       q    Type
REMARK                         _______ _______ _______ _____ _____    ______ ____
ROOT
ATOM      1  C   LIG A   1      -8.451   2.774 122.750  0.00  0.00    +0.003 C 
ATOM      2  C   LIG A   1      -6.881   2.790 122.824  0.00  0.00    +0.022 C 
ATOM      3  C   LIG A   1      -6.113   3.571 121.681  0.00  0.00    +0.022 C 
ATOM      4  C   LIG A   1      -5.210   4.712 122.200  0.00  0.00    +0.013 C 
ATOM      5  C   LIG A   1      -4.371   4.309 123.402  0.00  0.00    +0.031 C 
ATOM      6  C   LIG A   1      -5.262   3.835 124.501  0.00  0.00    -0.076 C 
ATOM      7  C   LIG A   1      -4.823   4.140 125.904  0.00  0.00    +0.038 C 
ATOM      8  C   LIG A   1      -6.403   3.186 124.222  0.00  0.00    -0.024 C 
ATOM      9  C   LIG A   1      -6.946   4.075 120.514  0.00  0.00    -0.073 C 
ATOM     10  C   LIG A   1      -6.255   4.878 119.440  0.00  0.00    +0.039 C 
ATOM     11  C   LIG A   1      -8.241   3.776 120.379  0.00  0.00    -0.027 C 
ATOM     12  C   LIG A   1      -8.998   2.910 121.313  0.00  0.00    +0.031 C 
ENDROOT
BRANCH   1  14
ATOM     13  C   LIG A   1     -10.157   0.855 122.407  0.00  0.00    +0.007 C 
ATOM     14  C   LIG A   1      -9.125   1.477 123.369  0.00  0.00    -0.013 C 
ATOM     15  C   LIG A   1      -9.809   1.636 124.728  0.00  0.00    +0.007 C 
ENDBRANCH   1  14
TORSDOF 1
ENDMDL
MODEL 9
REMARK VINA RESULT:      -5.6      1.303      4.760
REMARK  Name = NuBBE_1934
REMARK  5 active torsions:
REMARK  status: ('A' for Active; 'I' for Inactive)
REMARK    1  A    between atoms: C_1  and  C_2
REMARK    2  A    between atoms: C_2  and  C_4
REMARK    3  A    between atoms: C_2  and  C_19
REMARK    4  A    between atoms: C_11  and  C_12
REMARK    5  A    between atoms: C_15  and  C_16
REMARK                            x       y       z     vdW  Elec       q    Type
REMARK                         _______ _______ _______ _____ _____    ______ ____
ROOT
ATOM      1  C   LIG A   1      -6.286  -1.757 124.739  0.00  0.00    +0.003 C 
ATOM      2  C   LIG A   1      -7.783  -1.335 124.966  0.00  0.00    +0.022 C 
ATOM      3  C   LIG A   1      -8.215  -0.978 126.447  0.00  0.00    +0.022 C 
ATOM      4  C   LIG A   1      -8.771   0.455 126.608  0.00  0.00    +0.013 C 
ATOM      5  C   LIG A   1      -9.764   0.836 125.522  0.00  0.00    +0.031 C 
ATOM      6  C   LIG A   1      -9.121   0.696 124.182  0.00  0.00    -0.076 C 
ATOM      7  C   LIG A   1      -9.535   1.682 123.129  0.00  0.00    +0.038 C 
ATOM      8  C   LIG A   1      -8.208  -0.262 123.961  0.00  0.00    -0.024 C 
ATOM      9  C   LIG A   1      -7.201  -1.254 127.544  0.00  0.00    -0.073 C 
ATOM     10  C   LIG A   1      -7.557  -0.866 128.958  0.00  0.00    +0.039 C 
ATOM     11  C   LIG A   1      -6.046  -1.883 127.308  0.00  0.00    -0.027 C 
ATOM     12  C   LIG A   1      -5.637  -2.403 125.982  0.00  0.00    +0.031 C 
ENDROOT
BRANCH   1  14
ATOM     13  C   LIG A   1      -4.832  -3.667 123.765  0.00  0.00    +0.007 C 
ATOM     14  C   LIG A   1      -6.064  -2.770 123.537  0.00  0.00    -0.013 C 
ATOM     15  C   LIG A   1      -5.932  -2.163 122.140  0.00  0.00    +0.007 C 
ENDBRANCH   1  14
TORSDOF 1
ENDMDL
