MODEL 1
REMARK VINA RESULT:      -7.4      0.000      0.000
REMARK  Name = NuBBE_1777
REMARK  4 active torsions:
REMARK  status: ('A' for Active; 'I' for Inactive)
REMARK    1  A    between atoms: O_1  and  C_2
REMARK    2  A    between atoms: C_3  and  C_4
REMARK    3  A    between atoms: C_12  and  O_14
REMARK    4  A    between atoms: O_14  and  C_15
REMARK                            x       y       z     vdW  Elec       q    Type
REMARK                         _______ _______ _______ _____ _____    ______ ____
ROOT
ATOM      1  C   LIG A   1      -7.714   6.530 131.470  0.00  0.00    +0.207 C 
ATOM      2  O   LIG A   1      -8.452   6.916 130.289  0.00  0.00    -0.484 OA
ATOM      3  C   LIG A   1      -9.805   7.051 130.429  0.00  0.00    +0.128 A 
ATOM      4  C   LIG A   1     -10.520   6.533 131.508  0.00  0.00    -0.005 A 
ATOM      5  C   LIG A   1      -9.816   5.806 132.611  0.00  0.00    +0.043 C 
ATOM      6  C   LIG A   1      -8.428   5.365 132.170  0.00  0.00    +0.054 C 
ATOM      7  C   LIG A   1     -11.905   6.728 131.564  0.00  0.00    +0.011 A 
ATOM      8  C   LIG A   1     -12.560   7.410 130.538  0.00  0.00    +0.046 A 
ATOM      9  C   LIG A   1     -11.847   7.890 129.439  0.00  0.00    +0.124 A 
ATOM     10  C   LIG A   1     -10.464   7.717 129.391  0.00  0.00    +0.091 A 
ENDROOT
BRANCH   1  12
ATOM     11  C   LIG A   1      -5.948   5.482 129.896  0.00  0.00    +0.127 A 
ATOM     12  C   LIG A   1      -6.267   6.242 131.053  0.00  0.00    +0.038 A 
ATOM     13  C   LIG A   1      -5.189   6.808 131.768  0.00  0.00    +0.060 A 
ATOM     14  C   LIG A   1      -3.896   6.566 131.341  0.00  0.00    +0.167 A 
ATOM     15  C   LIG A   1      -3.622   5.812 130.233  0.00  0.00    +0.170 A 
ATOM     16  C   LIG A   1      -4.632   5.259 129.479  0.00  0.00    +0.095 A 
ATOM     17  O   LIG A   1      -2.290   5.701 129.989  0.00  0.00    -0.453 OA
ATOM     18  C   LIG A   1      -1.753   6.469 131.086  0.00  0.00    +0.466 C 
ATOM     19  O   LIG A   1      -2.768   7.036 131.941  0.00  0.00    -0.453 OA
BRANCH  11  20
ATOM     20  O   LIG A   1      -6.905   4.911 129.100  0.00  0.00    -0.506 OA
ATOM     21  H   LIG A   1      -6.937   5.422 128.268  0.00  0.00    +0.292 HD
ENDBRANCH  11  20
ENDBRANCH   1  12
BRANCH   9  22
ATOM     22  O   LIG A   1     -12.593   8.551 128.502  0.00  0.00    -0.495 OA
ATOM     23  C   LIG A   1     -13.594   7.774 127.852  0.00  0.00    +0.277 C 
ENDBRANCH   9  22
TORSDOF 3
ENDMDL
MODEL 2
REMARK VINA RESULT:      -7.3      1.886      7.542
REMARK  Name = NuBBE_1777
REMARK  4 active torsions:
REMARK  status: ('A' for Active; 'I' for Inactive)
REMARK    1  A    between atoms: O_1  and  C_2
REMARK    2  A    between atoms: C_3  and  C_4
REMARK    3  A    between atoms: C_12  and  O_14
REMARK    4  A    between atoms: O_14  and  C_15
REMARK                            x       y       z     vdW  Elec       q    Type
REMARK                         _______ _______ _______ _____ _____    ______ ____
ROOT
ATOM      1  C   LIG A   1      -7.593   5.773 130.897  0.00  0.00    +0.207 C 
ATOM      2  O   LIG A   1      -7.148   5.158 129.667  0.00  0.00    -0.484 OA
ATOM      3  C   LIG A   1      -5.797   5.004 129.514  0.00  0.00    +0.128 A 
ATOM      4  C   LIG A   1      -4.855   5.682 130.287  0.00  0.00    -0.005 A 
ATOM      5  C   LIG A   1      -5.290   6.617 131.372  0.00  0.00    +0.043 C 
ATOM      6  C   LIG A   1      -6.746   7.020 131.190  0.00  0.00    +0.054 C 
ATOM      7  C   LIG A   1      -3.494   5.453 130.056  0.00  0.00    +0.011 A 
ATOM      8  C   LIG A   1      -3.090   4.577 129.047  0.00  0.00    +0.046 A 
ATOM      9  C   LIG A   1      -4.035   3.933 128.249  0.00  0.00    +0.124 A 
ATOM     10  C   LIG A   1      -5.393   4.142 128.490  0.00  0.00    +0.091 A 
ENDROOT
BRANCH   1  12
ATOM     11  C   LIG A   1      -9.923   6.249 131.916  0.00  0.00    +0.127 A 
ATOM     12  C   LIG A   1      -9.100   6.031 130.780  0.00  0.00    +0.038 A 
ATOM     13  C   LIG A   1      -9.711   6.149 129.512  0.00  0.00    +0.060 A 
ATOM     14  C   LIG A   1     -11.064   6.426 129.438  0.00  0.00    +0.167 A 
ATOM     15  C   LIG A   1     -11.832   6.611 130.555  0.00  0.00    +0.170 A 
ATOM     16  C   LIG A   1     -11.288   6.537 131.817  0.00  0.00    +0.095 A 
ATOM     17  O   LIG A   1     -13.132   6.874 130.259  0.00  0.00    -0.453 OA
ATOM     18  C   LIG A   1     -13.095   6.822 128.818  0.00  0.00    +0.466 C 
ATOM     19  O   LIG A   1     -11.780   6.554 128.288  0.00  0.00    -0.453 OA
BRANCH  11  20
ATOM     20  O   LIG A   1      -9.442   6.196 133.198  0.00  0.00    -0.506 OA
ATOM     21  H   LIG A   1      -9.143   7.095 133.436  0.00  0.00    +0.292 HD
ENDBRANCH  11  20
ENDBRANCH   1  12
BRANCH   9  22
ATOM     22  O   LIG A   1      -3.522   3.091 127.300  0.00  0.00    -0.495 OA
ATOM     23  C   LIG A   1      -2.114   3.170 127.104  0.00  0.00    +0.277 C 
ENDBRANCH   9  22
TORSDOF 3
ENDMDL
MODEL 3
REMARK VINA RESULT:      -7.3      3.076      7.398
REMARK  Name = NuBBE_1777
REMARK  4 active torsions:
REMARK  status: ('A' for Active; 'I' for Inactive)
REMARK    1  A    between atoms: O_1  and  C_2
REMARK    2  A    between atoms: C_3  and  C_4
REMARK    3  A    between atoms: C_12  and  O_14
REMARK    4  A    between atoms: O_14  and  C_15
REMARK                            x       y       z     vdW  Elec       q    Type
REMARK                         _______ _______ _______ _____ _____    ______ ____
ROOT
ATOM      1  C   LIG A   1      -8.048   6.046 132.262  0.00  0.00    +0.207 C 
ATOM      2  O   LIG A   1      -8.141   4.614 132.438  0.00  0.00    -0.484 OA
ATOM      3  C   LIG A   1      -7.077   4.001 133.040  0.00  0.00    +0.128 A 
ATOM      4  C   LIG A   1      -5.824   4.599 133.177  0.00  0.00    -0.005 A 
ATOM      5  C   LIG A   1      -5.586   5.992 132.684  0.00  0.00    +0.043 C 
ATOM      6  C   LIG A   1      -6.668   6.411 131.699  0.00  0.00    +0.054 C 
ATOM      7  C   LIG A   1      -4.798   3.891 133.813  0.00  0.00    +0.011 A 
ATOM      8  C   LIG A   1      -5.023   2.593 134.277  0.00  0.00    +0.046 A 
ATOM      9  C   LIG A   1      -6.265   1.984 134.100  0.00  0.00    +0.124 A 
ATOM     10  C   LIG A   1      -7.296   2.694 133.487  0.00  0.00    +0.091 A 
ENDROOT
BRANCH   1  12
ATOM     11  C   LIG A   1     -10.582   6.258 131.784  0.00  0.00    +0.127 A 
ATOM     12  C   LIG A   1      -9.235   6.496 131.402  0.00  0.00    +0.038 A 
ATOM     13  C   LIG A   1      -9.023   7.250 130.227  0.00  0.00    +0.060 A 
ATOM     14  C   LIG A   1     -10.116   7.680 129.496  0.00  0.00    +0.167 A 
ATOM     15  C   LIG A   1     -11.402   7.417 129.883  0.00  0.00    +0.170 A 
ATOM     16  C   LIG A   1     -11.671   6.711 131.033  0.00  0.00    +0.095 A 
ATOM     17  O   LIG A   1     -12.323   7.930 129.026  0.00  0.00    -0.453 OA
ATOM     18  C   LIG A   1     -11.462   8.542 128.043  0.00  0.00    +0.466 C 
ATOM     19  O   LIG A   1     -10.058   8.401 128.343  0.00  0.00    -0.453 OA
BRANCH  11  20
ATOM     20  O   LIG A   1     -10.917   5.570 132.920  0.00  0.00    -0.506 OA
ATOM     21  H   LIG A   1     -11.511   4.841 132.656  0.00  0.00    +0.292 HD
ENDBRANCH  11  20
ENDBRANCH   1  12
BRANCH   9  22
ATOM     22  O   LIG A   1      -6.371   0.717 134.604  0.00  0.00    -0.495 OA
ATOM     23  C   LIG A   1      -5.989  -0.332 133.720  0.00  0.00    +0.277 C 
ENDBRANCH   9  22
TORSDOF 3
ENDMDL
MODEL 4
REMARK VINA RESULT:      -7.3      1.456      7.278
REMARK  Name = NuBBE_1777
REMARK  4 active torsions:
REMARK  status: ('A' for Active; 'I' for Inactive)
REMARK    1  A    between atoms: O_1  and  C_2
REMARK    2  A    between atoms: C_3  and  C_4
REMARK    3  A    between atoms: C_12  and  O_14
REMARK    4  A    between atoms: O_14  and  C_15
REMARK                            x       y       z     vdW  Elec       q    Type
REMARK                         _______ _______ _______ _____ _____    ______ ____
ROOT
ATOM      1  C   LIG A   1      -8.835   5.818 131.224  0.00  0.00    +0.207 C 
ATOM      2  O   LIG A   1      -7.757   6.639 130.722  0.00  0.00    -0.484 OA
ATOM      3  C   LIG A   1      -6.568   6.565 131.393  0.00  0.00    +0.128 A 
ATOM      4  C   LIG A   1      -6.442   6.029 132.674  0.00  0.00    -0.005 A 
ATOM      5  C   LIG A   1      -7.632   5.466 133.386  0.00  0.00    +0.043 C 
ATOM      6  C   LIG A   1      -8.926   5.956 132.750  0.00  0.00    +0.054 C 
ATOM      7  C   LIG A   1      -5.179   5.994 133.276  0.00  0.00    +0.011 A 
ATOM      8  C   LIG A   1      -4.068   6.515 132.609  0.00  0.00    +0.046 A 
ATOM      9  C   LIG A   1      -4.206   7.088 131.346  0.00  0.00    +0.124 A 
ATOM     10  C   LIG A   1      -5.459   7.105 130.733  0.00  0.00    +0.091 A 
ENDROOT
BRANCH   1  12
ATOM     11  C   LIG A   1     -11.209   5.303 130.333  0.00  0.00    +0.127 A 
ATOM     12  C   LIG A   1     -10.113   6.196 130.466  0.00  0.00    +0.038 A 
ATOM     13  C   LIG A   1     -10.276   7.498 129.942  0.00  0.00    +0.060 A 
ATOM     14  C   LIG A   1     -11.458   7.823 129.302  0.00  0.00    +0.167 A 
ATOM     15  C   LIG A   1     -12.489   6.931 129.174  0.00  0.00    +0.170 A 
ATOM     16  C   LIG A   1     -12.399   5.659 129.689  0.00  0.00    +0.095 A 
ATOM     17  O   LIG A   1     -13.555   7.454 128.515  0.00  0.00    -0.453 OA
ATOM     18  C   LIG A   1     -13.071   8.782 128.231  0.00  0.00    +0.466 C 
ATOM     19  O   LIG A   1     -11.744   9.031 128.742  0.00  0.00    -0.453 OA
BRANCH  11  20
ATOM     20  O   LIG A   1     -11.186   4.027 130.829  0.00  0.00    -0.506 OA
ATOM     21  H   LIG A   1     -10.252   3.787 130.978  0.00  0.00    +0.292 HD
ENDBRANCH  11  20
ENDBRANCH   1  12
BRANCH   9  22
ATOM     22  O   LIG A   1      -3.048   7.555 130.786  0.00  0.00    -0.495 OA
ATOM     23  C   LIG A   1      -1.955   6.642 130.783  0.00  0.00    +0.277 C 
ENDBRANCH   9  22
TORSDOF 3
ENDMDL
MODEL 5
REMARK VINA RESULT:      -7.2      3.376      7.304
REMARK  Name = NuBBE_1777
REMARK  4 active torsions:
REMARK  status: ('A' for Active; 'I' for Inactive)
REMARK    1  A    between atoms: O_1  and  C_2
REMARK    2  A    between atoms: C_3  and  C_4
REMARK    3  A    between atoms: C_12  and  O_14
REMARK    4  A    between atoms: O_14  and  C_15
REMARK                            x       y       z     vdW  Elec       q    Type
REMARK                         _______ _______ _______ _____ _____    ______ ____
ROOT
ATOM      1  C   LIG A   1      -7.962   5.998 132.301  0.00  0.00    +0.207 C 
ATOM      2  O   LIG A   1      -8.313   6.164 133.693  0.00  0.00    -0.484 OA
ATOM      3  C   LIG A   1      -7.434   5.657 134.610  0.00  0.00    +0.128 A 
ATOM      4  C   LIG A   1      -6.438   4.736 134.290  0.00  0.00    -0.005 A 
ATOM      5  C   LIG A   1      -6.259   4.264 132.880  0.00  0.00    +0.043 C 
ATOM      6  C   LIG A   1      -7.501   4.556 132.050  0.00  0.00    +0.054 C 
ATOM      7  C   LIG A   1      -5.584   4.279 135.300  0.00  0.00    +0.011 A 
ATOM      8  C   LIG A   1      -5.748   4.722 136.613  0.00  0.00    +0.046 A 
ATOM      9  C   LIG A   1      -6.772   5.612 136.937  0.00  0.00    +0.124 A 
ATOM     10  C   LIG A   1      -7.612   6.087 135.929  0.00  0.00    +0.091 A 
ENDROOT
BRANCH   1  12
ATOM     11  C   LIG A   1     -10.500   6.192 131.839  0.00  0.00    +0.127 A 
ATOM     12  C   LIG A   1      -9.158   6.449 131.453  0.00  0.00    +0.038 A 
ATOM     13  C   LIG A   1      -8.960   7.223 130.288  0.00  0.00    +0.060 A 
ATOM     14  C   LIG A   1     -10.060   7.653 129.569  0.00  0.00    +0.167 A 
ATOM     15  C   LIG A   1     -11.342   7.370 129.958  0.00  0.00    +0.170 A 
ATOM     16  C   LIG A   1     -11.598   6.645 131.099  0.00  0.00    +0.095 A 
ATOM     17  O   LIG A   1     -12.272   7.887 129.114  0.00  0.00    -0.453 OA
ATOM     18  C   LIG A   1     -11.423   8.522 128.136  0.00  0.00    +0.466 C 
ATOM     19  O   LIG A   1     -10.015   8.391 128.427  0.00  0.00    -0.453 OA
BRANCH  11  20
ATOM     20  O   LIG A   1     -10.823   5.484 132.965  0.00  0.00    -0.506 OA
ATOM     21  H   LIG A   1     -11.138   6.122 133.633  0.00  0.00    +0.292 HD
ENDBRANCH  11  20
ENDBRANCH   1  12
BRANCH   9  22
ATOM     22  O   LIG A   1      -6.829   5.984 138.252  0.00  0.00    -0.495 OA
ATOM     23  C   LIG A   1      -7.914   6.837 138.604  0.00  0.00    +0.277 C 
ENDBRANCH   9  22
TORSDOF 3
ENDMDL
MODEL 6
REMARK VINA RESULT:      -7.1      9.515     10.589
REMARK  Name = NuBBE_1777
REMARK  4 active torsions:
REMARK  status: ('A' for Active; 'I' for Inactive)
REMARK    1  A    between atoms: O_1  and  C_2
REMARK    2  A    between atoms: C_3  and  C_4
REMARK    3  A    between atoms: C_12  and  O_14
REMARK    4  A    between atoms: O_14  and  C_15
REMARK                            x       y       z     vdW  Elec       q    Type
REMARK                         _______ _______ _______ _____ _____    ______ ____
ROOT
ATOM      1  C   LIG A   1      -7.016  -2.759 128.732  0.00  0.00    +0.207 C 
ATOM      2  O   LIG A   1      -6.464  -2.569 127.409  0.00  0.00    -0.484 OA
ATOM      3  C   LIG A   1      -7.348  -2.613 126.366  0.00  0.00    +0.128 A 
ATOM      4  C   LIG A   1      -8.634  -3.142 126.472  0.00  0.00    -0.005 A 
ATOM      5  C   LIG A   1      -9.133  -3.679 127.776  0.00  0.00    +0.043 C 
ATOM      6  C   LIG A   1      -7.977  -3.955 128.727  0.00  0.00    +0.054 C 
ATOM      7  C   LIG A   1      -9.466  -3.137 125.346  0.00  0.00    +0.011 A 
ATOM      8  C   LIG A   1      -9.001  -2.632 124.131  0.00  0.00    +0.046 A 
ATOM      9  C   LIG A   1      -7.700  -2.142 124.019  0.00  0.00    +0.124 A 
ATOM     10  C   LIG A   1      -6.875  -2.125 125.144  0.00  0.00    +0.091 A 
ENDROOT
BRANCH   1  12
ATOM     11  C   LIG A   1      -4.774  -1.945 129.736  0.00  0.00    +0.127 A 
ATOM     12  C   LIG A   1      -5.849  -2.874 129.720  0.00  0.00    +0.038 A 
ATOM     13  C   LIG A   1      -5.850  -3.873 130.718  0.00  0.00    +0.060 A 
ATOM     14  C   LIG A   1      -4.805  -3.924 131.623  0.00  0.00    +0.167 A 
ATOM     15  C   LIG A   1      -3.775  -3.024 131.598  0.00  0.00    +0.170 A 
ATOM     16  C   LIG A   1      -3.733  -2.011 130.668  0.00  0.00    +0.095 A 
ATOM     17  O   LIG A   1      -2.857  -3.252 132.573  0.00  0.00    -0.453 OA
ATOM     18  C   LIG A   1      -3.426  -4.413 133.212  0.00  0.00    +0.466 C 
ATOM     19  O   LIG A   1      -4.674  -4.837 132.624  0.00  0.00    -0.453 OA
BRANCH  11  20
ATOM     20  O   LIG A   1      -4.678  -0.912 128.843  0.00  0.00    -0.506 OA
ATOM     21  H   LIG A   1      -5.193  -0.164 129.202  0.00  0.00    +0.292 HD
ENDBRANCH  11  20
ENDBRANCH   1  12
BRANCH   9  22
ATOM     22  O   LIG A   1      -7.359  -1.664 122.784  0.00  0.00    -0.495 OA
ATOM     23  C   LIG A   1      -6.051  -1.999 122.333  0.00  0.00    +0.277 C 
ENDBRANCH   9  22
TORSDOF 3
ENDMDL
MODEL 7
REMARK VINA RESULT:      -7.0      8.216     10.139
REMARK  Name = NuBBE_1777
REMARK  4 active torsions:
REMARK  status: ('A' for Active; 'I' for Inactive)
REMARK    1  A    between atoms: O_1  and  C_2
REMARK    2  A    between atoms: C_3  and  C_4
REMARK    3  A    between atoms: C_12  and  O_14
REMARK    4  A    between atoms: O_14  and  C_15
REMARK                            x       y       z     vdW  Elec       q    Type
REMARK                         _______ _______ _______ _____ _____    ______ ____
ROOT
ATOM      1  C   LIG A   1      -7.891  -1.005 125.619  0.00  0.00    +0.207 C 
ATOM      2  O   LIG A   1      -7.941  -0.505 126.974  0.00  0.00    -0.484 OA
ATOM      3  C   LIG A   1      -7.884  -1.438 127.973  0.00  0.00    +0.128 A 
ATOM      4  C   LIG A   1      -8.112  -2.798 127.766  0.00  0.00    -0.005 A 
ATOM      5  C   LIG A   1      -8.411  -3.322 126.396  0.00  0.00    +0.043 C 
ATOM      6  C   LIG A   1      -8.847  -2.197 125.469  0.00  0.00    +0.054 C 
ATOM      7  C   LIG A   1      -8.025  -3.676 128.853  0.00  0.00    +0.011 A 
ATOM      8  C   LIG A   1      -7.741  -3.187 130.130  0.00  0.00    +0.046 A 
ATOM      9  C   LIG A   1      -7.556  -1.820 130.339  0.00  0.00    +0.124 A 
ATOM     10  C   LIG A   1      -7.619  -0.946 129.255  0.00  0.00    +0.091 A 
ENDROOT
BRANCH   1  12
ATOM     11  C   LIG A   1      -9.428   0.821 124.621  0.00  0.00    +0.127 A 
ATOM     12  C   LIG A   1      -8.168   0.167 124.671  0.00  0.00    +0.038 A 
ATOM     13  C   LIG A   1      -7.136   0.699 123.867  0.00  0.00    +0.060 A 
ATOM     14  C   LIG A   1      -7.405   1.785 123.054  0.00  0.00    +0.167 A 
ATOM     15  C   LIG A   1      -8.638   2.380 123.016  0.00  0.00    +0.170 A 
ATOM     16  C   LIG A   1      -9.674   1.925 123.797  0.00  0.00    +0.095 A 
ATOM     17  O   LIG A   1      -8.687   3.429 122.155  0.00  0.00    -0.453 OA
ATOM     18  C   LIG A   1      -7.338   3.420 121.644  0.00  0.00    +0.466 C 
ATOM     19  O   LIG A   1      -6.512   2.388 122.223  0.00  0.00    -0.453 OA
BRANCH  11  20
ATOM     20  O   LIG A   1     -10.497   0.422 125.378  0.00  0.00    -0.506 OA
ATOM     21  H   LIG A   1     -11.297   0.512 124.825  0.00  0.00    +0.292 HD
ENDBRANCH  11  20
ENDBRANCH   1  12
BRANCH   9  22
ATOM     22  O   LIG A   1      -7.273  -1.460 131.628  0.00  0.00    -0.495 OA
ATOM     23  C   LIG A   1      -7.421  -2.489 132.601  0.00  0.00    +0.277 C 
ENDBRANCH   9  22
TORSDOF 3
ENDMDL
MODEL 8
REMARK VINA RESULT:      -6.9      9.343     11.898
REMARK  Name = NuBBE_1777
REMARK  4 active torsions:
REMARK  status: ('A' for Active; 'I' for Inactive)
REMARK    1  A    between atoms: O_1  and  C_2
REMARK    2  A    between atoms: C_3  and  C_4
REMARK    3  A    between atoms: C_12  and  O_14
REMARK    4  A    between atoms: O_14  and  C_15
REMARK                            x       y       z     vdW  Elec       q    Type
REMARK                         _______ _______ _______ _____ _____    ______ ____
ROOT
ATOM      1  C   LIG A   1      -7.730  -2.796 129.033  0.00  0.00    +0.207 C 
ATOM      2  O   LIG A   1      -6.605  -3.602 129.453  0.00  0.00    -0.484 OA
ATOM      3  C   LIG A   1      -6.380  -3.683 130.800  0.00  0.00    +0.128 A 
ATOM      4  C   LIG A   1      -6.939  -2.803 131.726  0.00  0.00    -0.005 A 
ATOM      5  C   LIG A   1      -7.862  -1.711 131.280  0.00  0.00    +0.043 C 
ATOM      6  C   LIG A   1      -7.720  -1.458 129.786  0.00  0.00    +0.054 C 
ATOM      7  C   LIG A   1      -6.652  -2.973 133.085  0.00  0.00    +0.011 A 
ATOM      8  C   LIG A   1      -5.795  -3.994 133.500  0.00  0.00    +0.046 A 
ATOM      9  C   LIG A   1      -5.205  -4.846 132.566  0.00  0.00    +0.124 A 
ATOM     10  C   LIG A   1      -5.507  -4.694 131.213  0.00  0.00    +0.091 A 
ENDROOT
BRANCH   1  12
ATOM     11  C   LIG A   1      -6.486  -2.364 126.805  0.00  0.00    +0.127 A 
ATOM     12  C   LIG A   1      -7.682  -2.676 127.505  0.00  0.00    +0.038 A 
ATOM     13  C   LIG A   1      -8.826  -2.962 126.728  0.00  0.00    +0.060 A 
ATOM     14  C   LIG A   1      -8.740  -2.889 125.349  0.00  0.00    +0.167 A 
ATOM     15  C   LIG A   1      -7.575  -2.566 124.707  0.00  0.00    +0.170 A 
ATOM     16  C   LIG A   1      -6.422  -2.304 125.409  0.00  0.00    +0.095 A 
ATOM     17  O   LIG A   1      -7.709  -2.551 123.355  0.00  0.00    -0.453 OA
ATOM     18  C   LIG A   1      -9.104  -2.894 123.220  0.00  0.00    +0.466 C 
ATOM     19  O   LIG A   1      -9.763  -3.125 124.483  0.00  0.00    -0.453 OA
BRANCH  11  20
ATOM     20  O   LIG A   1      -5.304  -2.101 127.445  0.00  0.00    -0.506 OA
ATOM     21  H   LIG A   1      -4.758  -2.910 127.396  0.00  0.00    +0.292 HD
ENDBRANCH  11  20
ENDBRANCH   1  12
BRANCH   9  22
ATOM     22  O   LIG A   1      -4.394  -5.814 133.090  0.00  0.00    -0.495 OA
ATOM     23  C   LIG A   1      -3.217  -5.345 133.742  0.00  0.00    +0.277 C 
ENDBRANCH   9  22
TORSDOF 3
ENDMDL
MODEL 9
REMARK VINA RESULT:      -6.8      2.808      7.393
REMARK  Name = NuBBE_1777
REMARK  4 active torsions:
REMARK  status: ('A' for Active; 'I' for Inactive)
REMARK    1  A    between atoms: O_1  and  C_2
REMARK    2  A    between atoms: C_3  and  C_4
REMARK    3  A    between atoms: C_12  and  O_14
REMARK    4  A    between atoms: O_14  and  C_15
REMARK                            x       y       z     vdW  Elec       q    Type
REMARK                         _______ _______ _______ _____ _____    ______ ____
ROOT
ATOM      1  C   LIG A   1      -9.695   4.791 131.467  0.00  0.00    +0.207 C 
ATOM      2  O   LIG A   1      -8.341   4.563 131.017  0.00  0.00    -0.484 OA
ATOM      3  C   LIG A   1      -7.557   3.772 131.811  0.00  0.00    +0.128 A 
ATOM      4  C   LIG A   1      -7.869   3.466 133.135  0.00  0.00    -0.005 A 
ATOM      5  C   LIG A   1      -9.127   3.982 133.762  0.00  0.00    +0.043 C 
ATOM      6  C   LIG A   1      -9.694   5.145 132.961  0.00  0.00    +0.054 C 
ATOM      7  C   LIG A   1      -7.004   2.642 133.865  0.00  0.00    +0.011 A 
ATOM      8  C   LIG A   1      -5.833   2.158 133.279  0.00  0.00    +0.046 A 
ATOM      9  C   LIG A   1      -5.504   2.501 131.967  0.00  0.00    +0.124 A 
ATOM     10  C   LIG A   1      -6.374   3.304 131.230  0.00  0.00    +0.091 A 
ENDROOT
BRANCH   1  12
ATOM     11  C   LIG A   1      -9.605   6.983 130.096  0.00  0.00    +0.127 A 
ATOM     12  C   LIG A   1     -10.326   5.849 130.554  0.00  0.00    +0.038 A 
ATOM     13  C   LIG A   1     -11.639   5.680 130.062  0.00  0.00    +0.060 A 
ATOM     14  C   LIG A   1     -12.165   6.629 129.205  0.00  0.00    +0.167 A 
ATOM     15  C   LIG A   1     -11.449   7.722 128.799  0.00  0.00    +0.170 A 
ATOM     16  C   LIG A   1     -10.155   7.926 129.221  0.00  0.00    +0.095 A 
ATOM     17  O   LIG A   1     -12.151   8.526 127.958  0.00  0.00    -0.453 OA
ATOM     18  C   LIG A   1     -13.404   7.814 127.890  0.00  0.00    +0.466 C 
ATOM     19  O   LIG A   1     -13.416   6.599 128.668  0.00  0.00    -0.453 OA
BRANCH  11  20
ATOM     20  O   LIG A   1      -8.313   7.239 130.473  0.00  0.00    -0.506 OA
ATOM     21  H   LIG A   1      -8.086   6.611 131.186  0.00  0.00    +0.292 HD
ENDBRANCH  11  20
ENDBRANCH   1  12
BRANCH   9  22
ATOM     22  O   LIG A   1      -4.340   1.959 131.497  0.00  0.00    -0.495 OA
ATOM     23  C   LIG A   1      -4.488   0.946 130.508  0.00  0.00    +0.277 C 
ENDBRANCH   9  22
TORSDOF 3
ENDMDL
