MODEL 1
REMARK VINA RESULT:      -8.8      0.000      0.000
REMARK  Name = NuBBE_2159
REMARK  10 active torsions:
REMARK  status: ('A' for Active; 'I' for Inactive)
REMARK    1  A    between atoms: O_1  and  C_2
REMARK    2  A    between atoms: C_7  and  C_8
REMARK    3  A    between atoms: C_18  and  C_19
REMARK    4  A    between atoms: C_24  and  C_26
REMARK    5  A    between atoms: C_26  and  C_28
REMARK    6  A    between atoms: C_26  and  C_29
REMARK    7  A    between atoms: C_30  and  C_31
REMARK    8  A    between atoms: C_31  and  C_32
REMARK    9  A    between atoms: C_32  and  C_33
REMARK   10  A    between atoms: C_32  and  C_34
REMARK                            x       y       z     vdW  Elec       q    Type
REMARK                         _______ _______ _______ _____ _____    ______ ____
ROOT
ATOM      1  C   LIG A   1      -5.490  -4.269 131.119  0.00  0.00    +0.119 C 
ATOM      2  C   LIG A   1      -6.829  -3.510 131.147  0.00  0.00    +0.062 C 
ATOM      3  C   LIG A   1      -4.347  -3.497 130.446  0.00  0.00    +0.032 C 
ATOM      4  C   LIG A   1      -4.760  -2.796 129.139  0.00  0.00    +0.013 C 
ATOM      5  C   LIG A   1      -6.046  -1.925 129.274  0.00  0.00    -0.008 C 
ATOM      6  C   LIG A   1      -5.775  -0.792 130.298  0.00  0.00    +0.016 C 
ATOM      7  C   LIG A   1      -7.111  -2.885 129.794  0.00  0.00    -0.065 C 
ATOM      8  C   LIG A   1      -8.164  -3.282 129.060  0.00  0.00    -0.027 C 
ATOM      9  C   LIG A   1      -8.404  -2.872 127.642  0.00  0.00    +0.031 C 
ATOM     10  C   LIG A   1      -7.163  -2.283 126.946  0.00  0.00    +0.000 C 
ATOM     11  C   LIG A   1      -6.410  -1.290 127.869  0.00  0.00    +0.003 C 
ATOM     12  C   LIG A   1      -7.191   0.038 127.934  0.00  0.00    +0.005 C 
ATOM     13  C   LIG A   1      -7.361   0.661 126.548  0.00  0.00    +0.007 C 
ATOM     14  C   LIG A   1      -8.107  -0.236 125.544  0.00  0.00    -0.026 C 
ATOM     15  C   LIG A   1      -9.619  -0.256 125.856  0.00  0.00    +0.012 C 
ATOM     16  C   LIG A   1      -7.522  -1.680 125.559  0.00  0.00    -0.001 C 
ATOM     17  C   LIG A   1      -6.287  -1.585 124.657  0.00  0.00    +0.004 C 
ATOM     18  C   LIG A   1      -6.602  -0.531 123.606  0.00  0.00    +0.005 C 
ATOM     19  C   LIG A   1      -7.880   0.210 124.056  0.00  0.00    +0.002 C 
ENDROOT
BRANCH   1  20
ATOM     20  O   LIG A   1      -5.660  -5.521 130.448  0.00  0.00    -0.392 OA
ATOM     21  H   LIG A   1      -6.110  -5.337 129.604  0.00  0.00    +0.210 HD
ENDBRANCH   1  20
BRANCH  19  22
ATOM     22  C   LIG A   1      -7.789   1.735 123.732  0.00  0.00    +0.012 C 
ATOM     23  C   LIG A   1      -9.088   2.350 123.207  0.00  0.00    +0.012 C 
BRANCH  22  24
ATOM     24  C   LIG A   1      -6.727   1.998 122.680  0.00  0.00    -0.028 C 
ATOM     25  C   LIG A   1      -6.398   3.223 122.227  0.00  0.00    -0.031 C 
BRANCH  25  26
ATOM     26  C   LIG A   1      -5.409   3.453 121.118  0.00  0.00    +0.030 C 
BRANCH  26  27
ATOM     27  C   LIG A   1      -6.060   4.042 119.849  0.00  0.00    -0.013 C 
ATOM     28  C   LIG A   1      -7.580   4.120 120.017  0.00  0.00    +0.007 C 
ATOM     29  C   LIG A   1      -5.511   5.428 119.501  0.00  0.00    +0.007 C 
ENDBRANCH  26  27
ENDBRANCH  25  26
ENDBRANCH  22  24
ENDBRANCH  19  22
TORSDOF 5
ENDMDL
MODEL 2
REMARK VINA RESULT:      -8.3      3.620      6.341
REMARK  Name = NuBBE_2159
REMARK  10 active torsions:
REMARK  status: ('A' for Active; 'I' for Inactive)
REMARK    1  A    between atoms: O_1  and  C_2
REMARK    2  A    between atoms: C_7  and  C_8
REMARK    3  A    between atoms: C_18  and  C_19
REMARK    4  A    between atoms: C_24  and  C_26
REMARK    5  A    between atoms: C_26  and  C_28
REMARK    6  A    between atoms: C_26  and  C_29
REMARK    7  A    between atoms: C_30  and  C_31
REMARK    8  A    between atoms: C_31  and  C_32
REMARK    9  A    between atoms: C_32  and  C_33
REMARK   10  A    between atoms: C_32  and  C_34
REMARK                            x       y       z     vdW  Elec       q    Type
REMARK                         _______ _______ _______ _____ _____    ______ ____
ROOT
ATOM      1  C   LIG A   1      -8.740  -3.144 123.299  0.00  0.00    +0.119 C 
ATOM      2  C   LIG A   1      -8.044  -3.985 124.384  0.00  0.00    +0.062 C 
ATOM      3  C   LIG A   1      -8.120  -1.756 123.088  0.00  0.00    +0.032 C 
ATOM      4  C   LIG A   1      -7.779  -1.026 124.401  0.00  0.00    +0.013 C 
ATOM      5  C   LIG A   1      -6.947  -1.887 125.398  0.00  0.00    -0.008 C 
ATOM      6  C   LIG A   1      -5.587  -2.237 124.740  0.00  0.00    +0.016 C 
ATOM      7  C   LIG A   1      -7.784  -3.143 125.619  0.00  0.00    -0.065 C 
ATOM      8  C   LIG A   1      -8.386  -3.430 126.786  0.00  0.00    -0.027 C 
ATOM      9  C   LIG A   1      -8.348  -2.546 127.992  0.00  0.00    +0.031 C 
ATOM     10  C   LIG A   1      -7.908  -1.101 127.691  0.00  0.00    +0.000 C 
ATOM     11  C   LIG A   1      -6.692  -1.065 126.729  0.00  0.00    +0.003 C 
ATOM     12  C   LIG A   1      -5.417  -1.454 127.504  0.00  0.00    +0.005 C 
ATOM     13  C   LIG A   1      -5.162  -0.510 128.680  0.00  0.00    +0.007 C 
ATOM     14  C   LIG A   1      -6.305  -0.471 129.711  0.00  0.00    -0.026 C 
ATOM     15  C   LIG A   1      -6.299  -1.750 130.576  0.00  0.00    +0.012 C 
ATOM     16  C   LIG A   1      -7.679  -0.294 128.999  0.00  0.00    -0.001 C 
ATOM     17  C   LIG A   1      -7.768   1.215 128.744  0.00  0.00    +0.004 C 
ATOM     18  C   LIG A   1      -7.019   1.889 129.883  0.00  0.00    +0.005 C 
ATOM     19  C   LIG A   1      -6.233   0.794 130.638  0.00  0.00    +0.002 C 
ENDROOT
BRANCH   1  20
ATOM     20  O   LIG A   1     -10.125  -2.988 123.625  0.00  0.00    -0.392 OA
ATOM     21  H   LIG A   1     -10.169  -2.582 124.508  0.00  0.00    +0.210 HD
ENDBRANCH   1  20
BRANCH  19  22
ATOM     22  C   LIG A   1      -4.834   1.318 131.092  0.00  0.00    +0.012 C 
ATOM     23  C   LIG A   1      -4.760   1.737 132.562  0.00  0.00    +0.012 C 
BRANCH  22  24
ATOM     24  C   LIG A   1      -4.422   2.528 130.273  0.00  0.00    -0.028 C 
ATOM     25  C   LIG A   1      -3.618   2.472 129.194  0.00  0.00    -0.031 C 
BRANCH  25  26
ATOM     26  C   LIG A   1      -3.148   3.693 128.454  0.00  0.00    +0.030 C 
BRANCH  26  27
ATOM     27  C   LIG A   1      -3.088   3.482 126.927  0.00  0.00    -0.013 C 
ATOM     28  C   LIG A   1      -1.668   3.098 126.498  0.00  0.00    +0.007 C 
ATOM     29  C   LIG A   1      -4.073   2.413 126.445  0.00  0.00    +0.007 C 
ENDBRANCH  26  27
ENDBRANCH  25  26
ENDBRANCH  22  24
ENDBRANCH  19  22
TORSDOF 5
ENDMDL
MODEL 3
REMARK VINA RESULT:      -8.3      7.392     10.059
REMARK  Name = NuBBE_2159
REMARK  10 active torsions:
REMARK  status: ('A' for Active; 'I' for Inactive)
REMARK    1  A    between atoms: O_1  and  C_2
REMARK    2  A    between atoms: C_7  and  C_8
REMARK    3  A    between atoms: C_18  and  C_19
REMARK    4  A    between atoms: C_24  and  C_26
REMARK    5  A    between atoms: C_26  and  C_28
REMARK    6  A    between atoms: C_26  and  C_29
REMARK    7  A    between atoms: C_30  and  C_31
REMARK    8  A    between atoms: C_31  and  C_32
REMARK    9  A    between atoms: C_32  and  C_33
REMARK   10  A    between atoms: C_32  and  C_34
REMARK                            x       y       z     vdW  Elec       q    Type
REMARK                         _______ _______ _______ _____ _____    ______ ____
ROOT
ATOM      1  C   LIG A   1     -12.855   8.600 129.432  0.00  0.00    +0.119 C 
ATOM      2  C   LIG A   1     -12.968   7.176 130.006  0.00  0.00    +0.062 C 
ATOM      3  C   LIG A   1     -11.660   8.803 128.493  0.00  0.00    +0.032 C 
ATOM      4  C   LIG A   1     -10.353   8.171 129.009  0.00  0.00    +0.013 C 
ATOM      5  C   LIG A   1     -10.506   6.680 129.438  0.00  0.00    -0.008 C 
ATOM      6  C   LIG A   1     -10.923   5.846 128.199  0.00  0.00    +0.016 C 
ATOM      7  C   LIG A   1     -11.614   6.690 130.486  0.00  0.00    -0.065 C 
ATOM      8  C   LIG A   1     -11.398   6.433 131.787  0.00  0.00    -0.027 C 
ATOM      9  C   LIG A   1     -10.053   6.147 132.376  0.00  0.00    +0.031 C 
ATOM     10  C   LIG A   1      -8.877   6.555 131.469  0.00  0.00    +0.000 C 
ATOM     11  C   LIG A   1      -9.124   6.142 129.995  0.00  0.00    +0.003 C 
ATOM     12  C   LIG A   1      -8.907   4.622 129.849  0.00  0.00    +0.005 C 
ATOM     13  C   LIG A   1      -7.493   4.212 130.261  0.00  0.00    +0.007 C 
ATOM     14  C   LIG A   1      -7.137   4.565 131.717  0.00  0.00    -0.026 C 
ATOM     15  C   LIG A   1      -7.837   3.598 132.696  0.00  0.00    +0.012 C 
ATOM     16  C   LIG A   1      -7.522   6.042 132.032  0.00  0.00    -0.001 C 
ATOM     17  C   LIG A   1      -6.346   6.854 131.477  0.00  0.00    +0.004 C 
ATOM     18  C   LIG A   1      -5.111   5.978 131.624  0.00  0.00    +0.005 C 
ATOM     19  C   LIG A   1      -5.588   4.552 131.976  0.00  0.00    +0.002 C 
ENDROOT
BRANCH   1  20
ATOM     20  O   LIG A   1     -12.767   9.545 130.504  0.00  0.00    -0.392 OA
ATOM     21  H   LIG A   1     -11.887   9.443 130.906  0.00  0.00    +0.210 HD
ENDBRANCH   1  20
BRANCH  19  22
ATOM     22  C   LIG A   1      -4.713   3.474 131.261  0.00  0.00    +0.012 C 
ATOM     23  C   LIG A   1      -3.841   2.640 132.202  0.00  0.00    +0.012 C 
BRANCH  22  24
ATOM     24  C   LIG A   1      -3.776   4.122 130.259  0.00  0.00    -0.028 C 
ATOM     25  C   LIG A   1      -3.750   3.824 128.946  0.00  0.00    -0.031 C 
BRANCH  25  26
ATOM     26  C   LIG A   1      -2.750   4.410 127.988  0.00  0.00    +0.030 C 
BRANCH  26  27
ATOM     27  C   LIG A   1      -2.697   3.656 126.642  0.00  0.00    -0.013 C 
ATOM     28  C   LIG A   1      -1.354   2.937 126.487  0.00  0.00    +0.007 C 
ATOM     29  C   LIG A   1      -3.839   2.646 126.493  0.00  0.00    +0.007 C 
ENDBRANCH  26  27
ENDBRANCH  25  26
ENDBRANCH  22  24
ENDBRANCH  19  22
TORSDOF 5
ENDMDL
MODEL 4
REMARK VINA RESULT:      -8.1      4.817      8.216
REMARK  Name = NuBBE_2159
REMARK  10 active torsions:
REMARK  status: ('A' for Active; 'I' for Inactive)
REMARK    1  A    between atoms: O_1  and  C_2
REMARK    2  A    between atoms: C_7  and  C_8
REMARK    3  A    between atoms: C_18  and  C_19
REMARK    4  A    between atoms: C_24  and  C_26
REMARK    5  A    between atoms: C_26  and  C_28
REMARK    6  A    between atoms: C_26  and  C_29
REMARK    7  A    between atoms: C_30  and  C_31
REMARK    8  A    between atoms: C_31  and  C_32
REMARK    9  A    between atoms: C_32  and  C_33
REMARK   10  A    between atoms: C_32  and  C_34
REMARK                            x       y       z     vdW  Elec       q    Type
REMARK                         _______ _______ _______ _____ _____    ______ ____
ROOT
ATOM      1  C   LIG A   1      -9.060   6.665 130.746  0.00  0.00    +0.119 C 
ATOM      2  C   LIG A   1      -9.175   5.814 132.023  0.00  0.00    +0.062 C 
ATOM      3  C   LIG A   1      -9.397   5.906 129.455  0.00  0.00    +0.032 C 
ATOM      4  C   LIG A   1      -8.784   4.494 129.391  0.00  0.00    +0.013 C 
ATOM      5  C   LIG A   1      -9.062   3.632 130.659  0.00  0.00    -0.008 C 
ATOM      6  C   LIG A   1     -10.593   3.426 130.796  0.00  0.00    +0.016 C 
ATOM      7  C   LIG A   1      -8.519   4.462 131.819  0.00  0.00    -0.065 C 
ATOM      8  C   LIG A   1      -7.437   4.107 132.532  0.00  0.00    -0.027 C 
ATOM      9  C   LIG A   1      -6.610   2.891 132.260  0.00  0.00    +0.031 C 
ATOM     10  C   LIG A   1      -6.843   2.280 130.865  0.00  0.00    +0.000 C 
ATOM     11  C   LIG A   1      -8.351   2.223 130.512  0.00  0.00    +0.003 C 
ATOM     12  C   LIG A   1      -9.015   1.072 131.295  0.00  0.00    +0.005 C 
ATOM     13  C   LIG A   1      -8.368  -0.276 130.973  0.00  0.00    +0.007 C 
ATOM     14  C   LIG A   1      -6.863  -0.340 131.293  0.00  0.00    -0.026 C 
ATOM     15  C   LIG A   1      -6.638  -0.456 132.816  0.00  0.00    +0.012 C 
ATOM     16  C   LIG A   1      -6.127   0.908 130.720  0.00  0.00    -0.001 C 
ATOM     17  C   LIG A   1      -5.896   0.554 129.247  0.00  0.00    +0.004 C 
ATOM     18  C   LIG A   1      -5.720  -0.956 129.190  0.00  0.00    +0.005 C 
ATOM     19  C   LIG A   1      -6.144  -1.528 130.560  0.00  0.00    +0.002 C 
ENDROOT
BRANCH   1  20
ATOM     20  O   LIG A   1      -7.735   7.195 130.638  0.00  0.00    -0.392 OA
ATOM     21  H   LIG A   1      -7.520   7.610 131.492  0.00  0.00    +0.210 HD
ENDBRANCH   1  20
BRANCH  19  22
ATOM     22  C   LIG A   1      -6.905  -2.882 130.393  0.00  0.00    +0.012 C 
ATOM     23  C   LIG A   1      -6.064  -4.123 130.700  0.00  0.00    +0.012 C 
BRANCH  22  24
ATOM     24  C   LIG A   1      -7.413  -3.040 128.971  0.00  0.00    -0.028 C 
ATOM     25  C   LIG A   1      -8.625  -3.531 128.652  0.00  0.00    -0.031 C 
BRANCH  25  26
ATOM     26  C   LIG A   1      -9.071  -3.767 127.236  0.00  0.00    +0.030 C 
BRANCH  26  27
ATOM     27  C   LIG A   1      -8.270  -2.938 126.210  0.00  0.00    -0.013 C 
ATOM     28  C   LIG A   1      -8.081  -3.734 124.915  0.00  0.00    +0.007 C 
ATOM     29  C   LIG A   1      -8.937  -1.597 125.894  0.00  0.00    +0.007 C 
ENDBRANCH  26  27
ENDBRANCH  25  26
ENDBRANCH  22  24
ENDBRANCH  19  22
TORSDOF 5
ENDMDL
MODEL 5
REMARK VINA RESULT:      -7.9      9.633     13.350
REMARK  Name = NuBBE_2159
REMARK  10 active torsions:
REMARK  status: ('A' for Active; 'I' for Inactive)
REMARK    1  A    between atoms: O_1  and  C_2
REMARK    2  A    between atoms: C_7  and  C_8
REMARK    3  A    between atoms: C_18  and  C_19
REMARK    4  A    between atoms: C_24  and  C_26
REMARK    5  A    between atoms: C_26  and  C_28
REMARK    6  A    between atoms: C_26  and  C_29
REMARK    7  A    between atoms: C_30  and  C_31
REMARK    8  A    between atoms: C_31  and  C_32
REMARK    9  A    between atoms: C_32  and  C_33
REMARK   10  A    between atoms: C_32  and  C_34
REMARK                            x       y       z     vdW  Elec       q    Type
REMARK                         _______ _______ _______ _____ _____    ______ ____
ROOT
ATOM      1  C   LIG A   1      -2.771   6.816 128.647  0.00  0.00    +0.119 C 
ATOM      2  C   LIG A   1      -1.848   6.308 129.770  0.00  0.00    +0.062 C 
ATOM      3  C   LIG A   1      -3.795   7.863 129.105  0.00  0.00    +0.032 C 
ATOM      4  C   LIG A   1      -4.476   7.518 130.444  0.00  0.00    +0.013 C 
ATOM      5  C   LIG A   1      -3.473   7.153 131.580  0.00  0.00    -0.008 C 
ATOM      6  C   LIG A   1      -2.573   8.383 131.864  0.00  0.00    +0.016 C 
ATOM      7  C   LIG A   1      -2.653   5.996 131.016  0.00  0.00    -0.065 C 
ATOM      8  C   LIG A   1      -2.737   4.740 131.485  0.00  0.00    -0.027 C 
ATOM      9  C   LIG A   1      -3.661   4.308 132.579  0.00  0.00    +0.031 C 
ATOM     10  C   LIG A   1      -4.796   5.310 132.866  0.00  0.00    +0.000 C 
ATOM     11  C   LIG A   1      -4.273   6.770 132.893  0.00  0.00    +0.003 C 
ATOM     12  C   LIG A   1      -3.517   7.016 134.214  0.00  0.00    +0.005 C 
ATOM     13  C   LIG A   1      -4.412   6.774 135.430  0.00  0.00    +0.007 C 
ATOM     14  C   LIG A   1      -4.984   5.347 135.513  0.00  0.00    -0.026 C 
ATOM     15  C   LIG A   1      -3.893   4.352 135.964  0.00  0.00    +0.012 C 
ATOM     16  C   LIG A   1      -5.589   4.918 134.143  0.00  0.00    -0.001 C 
ATOM     17  C   LIG A   1      -6.986   5.550 134.146  0.00  0.00    +0.004 C 
ATOM     18  C   LIG A   1      -7.443   5.576 135.596  0.00  0.00    +0.005 C 
ATOM     19  C   LIG A   1      -6.218   5.251 136.479  0.00  0.00    +0.002 C 
ENDROOT
BRANCH   1  20
ATOM     20  O   LIG A   1      -3.469   5.712 128.061  0.00  0.00    -0.392 OA
ATOM     21  H   LIG A   1      -4.410   5.814 128.286  0.00  0.00    +0.210 HD
ENDBRANCH   1  20
BRANCH  19  22
ATOM     22  C   LIG A   1      -6.223   6.107 137.785  0.00  0.00    +0.012 C 
ATOM     23  C   LIG A   1      -6.545   5.320 139.057  0.00  0.00    +0.012 C 
BRANCH  22  24
ATOM     24  C   LIG A   1      -7.247   7.223 137.691  0.00  0.00    -0.028 C 
ATOM     25  C   LIG A   1      -6.954   8.531 137.820  0.00  0.00    -0.031 C 
BRANCH  25  26
ATOM     26  C   LIG A   1      -7.997   9.613 137.817  0.00  0.00    +0.030 C 
BRANCH  26  27
ATOM     27  C   LIG A   1      -9.246   9.243 138.646  0.00  0.00    -0.013 C 
ATOM     28  C   LIG A   1      -9.590  10.372 139.622  0.00  0.00    +0.007 C 
ATOM     29  C   LIG A   1     -10.462   8.939 137.766  0.00  0.00    +0.007 C 
ENDBRANCH  26  27
ENDBRANCH  25  26
ENDBRANCH  22  24
ENDBRANCH  19  22
TORSDOF 5
ENDMDL
MODEL 6
REMARK VINA RESULT:      -7.9      1.897      3.502
REMARK  Name = NuBBE_2159
REMARK  10 active torsions:
REMARK  status: ('A' for Active; 'I' for Inactive)
REMARK    1  A    between atoms: O_1  and  C_2
REMARK    2  A    between atoms: C_7  and  C_8
REMARK    3  A    between atoms: C_18  and  C_19
REMARK    4  A    between atoms: C_24  and  C_26
REMARK    5  A    between atoms: C_26  and  C_28
REMARK    6  A    between atoms: C_26  and  C_29
REMARK    7  A    between atoms: C_30  and  C_31
REMARK    8  A    between atoms: C_31  and  C_32
REMARK    9  A    between atoms: C_32  and  C_33
REMARK   10  A    between atoms: C_32  and  C_34
REMARK                            x       y       z     vdW  Elec       q    Type
REMARK                         _______ _______ _______ _____ _____    ______ ____
ROOT
ATOM      1  C   LIG A   1      -5.247  -4.247 133.692  0.00  0.00    +0.119 C 
ATOM      2  C   LIG A   1      -5.084  -2.797 133.201  0.00  0.00    +0.062 C 
ATOM      3  C   LIG A   1      -4.993  -5.306 132.611  0.00  0.00    +0.032 C 
ATOM      4  C   LIG A   1      -5.636  -4.970 131.252  0.00  0.00    +0.013 C 
ATOM      5  C   LIG A   1      -5.310  -3.534 130.744  0.00  0.00    -0.008 C 
ATOM      6  C   LIG A   1      -3.779  -3.416 130.531  0.00  0.00    +0.016 C 
ATOM      7  C   LIG A   1      -5.777  -2.610 131.865  0.00  0.00    -0.065 C 
ATOM      8  C   LIG A   1      -6.828  -1.782 131.745  0.00  0.00    -0.027 C 
ATOM      9  C   LIG A   1      -7.691  -1.687 130.528  0.00  0.00    +0.031 C 
ATOM     10  C   LIG A   1      -7.543  -2.881 129.566  0.00  0.00    +0.000 C 
ATOM     11  C   LIG A   1      -6.055  -3.273 129.370  0.00  0.00    +0.003 C 
ATOM     12  C   LIG A   1      -5.375  -2.246 128.442  0.00  0.00    +0.005 C 
ATOM     13  C   LIG A   1      -6.065  -2.173 127.079  0.00  0.00    +0.007 C 
ATOM     14  C   LIG A   1      -7.553  -1.781 127.150  0.00  0.00    -0.026 C 
ATOM     15  C   LIG A   1      -7.702  -0.273 127.444  0.00  0.00    +0.012 C 
ATOM     16  C   LIG A   1      -8.292  -2.629 128.228  0.00  0.00    -0.001 C 
ATOM     17  C   LIG A   1      -8.605  -3.946 127.508  0.00  0.00    +0.004 C 
ATOM     18  C   LIG A   1      -8.814  -3.596 126.043  0.00  0.00    +0.005 C 
ATOM     19  C   LIG A   1      -8.332  -2.143 125.835  0.00  0.00    +0.002 C 
ENDROOT
BRANCH   1  20
ATOM     20  O   LIG A   1      -6.566  -4.431 134.218  0.00  0.00    -0.392 OA
ATOM     21  H   LIG A   1      -7.060  -3.610 134.052  0.00  0.00    +0.210 HD
ENDBRANCH   1  20
BRANCH  19  22
ATOM     22  C   LIG A   1      -7.608  -1.983 124.461  0.00  0.00    +0.012 C 
ATOM     23  C   LIG A   1      -6.458  -2.967 124.232  0.00  0.00    +0.012 C 
BRANCH  22  24
ATOM     24  C   LIG A   1      -7.022  -0.589 124.322  0.00  0.00    -0.028 C 
ATOM     25  C   LIG A   1      -7.543   0.375 123.540  0.00  0.00    -0.031 C 
BRANCH  25  26
ATOM     26  C   LIG A   1      -6.895   1.717 123.345  0.00  0.00    +0.030 C 
BRANCH  26  27
ATOM     27  C   LIG A   1      -7.899   2.885 123.429  0.00  0.00    -0.013 C 
ATOM     28  C   LIG A   1      -8.582   3.099 122.074  0.00  0.00    +0.007 C 
ATOM     29  C   LIG A   1      -8.963   2.665 124.508  0.00  0.00    +0.007 C 
ENDBRANCH  26  27
ENDBRANCH  25  26
ENDBRANCH  22  24
ENDBRANCH  19  22
TORSDOF 5
ENDMDL
MODEL 7
REMARK VINA RESULT:      -7.8      3.386      7.836
REMARK  Name = NuBBE_2159
REMARK  10 active torsions:
REMARK  status: ('A' for Active; 'I' for Inactive)
REMARK    1  A    between atoms: O_1  and  C_2
REMARK    2  A    between atoms: C_7  and  C_8
REMARK    3  A    between atoms: C_18  and  C_19
REMARK    4  A    between atoms: C_24  and  C_26
REMARK    5  A    between atoms: C_26  and  C_28
REMARK    6  A    between atoms: C_26  and  C_29
REMARK    7  A    between atoms: C_30  and  C_31
REMARK    8  A    between atoms: C_31  and  C_32
REMARK    9  A    between atoms: C_32  and  C_33
REMARK   10  A    between atoms: C_32  and  C_34
REMARK                            x       y       z     vdW  Elec       q    Type
REMARK                         _______ _______ _______ _____ _____    ______ ____
ROOT
ATOM      1  C   LIG A   1      -8.399  -2.010 122.902  0.00  0.00    +0.119 C 
ATOM      2  C   LIG A   1      -7.987  -3.288 123.655  0.00  0.00    +0.062 C 
ATOM      3  C   LIG A   1      -7.528  -0.787 123.221  0.00  0.00    +0.032 C 
ATOM      4  C   LIG A   1      -7.216  -0.625 124.721  0.00  0.00    +0.013 C 
ATOM      5  C   LIG A   1      -6.665  -1.920 125.390  0.00  0.00    -0.008 C 
ATOM      6  C   LIG A   1      -5.321  -2.296 124.714  0.00  0.00    +0.016 C 
ATOM      7  C   LIG A   1      -7.727  -2.980 125.117  0.00  0.00    -0.065 C 
ATOM      8  C   LIG A   1      -8.498  -3.513 126.080  0.00  0.00    -0.027 C 
ATOM      9  C   LIG A   1      -8.445  -3.112 127.520  0.00  0.00    +0.031 C 
ATOM     10  C   LIG A   1      -7.728  -1.770 127.766  0.00  0.00    +0.000 C 
ATOM     11  C   LIG A   1      -6.424  -1.660 126.935  0.00  0.00    +0.003 C 
ATOM     12  C   LIG A   1      -5.332  -2.536 127.582  0.00  0.00    +0.005 C 
ATOM     13  C   LIG A   1      -5.052  -2.114 129.025  0.00  0.00    +0.007 C 
ATOM     14  C   LIG A   1      -6.280  -2.192 129.950  0.00  0.00    -0.026 C 
ATOM     15  C   LIG A   1      -6.595  -3.660 130.310  0.00  0.00    +0.012 C 
ATOM     16  C   LIG A   1      -7.513  -1.512 129.283  0.00  0.00    -0.001 C 
ATOM     17  C   LIG A   1      -7.309  -0.020 129.570  0.00  0.00    +0.004 C 
ATOM     18  C   LIG A   1      -6.588   0.066 130.906  0.00  0.00    +0.005 C 
ATOM     19  C   LIG A   1      -6.096  -1.353 131.265  0.00  0.00    +0.002 C 
ENDROOT
BRANCH   1  20
ATOM     20  O   LIG A   1      -9.763  -1.695 123.199  0.00  0.00    -0.392 OA
ATOM     21  H   LIG A   1     -10.195  -1.464 122.358  0.00  0.00    +0.210 HD
ENDBRANCH   1  20
BRANCH  19  22
ATOM     22  C   LIG A   1      -4.687  -1.306 131.938  0.00  0.00    +0.012 C 
ATOM     23  C   LIG A   1      -4.664  -1.781 133.393  0.00  0.00    +0.012 C 
BRANCH  22  24
ATOM     24  C   LIG A   1      -4.137   0.108 131.932  0.00  0.00    -0.028 C 
ATOM     25  C   LIG A   1      -3.607   0.717 133.010  0.00  0.00    -0.031 C 
BRANCH  25  26
ATOM     26  C   LIG A   1      -3.153   2.150 133.006  0.00  0.00    +0.030 C 
BRANCH  26  27
ATOM     27  C   LIG A   1      -3.866   3.001 131.934  0.00  0.00    -0.013 C 
ATOM     28  C   LIG A   1      -5.210   3.511 132.466  0.00  0.00    +0.007 C 
ATOM     29  C   LIG A   1      -3.017   4.188 131.470  0.00  0.00    +0.007 C 
ENDBRANCH  26  27
ENDBRANCH  25  26
ENDBRANCH  22  24
ENDBRANCH  19  22
TORSDOF 5
ENDMDL
MODEL 8
REMARK VINA RESULT:      -7.8      3.338      9.800
REMARK  Name = NuBBE_2159
REMARK  10 active torsions:
REMARK  status: ('A' for Active; 'I' for Inactive)
REMARK    1  A    between atoms: O_1  and  C_2
REMARK    2  A    between atoms: C_7  and  C_8
REMARK    3  A    between atoms: C_18  and  C_19
REMARK    4  A    between atoms: C_24  and  C_26
REMARK    5  A    between atoms: C_26  and  C_28
REMARK    6  A    between atoms: C_26  and  C_29
REMARK    7  A    between atoms: C_30  and  C_31
REMARK    8  A    between atoms: C_31  and  C_32
REMARK    9  A    between atoms: C_32  and  C_33
REMARK   10  A    between atoms: C_32  and  C_34
REMARK                            x       y       z     vdW  Elec       q    Type
REMARK                         _______ _______ _______ _____ _____    ______ ____
ROOT
ATOM      1  C   LIG A   1      -8.301  -0.609 123.391  0.00  0.00    +0.119 C 
ATOM      2  C   LIG A   1      -9.105  -0.193 124.636  0.00  0.00    +0.062 C 
ATOM      3  C   LIG A   1      -7.789  -2.055 123.431  0.00  0.00    +0.032 C 
ATOM      4  C   LIG A   1      -7.197  -2.464 124.793  0.00  0.00    +0.013 C 
ATOM      5  C   LIG A   1      -8.128  -2.145 126.001  0.00  0.00    -0.008 C 
ATOM      6  C   LIG A   1      -9.441  -2.956 125.846  0.00  0.00    +0.016 C 
ATOM      7  C   LIG A   1      -8.399  -0.647 125.898  0.00  0.00    -0.065 C 
ATOM      8  C   LIG A   1      -7.923   0.248 126.780  0.00  0.00    -0.027 C 
ATOM      9  C   LIG A   1      -7.045  -0.098 127.940  0.00  0.00    +0.031 C 
ATOM     10  C   LIG A   1      -6.394  -1.490 127.834  0.00  0.00    +0.000 C 
ATOM     11  C   LIG A   1      -7.409  -2.558 127.351  0.00  0.00    +0.003 C 
ATOM     12  C   LIG A   1      -8.357  -2.923 128.512  0.00  0.00    +0.005 C 
ATOM     13  C   LIG A   1      -7.588  -3.461 129.720  0.00  0.00    +0.007 C 
ATOM     14  C   LIG A   1      -6.553  -2.477 130.294  0.00  0.00    -0.026 C 
ATOM     15  C   LIG A   1      -7.254  -1.353 131.085  0.00  0.00    +0.012 C 
ATOM     16  C   LIG A   1      -5.672  -1.881 129.154  0.00  0.00    -0.001 C 
ATOM     17  C   LIG A   1      -4.610  -2.960 128.909  0.00  0.00    +0.004 C 
ATOM     18  C   LIG A   1      -4.373  -3.641 130.248  0.00  0.00    +0.005 C 
ATOM     19  C   LIG A   1      -5.493  -3.187 131.210  0.00  0.00    +0.002 C 
ENDROOT
BRANCH   1  20
ATOM     20  O   LIG A   1      -7.186   0.272 123.222  0.00  0.00    -0.392 OA
ATOM     21  H   LIG A   1      -6.778   0.392 124.098  0.00  0.00    +0.210 HD
ENDBRANCH   1  20
BRANCH  19  22
ATOM     22  C   LIG A   1      -5.957  -4.363 132.127  0.00  0.00    +0.012 C 
ATOM     23  C   LIG A   1      -6.593  -3.923 133.448  0.00  0.00    +0.012 C 
BRANCH  22  24
ATOM     24  C   LIG A   1      -4.786  -5.259 132.485  0.00  0.00    -0.028 C 
ATOM     25  C   LIG A   1      -4.503  -5.670 133.736  0.00  0.00    -0.031 C 
BRANCH  25  26
ATOM     26  C   LIG A   1      -3.284  -6.480 134.080  0.00  0.00    +0.030 C 
BRANCH  26  27
ATOM     27  C   LIG A   1      -2.528  -5.931 135.308  0.00  0.00    -0.013 C 
ATOM     28  C   LIG A   1      -1.694  -4.707 134.915  0.00  0.00    +0.007 C 
ATOM     29  C   LIG A   1      -3.469  -5.562 136.458  0.00  0.00    +0.007 C 
ENDBRANCH  26  27
ENDBRANCH  25  26
ENDBRANCH  22  24
ENDBRANCH  19  22
TORSDOF 5
ENDMDL
MODEL 9
REMARK VINA RESULT:      -7.8      4.381      6.820
REMARK  Name = NuBBE_2159
REMARK  10 active torsions:
REMARK  status: ('A' for Active; 'I' for Inactive)
REMARK    1  A    between atoms: O_1  and  C_2
REMARK    2  A    between atoms: C_7  and  C_8
REMARK    3  A    between atoms: C_18  and  C_19
REMARK    4  A    between atoms: C_24  and  C_26
REMARK    5  A    between atoms: C_26  and  C_28
REMARK    6  A    between atoms: C_26  and  C_29
REMARK    7  A    between atoms: C_30  and  C_31
REMARK    8  A    between atoms: C_31  and  C_32
REMARK    9  A    between atoms: C_32  and  C_33
REMARK   10  A    between atoms: C_32  and  C_34
REMARK                            x       y       z     vdW  Elec       q    Type
REMARK                         _______ _______ _______ _____ _____    ______ ____
ROOT
ATOM      1  C   LIG A   1      -8.985  -3.282 123.707  0.00  0.00    +0.119 C 
ATOM      2  C   LIG A   1      -8.749  -3.052 125.211  0.00  0.00    +0.062 C 
ATOM      3  C   LIG A   1      -7.801  -2.877 122.819  0.00  0.00    +0.032 C 
ATOM      4  C   LIG A   1      -7.167  -1.529 123.212  0.00  0.00    +0.013 C 
ATOM      5  C   LIG A   1      -6.819  -1.418 124.727  0.00  0.00    -0.008 C 
ATOM      6  C   LIG A   1      -5.767  -2.502 125.077  0.00  0.00    +0.016 C 
ATOM      7  C   LIG A   1      -8.136  -1.686 125.448  0.00  0.00    -0.065 C 
ATOM      8  C   LIG A   1      -8.805  -0.741 126.132  0.00  0.00    -0.027 C 
ATOM      9  C   LIG A   1      -8.371   0.685 126.240  0.00  0.00    +0.031 C 
ATOM     10  C   LIG A   1      -7.320   1.098 125.192  0.00  0.00    +0.000 C 
ATOM     11  C   LIG A   1      -6.220   0.017 125.032  0.00  0.00    +0.003 C 
ATOM     12  C   LIG A   1      -5.262   0.082 126.239  0.00  0.00    +0.005 C 
ATOM     13  C   LIG A   1      -4.608   1.458 126.366  0.00  0.00    +0.007 C 
ATOM     14  C   LIG A   1      -5.609   2.615 126.540  0.00  0.00    -0.026 C 
ATOM     15  C   LIG A   1      -6.187   2.621 127.971  0.00  0.00    +0.012 C 
ATOM     16  C   LIG A   1      -6.751   2.514 125.485  0.00  0.00    -0.001 C 
ATOM     17  C   LIG A   1      -6.143   3.141 124.225  0.00  0.00    +0.004 C 
ATOM     18  C   LIG A   1      -5.171   4.208 124.702  0.00  0.00    +0.005 C 
ATOM     19  C   LIG A   1      -4.971   4.014 126.221  0.00  0.00    +0.002 C 
ENDROOT
BRANCH   1  20
ATOM     20  O   LIG A   1     -10.147  -2.561 123.287  0.00  0.00    -0.392 OA
ATOM     21  H   LIG A   1     -10.070  -2.425 122.326  0.00  0.00    +0.210 HD
ENDBRANCH   1  20
BRANCH  19  22
ATOM     22  C   LIG A   1      -3.487   4.276 126.631  0.00  0.00    +0.012 C 
ATOM     23  C   LIG A   1      -2.609   3.023 126.668  0.00  0.00    +0.012 C 
BRANCH  22  24
ATOM     24  C   LIG A   1      -3.413   4.901 128.012  0.00  0.00    -0.028 C 
ATOM     25  C   LIG A   1      -3.128   4.218 129.137  0.00  0.00    -0.031 C 
BRANCH  25  26
ATOM     26  C   LIG A   1      -3.152   4.838 130.506  0.00  0.00    +0.030 C 
BRANCH  26  27
ATOM     27  C   LIG A   1      -2.631   6.290 130.515  0.00  0.00    -0.013 C 
ATOM     28  C   LIG A   1      -3.713   7.241 131.035  0.00  0.00    +0.007 C 
ATOM     29  C   LIG A   1      -1.362   6.450 131.357  0.00  0.00    +0.007 C 
ENDBRANCH  26  27
ENDBRANCH  25  26
ENDBRANCH  22  24
ENDBRANCH  19  22
TORSDOF 5
ENDMDL
