MODEL 1
REMARK VINA RESULT:      -7.5      0.000      0.000
REMARK  Name = NuBBE_1999
REMARK  10 active torsions:
REMARK  status: ('A' for Active; 'I' for Inactive)
REMARK    1  A    between atoms: C_1  and  C_2
REMARK    2  A    between atoms: C_7  and  C_9
REMARK    3  A    between atoms: C_12  and  O_13
REMARK    4  A    between atoms: O_13  and  C_14
REMARK    5  A    between atoms: C_15  and  O_16
REMARK    6  A    between atoms: O_16  and  C_17
REMARK    7  A    between atoms: C_21  and  O_22
REMARK    8  A    between atoms: C_23  and  C_24
REMARK    9  A    between atoms: C_25  and  O_26
REMARK   10  A    between atoms: O_26  and  C_27
REMARK                            x       y       z     vdW  Elec       q    Type
REMARK                         _______ _______ _______ _____ _____    ______ ____
ROOT
ATOM      1  C   LIG A   1      -6.880   0.950 127.354  0.00  0.00    +0.051 C 
ATOM      2  C   LIG A   1      -7.036   0.174 126.079  0.00  0.00    +0.034 A 
ATOM      3  C   LIG A   1      -8.062   0.540 125.181  0.00  0.00    +0.142 A 
ATOM      4  C   LIG A   1      -8.365  -0.248 124.069  0.00  0.00    +0.101 A 
ATOM      5  C   LIG A   1      -9.563   0.097 123.272  0.00  0.00    +0.174 C 
ATOM      6  C   LIG A   1     -10.299   1.350 123.649  0.00  0.00    +0.129 C 
ATOM      7  C   LIG A   1      -9.301   2.329 124.259  0.00  0.00    +0.211 C 
ATOM      8  O   LIG A   1      -8.742   1.712 125.442  0.00  0.00    -0.483 OA
ATOM      9  O   LIG A   1      -9.956  -0.661 122.388  0.00  0.00    -0.292 OA
ATOM     10  C   LIG A   1      -7.559  -1.335 123.745  0.00  0.00    +0.137 A 
ATOM     11  C   LIG A   1      -6.451  -1.652 124.542  0.00  0.00    +0.034 A 
ATOM     12  C   LIG A   1      -5.491  -2.739 124.124  0.00  0.00    +0.051 C 
ATOM     13  C   LIG A   1      -6.205  -0.915 125.728  0.00  0.00    +0.133 A 
ENDROOT
BRANCH   7  14
ATOM     14  C   LIG A   1      -8.233   2.912 123.328  0.00  0.00    -0.003 A 
ATOM     15  C   LIG A   1      -6.915   3.116 123.751  0.00  0.00    +0.011 A 
ATOM     16  C   LIG A   1      -5.952   3.609 122.868  0.00  0.00    +0.050 A 
ATOM     17  C   LIG A   1      -6.273   3.915 121.542  0.00  0.00    +0.162 A 
ATOM     18  C   LIG A   1      -7.581   3.700 121.088  0.00  0.00    +0.162 A 
ATOM     19  C   LIG A   1      -8.539   3.190 121.980  0.00  0.00    +0.056 A 
BRANCH  17  20
ATOM     20  O   LIG A   1      -5.201   4.353 120.809  0.00  0.00    -0.491 OA
ATOM     21  C   LIG A   1      -4.365   5.329 121.418  0.00  0.00    +0.277 C 
ENDBRANCH  17  20
BRANCH  18  22
ATOM     22  O   LIG A   1      -7.853   3.893 119.759  0.00  0.00    -0.491 OA
ATOM     23  C   LIG A   1      -9.196   4.221 119.427  0.00  0.00    +0.277 C 
ENDBRANCH  18  22
ENDBRANCH   7  14
BRANCH  10  24
ATOM     24  O   LIG A   1      -7.819  -2.119 122.647  0.00  0.00    -0.506 OA
ATOM     25  H   LIG A   1      -6.995  -2.609 122.413  0.00  0.00    +0.292 HD
ENDBRANCH  10  24
BRANCH  13  26
ATOM     26  O   LIG A   1      -5.210  -1.429 126.521  0.00  0.00    -0.494 OA
ATOM     27  C   LIG A   1      -5.588  -2.209 127.644  0.00  0.00    +0.277 C 
ENDBRANCH  13  26
TORSDOF 5
ENDMDL
MODEL 2
REMARK VINA RESULT:      -7.5      1.144      2.196
REMARK  Name = NuBBE_1999
REMARK  10 active torsions:
REMARK  status: ('A' for Active; 'I' for Inactive)
REMARK    1  A    between atoms: C_1  and  C_2
REMARK    2  A    between atoms: C_7  and  C_9
REMARK    3  A    between atoms: C_12  and  O_13
REMARK    4  A    between atoms: O_13  and  C_14
REMARK    5  A    between atoms: C_15  and  O_16
REMARK    6  A    between atoms: O_16  and  C_17
REMARK    7  A    between atoms: C_21  and  O_22
REMARK    8  A    between atoms: C_23  and  C_24
REMARK    9  A    between atoms: C_25  and  O_26
REMARK   10  A    between atoms: O_26  and  C_27
REMARK                            x       y       z     vdW  Elec       q    Type
REMARK                         _______ _______ _______ _____ _____    ______ ____
ROOT
ATOM      1  C   LIG A   1      -7.455   0.641 127.809  0.00  0.00    +0.051 C 
ATOM      2  C   LIG A   1      -7.478  -0.077 126.491  0.00  0.00    +0.034 A 
ATOM      3  C   LIG A   1      -8.368   0.365 125.490  0.00  0.00    +0.142 A 
ATOM      4  C   LIG A   1      -8.557  -0.365 124.315  0.00  0.00    +0.101 A 
ATOM      5  C   LIG A   1      -9.632   0.059 123.392  0.00  0.00    +0.174 C 
ATOM      6  C   LIG A   1     -10.365   1.325 123.729  0.00  0.00    +0.129 C 
ATOM      7  C   LIG A   1      -9.417   2.239 124.501  0.00  0.00    +0.211 C 
ATOM      8  O   LIG A   1      -9.033   1.553 125.715  0.00  0.00    -0.483 OA
ATOM      9  O   LIG A   1      -9.937  -0.647 122.433  0.00  0.00    -0.292 OA
ATOM     10  C   LIG A   1      -7.756  -1.471 124.046  0.00  0.00    +0.137 A 
ATOM     11  C   LIG A   1      -6.769  -1.864 124.960  0.00  0.00    +0.034 A 
ATOM     12  C   LIG A   1      -5.804  -2.972 124.617  0.00  0.00    +0.051 C 
ATOM     13  C   LIG A   1      -6.648  -1.185 126.199  0.00  0.00    +0.133 A 
ENDROOT
BRANCH   7  14
ATOM     14  C   LIG A   1      -8.221   2.813 123.736  0.00  0.00    -0.003 A 
ATOM     15  C   LIG A   1      -8.238   2.969 122.345  0.00  0.00    +0.011 A 
ATOM     16  C   LIG A   1      -7.149   3.535 121.678  0.00  0.00    +0.050 A 
ATOM     17  C   LIG A   1      -6.013   3.957 122.374  0.00  0.00    +0.162 A 
ATOM     18  C   LIG A   1      -5.979   3.830 123.769  0.00  0.00    +0.162 A 
ATOM     19  C   LIG A   1      -7.085   3.274 124.433  0.00  0.00    +0.056 A 
BRANCH  17  20
ATOM     20  O   LIG A   1      -5.058   4.520 121.568  0.00  0.00    -0.491 OA
ATOM     21  C   LIG A   1      -5.401   4.699 120.199  0.00  0.00    +0.277 C 
ENDBRANCH  17  20
BRANCH  18  22
ATOM     22  O   LIG A   1      -4.910   4.355 124.448  0.00  0.00    -0.491 OA
ATOM     23  C   LIG A   1      -4.589   3.747 125.692  0.00  0.00    +0.277 C 
ENDBRANCH  18  22
ENDBRANCH   7  14
BRANCH  10  24
ATOM     24  O   LIG A   1      -7.903  -2.201 122.891  0.00  0.00    -0.506 OA
ATOM     25  H   LIG A   1      -8.862  -2.398 122.767  0.00  0.00    +0.292 HD
ENDBRANCH  10  24
BRANCH  13  26
ATOM     26  O   LIG A   1      -5.780  -1.769 127.085  0.00  0.00    -0.494 OA
ATOM     27  C   LIG A   1      -6.327  -2.494 128.176  0.00  0.00    +0.277 C 
ENDBRANCH  13  26
TORSDOF 5
ENDMDL
MODEL 3
REMARK VINA RESULT:      -7.0      1.768      6.229
REMARK  Name = NuBBE_1999
REMARK  10 active torsions:
REMARK  status: ('A' for Active; 'I' for Inactive)
REMARK    1  A    between atoms: C_1  and  C_2
REMARK    2  A    between atoms: C_7  and  C_9
REMARK    3  A    between atoms: C_12  and  O_13
REMARK    4  A    between atoms: O_13  and  C_14
REMARK    5  A    between atoms: C_15  and  O_16
REMARK    6  A    between atoms: O_16  and  C_17
REMARK    7  A    between atoms: C_21  and  O_22
REMARK    8  A    between atoms: C_23  and  C_24
REMARK    9  A    between atoms: C_25  and  O_26
REMARK   10  A    between atoms: O_26  and  C_27
REMARK                            x       y       z     vdW  Elec       q    Type
REMARK                         _______ _______ _______ _____ _____    ______ ____
ROOT
ATOM      1  C   LIG A   1      -7.949   3.143 121.855  0.00  0.00    +0.051 C 
ATOM      2  C   LIG A   1      -7.425   2.986 123.253  0.00  0.00    +0.034 A 
ATOM      3  C   LIG A   1      -8.040   2.046 124.108  0.00  0.00    +0.142 A 
ATOM      4  C   LIG A   1      -7.712   1.979 125.464  0.00  0.00    +0.101 A 
ATOM      5  C   LIG A   1      -8.518   1.098 126.336  0.00  0.00    +0.174 C 
ATOM      6  C   LIG A   1      -9.557   0.241 125.672  0.00  0.00    +0.129 C 
ATOM      7  C   LIG A   1      -9.092  -0.066 124.252  0.00  0.00    +0.211 C 
ATOM      8  O   LIG A   1      -8.966   1.191 123.547  0.00  0.00    -0.483 OA
ATOM      9  O   LIG A   1      -8.370   1.132 127.556  0.00  0.00    -0.292 OA
ATOM     10  C   LIG A   1      -6.663   2.743 125.965  0.00  0.00    +0.137 A 
ATOM     11  C   LIG A   1      -5.942   3.593 125.116  0.00  0.00    +0.034 A 
ATOM     12  C   LIG A   1      -4.717   4.319 125.615  0.00  0.00    +0.051 C 
ATOM     13  C   LIG A   1      -6.342   3.738 123.763  0.00  0.00    +0.133 A 
ENDROOT
BRANCH   7  14
ATOM     14  C   LIG A   1      -7.860  -0.963 124.097  0.00  0.00    -0.003 A 
ATOM     15  C   LIG A   1      -7.313  -1.257 122.843  0.00  0.00    +0.011 A 
ATOM     16  C   LIG A   1      -6.163  -2.044 122.734  0.00  0.00    +0.050 A 
ATOM     17  C   LIG A   1      -5.531  -2.563 123.868  0.00  0.00    +0.162 A 
ATOM     18  C   LIG A   1      -6.048  -2.267 125.135  0.00  0.00    +0.162 A 
ATOM     19  C   LIG A   1      -7.195  -1.461 125.236  0.00  0.00    +0.056 A 
BRANCH  17  20
ATOM     20  O   LIG A   1      -4.399  -3.281 123.579  0.00  0.00    -0.491 OA
ATOM     21  C   LIG A   1      -4.512  -4.698 123.622  0.00  0.00    +0.277 C 
ENDBRANCH  17  20
BRANCH  18  22
ATOM     22  O   LIG A   1      -5.351  -2.684 126.240  0.00  0.00    -0.491 OA
ATOM     23  C   LIG A   1      -5.742  -2.121 127.485  0.00  0.00    +0.277 C 
ENDBRANCH  18  22
ENDBRANCH   7  14
BRANCH  10  24
ATOM     24  O   LIG A   1      -6.302   2.687 127.291  0.00  0.00    -0.506 OA
ATOM     25  H   LIG A   1      -5.535   2.073 127.378  0.00  0.00    +0.292 HD
ENDBRANCH  10  24
BRANCH  13  26
ATOM     26  O   LIG A   1      -5.686   4.729 123.079  0.00  0.00    -0.494 OA
ATOM     27  C   LIG A   1      -4.896   4.358 121.959  0.00  0.00    +0.277 C 
ENDBRANCH  13  26
TORSDOF 5
ENDMDL
MODEL 4
REMARK VINA RESULT:      -6.9      6.633      8.965
REMARK  Name = NuBBE_1999
REMARK  10 active torsions:
REMARK  status: ('A' for Active; 'I' for Inactive)
REMARK    1  A    between atoms: C_1  and  C_2
REMARK    2  A    between atoms: C_7  and  C_9
REMARK    3  A    between atoms: C_12  and  O_13
REMARK    4  A    between atoms: O_13  and  C_14
REMARK    5  A    between atoms: C_15  and  O_16
REMARK    6  A    between atoms: O_16  and  C_17
REMARK    7  A    between atoms: C_21  and  O_22
REMARK    8  A    between atoms: C_23  and  C_24
REMARK    9  A    between atoms: C_25  and  O_26
REMARK   10  A    between atoms: O_26  and  C_27
REMARK                            x       y       z     vdW  Elec       q    Type
REMARK                         _______ _______ _______ _____ _____    ______ ____
ROOT
ATOM      1  C   LIG A   1      -5.582   6.620 130.733  0.00  0.00    +0.051 C 
ATOM      2  C   LIG A   1      -6.448   5.448 130.373  0.00  0.00    +0.034 A 
ATOM      3  C   LIG A   1      -7.494   5.082 131.248  0.00  0.00    +0.142 A 
ATOM      4  C   LIG A   1      -8.218   3.903 131.055  0.00  0.00    +0.101 A 
ATOM      5  C   LIG A   1      -9.176   3.491 132.104  0.00  0.00    +0.174 C 
ATOM      6  C   LIG A   1      -9.390   4.440 133.248  0.00  0.00    +0.129 C 
ATOM      7  C   LIG A   1      -9.148   5.860 132.746  0.00  0.00    +0.211 C 
ATOM      8  O   LIG A   1      -7.778   5.940 132.289  0.00  0.00    -0.483 OA
ATOM      9  O   LIG A   1      -9.711   2.385 132.052  0.00  0.00    -0.292 OA
ATOM     10  C   LIG A   1      -8.016   3.141 129.908  0.00  0.00    +0.137 A 
ATOM     11  C   LIG A   1      -7.075   3.545 128.951  0.00  0.00    +0.034 A 
ATOM     12  C   LIG A   1      -6.947   2.806 127.641  0.00  0.00    +0.051 C 
ATOM     13  C   LIG A   1      -6.268   4.685 129.197  0.00  0.00    +0.133 A 
ENDROOT
BRANCH   7  14
ATOM     14  C   LIG A   1     -10.149   6.425 131.733  0.00  0.00    -0.003 A 
ATOM     15  C   LIG A   1     -11.524   6.450 131.988  0.00  0.00    +0.011 A 
ATOM     16  C   LIG A   1     -12.411   7.010 131.065  0.00  0.00    +0.050 A 
ATOM     17  C   LIG A   1     -11.953   7.557 129.862  0.00  0.00    +0.162 A 
ATOM     18  C   LIG A   1     -10.579   7.562 129.592  0.00  0.00    +0.162 A 
ATOM     19  C   LIG A   1      -9.694   7.011 130.534  0.00  0.00    +0.056 A 
BRANCH  17  20
ATOM     20  O   LIG A   1     -12.954   8.093 129.093  0.00  0.00    -0.491 OA
ATOM     21  C   LIG A   1     -13.121   9.504 129.155  0.00  0.00    +0.277 C 
ENDBRANCH  17  20
BRANCH  18  22
ATOM     22  O   LIG A   1     -10.136   8.205 128.466  0.00  0.00    -0.491 OA
ATOM     23  C   LIG A   1     -10.459   7.599 127.221  0.00  0.00    +0.277 C 
ENDBRANCH  18  22
ENDBRANCH   7  14
BRANCH  10  24
ATOM     24  O   LIG A   1      -8.725   1.986 129.679  0.00  0.00    -0.506 OA
ATOM     25  H   LIG A   1      -8.229   1.233 130.078  0.00  0.00    +0.292 HD
ENDBRANCH  10  24
BRANCH  13  26
ATOM     26  O   LIG A   1      -5.262   4.876 128.285  0.00  0.00    -0.494 OA
ATOM     27  C   LIG A   1      -3.959   4.424 128.623  0.00  0.00    +0.277 C 
ENDBRANCH  13  26
TORSDOF 5
ENDMDL
MODEL 5
REMARK VINA RESULT:      -6.7      7.701      9.743
REMARK  Name = NuBBE_1999
REMARK  10 active torsions:
REMARK  status: ('A' for Active; 'I' for Inactive)
REMARK    1  A    between atoms: C_1  and  C_2
REMARK    2  A    between atoms: C_7  and  C_9
REMARK    3  A    between atoms: C_12  and  O_13
REMARK    4  A    between atoms: O_13  and  C_14
REMARK    5  A    between atoms: C_15  and  O_16
REMARK    6  A    between atoms: O_16  and  C_17
REMARK    7  A    between atoms: C_21  and  O_22
REMARK    8  A    between atoms: C_23  and  C_24
REMARK    9  A    between atoms: C_25  and  O_26
REMARK   10  A    between atoms: O_26  and  C_27
REMARK                            x       y       z     vdW  Elec       q    Type
REMARK                         _______ _______ _______ _____ _____    ______ ____
ROOT
ATOM      1  C   LIG A   1      -4.100   6.330 132.605  0.00  0.00    +0.051 C 
ATOM      2  C   LIG A   1      -4.860   5.097 132.212  0.00  0.00    +0.034 A 
ATOM      3  C   LIG A   1      -6.074   4.807 132.871  0.00  0.00    +0.142 A 
ATOM      4  C   LIG A   1      -6.733   3.592 132.672  0.00  0.00    +0.101 A 
ATOM      5  C   LIG A   1      -7.900   3.281 133.525  0.00  0.00    +0.174 C 
ATOM      6  C   LIG A   1      -8.369   4.356 134.463  0.00  0.00    +0.129 C 
ATOM      7  C   LIG A   1      -8.025   5.711 133.853  0.00  0.00    +0.211 C 
ATOM      8  O   LIG A   1      -6.587   5.777 133.706  0.00  0.00    -0.483 OA
ATOM      9  O   LIG A   1      -8.407   2.162 133.496  0.00  0.00    -0.292 OA
ATOM     10  C   LIG A   1      -6.276   2.702 131.705  0.00  0.00    +0.137 A 
ATOM     11  C   LIG A   1      -5.146   3.015 130.938  0.00  0.00    +0.034 A 
ATOM     12  C   LIG A   1      -4.724   2.126 129.793  0.00  0.00    +0.051 C 
ATOM     13  C   LIG A   1      -4.418   4.201 131.211  0.00  0.00    +0.133 A 
ENDROOT
BRANCH   7  14
ATOM     14  C   LIG A   1      -8.774   6.116 132.580  0.00  0.00    -0.003 A 
ATOM     15  C   LIG A   1      -8.100   6.486 131.411  0.00  0.00    +0.011 A 
ATOM     16  C   LIG A   1      -8.808   6.810 130.251  0.00  0.00    +0.050 A 
ATOM     17  C   LIG A   1     -10.206   6.779 130.224  0.00  0.00    +0.162 A 
ATOM     18  C   LIG A   1     -10.904   6.392 131.376  0.00  0.00    +0.162 A 
ATOM     19  C   LIG A   1     -10.182   6.053 132.532  0.00  0.00    +0.056 A 
BRANCH  17  20
ATOM     20  O   LIG A   1     -10.733   7.091 128.998  0.00  0.00    -0.491 OA
ATOM     21  C   LIG A   1     -10.595   8.438 128.566  0.00  0.00    +0.277 C 
ENDBRANCH  17  20
BRANCH  18  22
ATOM     22  O   LIG A   1     -12.265   6.253 131.299  0.00  0.00    -0.491 OA
ATOM     23  C   LIG A   1     -13.032   7.444 131.427  0.00  0.00    +0.277 C 
ENDBRANCH  18  22
ENDBRANCH   7  14
BRANCH  10  24
ATOM     24  O   LIG A   1      -6.912   1.506 131.471  0.00  0.00    -0.506 OA
ATOM     25  H   LIG A   1      -7.747   1.491 131.995  0.00  0.00    +0.292 HD
ENDBRANCH  10  24
BRANCH  13  26
ATOM     26  O   LIG A   1      -3.233   4.311 130.529  0.00  0.00    -0.494 OA
ATOM     27  C   LIG A   1      -3.171   5.219 129.439  0.00  0.00    +0.277 C 
ENDBRANCH  13  26
TORSDOF 5
ENDMDL
MODEL 6
REMARK VINA RESULT:      -6.7      4.762      7.353
REMARK  Name = NuBBE_1999
REMARK  10 active torsions:
REMARK  status: ('A' for Active; 'I' for Inactive)
REMARK    1  A    between atoms: C_1  and  C_2
REMARK    2  A    between atoms: C_7  and  C_9
REMARK    3  A    between atoms: C_12  and  O_13
REMARK    4  A    between atoms: O_13  and  C_14
REMARK    5  A    between atoms: C_15  and  O_16
REMARK    6  A    between atoms: O_16  and  C_17
REMARK    7  A    between atoms: C_21  and  O_22
REMARK    8  A    between atoms: C_23  and  C_24
REMARK    9  A    between atoms: C_25  and  O_26
REMARK   10  A    between atoms: O_26  and  C_27
REMARK                            x       y       z     vdW  Elec       q    Type
REMARK                         _______ _______ _______ _____ _____    ______ ____
ROOT
ATOM      1  C   LIG A   1      -5.097   1.811 130.973  0.00  0.00    +0.051 C 
ATOM      2  C   LIG A   1      -5.018   3.244 130.531  0.00  0.00    +0.034 A 
ATOM      3  C   LIG A   1      -4.201   3.571 129.428  0.00  0.00    +0.142 A 
ATOM      4  C   LIG A   1      -3.953   4.901 129.081  0.00  0.00    +0.101 A 
ATOM      5  C   LIG A   1      -2.949   5.174 128.030  0.00  0.00    +0.174 C 
ATOM      6  C   LIG A   1      -2.356   3.990 127.323  0.00  0.00    +0.129 C 
ATOM      7  C   LIG A   1      -3.385   2.864 127.325  0.00  0.00    +0.211 C 
ATOM      8  O   LIG A   1      -3.668   2.526 128.703  0.00  0.00    -0.483 OA
ATOM      9  O   LIG A   1      -2.584   6.327 127.809  0.00  0.00    -0.292 OA
ATOM     10  C   LIG A   1      -4.630   5.928 129.730  0.00  0.00    +0.137 A 
ATOM     11  C   LIG A   1      -5.551   5.633 130.745  0.00  0.00    +0.034 A 
ATOM     12  C   LIG A   1      -6.393   6.725 131.359  0.00  0.00    +0.051 C 
ATOM     13  C   LIG A   1      -5.725   4.290 131.168  0.00  0.00    +0.133 A 
ENDROOT
BRANCH   7  14
ATOM     14  C   LIG A   1      -4.652   3.072 126.489  0.00  0.00    -0.003 A 
ATOM     15  C   LIG A   1      -5.902   2.608 126.913  0.00  0.00    +0.011 A 
ATOM     16  C   LIG A   1      -7.048   2.849 126.151  0.00  0.00    +0.050 A 
ATOM     17  C   LIG A   1      -6.981   3.554 124.945  0.00  0.00    +0.162 A 
ATOM     18  C   LIG A   1      -5.744   4.047 124.510  0.00  0.00    +0.162 A 
ATOM     19  C   LIG A   1      -4.600   3.813 125.291  0.00  0.00    +0.056 A 
BRANCH  17  20
ATOM     20  O   LIG A   1      -8.202   3.729 124.348  0.00  0.00    -0.491 OA
ATOM     21  C   LIG A   1      -8.660   2.678 123.507  0.00  0.00    +0.277 C 
ENDBRANCH  17  20
BRANCH  18  22
ATOM     22  O   LIG A   1      -5.712   4.836 123.389  0.00  0.00    -0.491 OA
ATOM     23  C   LIG A   1      -5.457   4.176 122.156  0.00  0.00    +0.277 C 
ENDBRANCH  18  22
ENDBRANCH   7  14
BRANCH  10  24
ATOM     24  O   LIG A   1      -4.424   7.246 129.400  0.00  0.00    -0.506 OA
ATOM     25  H   LIG A   1      -4.577   7.796 130.205  0.00  0.00    +0.292 HD
ENDBRANCH  10  24
BRANCH  13  26
ATOM     26  O   LIG A   1      -6.506   4.142 132.285  0.00  0.00    -0.494 OA
ATOM     27  C   LIG A   1      -7.830   3.659 132.114  0.00  0.00    +0.277 C 
ENDBRANCH  13  26
TORSDOF 5
ENDMDL
MODEL 7
REMARK VINA RESULT:      -6.6      6.655      9.160
REMARK  Name = NuBBE_1999
REMARK  10 active torsions:
REMARK  status: ('A' for Active; 'I' for Inactive)
REMARK    1  A    between atoms: C_1  and  C_2
REMARK    2  A    between atoms: C_7  and  C_9
REMARK    3  A    between atoms: C_12  and  O_13
REMARK    4  A    between atoms: O_13  and  C_14
REMARK    5  A    between atoms: C_15  and  O_16
REMARK    6  A    between atoms: O_16  and  C_17
REMARK    7  A    between atoms: C_21  and  O_22
REMARK    8  A    between atoms: C_23  and  C_24
REMARK    9  A    between atoms: C_25  and  O_26
REMARK   10  A    between atoms: O_26  and  C_27
REMARK                            x       y       z     vdW  Elec       q    Type
REMARK                         _______ _______ _______ _____ _____    ______ ____
ROOT
ATOM      1  C   LIG A   1      -9.430   2.733 133.298  0.00  0.00    +0.051 C 
ATOM      2  C   LIG A   1      -9.051   2.880 131.853  0.00  0.00    +0.034 A 
ATOM      3  C   LIG A   1      -9.115   4.160 131.260  0.00  0.00    +0.142 A 
ATOM      4  C   LIG A   1      -8.944   4.329 129.885  0.00  0.00    +0.101 A 
ATOM      5  C   LIG A   1      -9.199   5.666 129.307  0.00  0.00    +0.174 C 
ATOM      6  C   LIG A   1      -9.506   6.780 130.266  0.00  0.00    +0.129 C 
ATOM      7  C   LIG A   1      -8.810   6.480 131.590  0.00  0.00    +0.211 C 
ATOM      8  O   LIG A   1      -9.341   5.233 132.096  0.00  0.00    -0.483 OA
ATOM      9  O   LIG A   1      -9.218   5.819 128.088  0.00  0.00    -0.292 OA
ATOM     10  C   LIG A   1      -8.559   3.251 129.093  0.00  0.00    +0.137 A 
ATOM     11  C   LIG A   1      -8.359   1.990 129.670  0.00  0.00    +0.034 A 
ATOM     12  C   LIG A   1      -7.808   0.849 128.849  0.00  0.00    +0.051 C 
ATOM     13  C   LIG A   1      -8.633   1.795 131.047  0.00  0.00    +0.133 A 
ENDROOT
BRANCH   7  14
ATOM     14  C   LIG A   1      -7.279   6.526 131.602  0.00  0.00    -0.003 A 
ATOM     15  C   LIG A   1      -6.554   7.248 130.648  0.00  0.00    +0.011 A 
ATOM     16  C   LIG A   1      -5.159   7.307 130.708  0.00  0.00    +0.050 A 
ATOM     17  C   LIG A   1      -4.449   6.649 131.716  0.00  0.00    +0.162 A 
ATOM     18  C   LIG A   1      -5.153   5.937 132.695  0.00  0.00    +0.162 A 
ATOM     19  C   LIG A   1      -6.556   5.895 132.635  0.00  0.00    +0.056 A 
BRANCH  17  20
ATOM     20  O   LIG A   1      -3.094   6.843 131.643  0.00  0.00    -0.491 OA
ATOM     21  C   LIG A   1      -2.590   8.051 132.199  0.00  0.00    +0.277 C 
ENDBRANCH  17  20
BRANCH  18  22
ATOM     22  O   LIG A   1      -4.452   5.395 133.742  0.00  0.00    -0.491 OA
ATOM     23  C   LIG A   1      -4.391   6.170 134.932  0.00  0.00    +0.277 C 
ENDBRANCH  18  22
ENDBRANCH   7  14
BRANCH  10  24
ATOM     24  O   LIG A   1      -8.364   3.388 127.739  0.00  0.00    -0.506 OA
ATOM     25  H   LIG A   1      -7.789   4.175 127.586  0.00  0.00    +0.292 HD
ENDBRANCH  10  24
BRANCH  13  26
ATOM     26  O   LIG A   1      -8.581   0.488 131.459  0.00  0.00    -0.494 OA
ATOM     27  C   LIG A   1      -7.457   0.072 132.220  0.00  0.00    +0.277 C 
ENDBRANCH  13  26
TORSDOF 5
ENDMDL
MODEL 8
REMARK VINA RESULT:      -6.3      4.557      7.310
REMARK  Name = NuBBE_1999
REMARK  10 active torsions:
REMARK  status: ('A' for Active; 'I' for Inactive)
REMARK    1  A    between atoms: C_1  and  C_2
REMARK    2  A    between atoms: C_7  and  C_9
REMARK    3  A    between atoms: C_12  and  O_13
REMARK    4  A    between atoms: O_13  and  C_14
REMARK    5  A    between atoms: C_15  and  O_16
REMARK    6  A    between atoms: O_16  and  C_17
REMARK    7  A    between atoms: C_21  and  O_22
REMARK    8  A    between atoms: C_23  and  C_24
REMARK    9  A    between atoms: C_25  and  O_26
REMARK   10  A    between atoms: O_26  and  C_27
REMARK                            x       y       z     vdW  Elec       q    Type
REMARK                         _______ _______ _______ _____ _____    ______ ____
ROOT
ATOM      1  C   LIG A   1      -4.887   1.424 130.602  0.00  0.00    +0.051 C 
ATOM      2  C   LIG A   1      -4.926   2.891 130.286  0.00  0.00    +0.034 A 
ATOM      3  C   LIG A   1      -4.194   3.367 129.177  0.00  0.00    +0.142 A 
ATOM      4  C   LIG A   1      -4.053   4.736 128.938  0.00  0.00    +0.101 A 
ATOM      5  C   LIG A   1      -3.130   5.167 127.866  0.00  0.00    +0.174 C 
ATOM      6  C   LIG A   1      -2.502   4.091 127.028  0.00  0.00    +0.129 C 
ATOM      7  C   LIG A   1      -3.455   2.901 126.981  0.00  0.00    +0.211 C 
ATOM      8  O   LIG A   1      -3.638   2.427 128.335  0.00  0.00    -0.483 OA
ATOM      9  O   LIG A   1      -2.853   6.357 127.730  0.00  0.00    -0.292 OA
ATOM     10  C   LIG A   1      -4.757   5.655 129.710  0.00  0.00    +0.137 A 
ATOM     11  C   LIG A   1      -5.598   5.211 130.740  0.00  0.00    +0.034 A 
ATOM     12  C   LIG A   1      -6.472   6.186 131.491  0.00  0.00    +0.051 C 
ATOM     13  C   LIG A   1      -5.661   3.828 131.049  0.00  0.00    +0.133 A 
ENDROOT
BRANCH   7  14
ATOM     14  C   LIG A   1      -4.778   3.092 126.232  0.00  0.00    -0.003 A 
ATOM     15  C   LIG A   1      -4.938   4.080 125.254  0.00  0.00    +0.011 A 
ATOM     16  C   LIG A   1      -6.142   4.205 124.557  0.00  0.00    +0.050 A 
ATOM     17  C   LIG A   1      -7.220   3.353 124.816  0.00  0.00    +0.162 A 
ATOM     18  C   LIG A   1      -7.078   2.343 125.776  0.00  0.00    +0.162 A 
ATOM     19  C   LIG A   1      -5.858   2.216 126.461  0.00  0.00    +0.056 A 
BRANCH  17  20
ATOM     20  O   LIG A   1      -8.308   3.594 124.016  0.00  0.00    -0.491 OA
ATOM     21  C   LIG A   1      -8.325   2.950 122.749  0.00  0.00    +0.277 C 
ENDBRANCH  17  20
BRANCH  18  22
ATOM     22  O   LIG A   1      -8.101   1.443 125.935  0.00  0.00    -0.491 OA
ATOM     23  C   LIG A   1      -8.631   1.312 127.247  0.00  0.00    +0.277 C 
ENDBRANCH  18  22
ENDBRANCH   7  14
BRANCH  10  24
ATOM     24  O   LIG A   1      -4.655   7.007 129.489  0.00  0.00    -0.506 OA
ATOM     25  H   LIG A   1      -5.259   7.471 130.116  0.00  0.00    +0.292 HD
ENDBRANCH  10  24
BRANCH  13  26
ATOM     26  O   LIG A   1      -6.366   3.531 132.187  0.00  0.00    -0.494 OA
ATOM     27  C   LIG A   1      -7.661   2.966 132.042  0.00  0.00    +0.277 C 
ENDBRANCH  13  26
TORSDOF 5
ENDMDL
MODEL 9
REMARK VINA RESULT:      -6.3      3.115      6.519
REMARK  Name = NuBBE_1999
REMARK  10 active torsions:
REMARK  status: ('A' for Active; 'I' for Inactive)
REMARK    1  A    between atoms: C_1  and  C_2
REMARK    2  A    between atoms: C_7  and  C_9
REMARK    3  A    between atoms: C_12  and  O_13
REMARK    4  A    between atoms: O_13  and  C_14
REMARK    5  A    between atoms: C_15  and  O_16
REMARK    6  A    between atoms: O_16  and  C_17
REMARK    7  A    between atoms: C_21  and  O_22
REMARK    8  A    between atoms: C_23  and  C_24
REMARK    9  A    between atoms: C_25  and  O_26
REMARK   10  A    between atoms: O_26  and  C_27
REMARK                            x       y       z     vdW  Elec       q    Type
REMARK                         _______ _______ _______ _____ _____    ______ ____
ROOT
ATOM      1  C   LIG A   1      -3.328   2.925 127.013  0.00  0.00    +0.051 C 
ATOM      2  C   LIG A   1      -4.721   3.338 127.390  0.00  0.00    +0.034 A 
ATOM      3  C   LIG A   1      -5.694   3.455 126.375  0.00  0.00    +0.142 A 
ATOM      4  C   LIG A   1      -6.953   3.999 126.639  0.00  0.00    +0.101 A 
ATOM      5  C   LIG A   1      -7.858   4.256 125.497  0.00  0.00    +0.174 C 
ATOM      6  C   LIG A   1      -7.401   3.795 124.143  0.00  0.00    +0.129 C 
ATOM      7  C   LIG A   1      -6.494   2.582 124.329  0.00  0.00    +0.211 C 
ATOM      8  O   LIG A   1      -5.355   2.998 125.118  0.00  0.00    -0.483 OA
ATOM      9  O   LIG A   1      -8.903   4.880 125.665  0.00  0.00    -0.292 OA
ATOM     10  C   LIG A   1      -7.321   4.302 127.946  0.00  0.00    +0.137 A 
ATOM     11  C   LIG A   1      -6.424   4.077 129.000  0.00  0.00    +0.034 A 
ATOM     12  C   LIG A   1      -6.860   4.268 130.432  0.00  0.00    +0.051 C 
ATOM     13  C   LIG A   1      -5.111   3.622 128.720  0.00  0.00    +0.133 A 
ENDROOT
BRANCH   7  14
ATOM     14  C   LIG A   1      -7.143   1.296 124.849  0.00  0.00    -0.003 A 
ATOM     15  C   LIG A   1      -8.531   1.124 124.868  0.00  0.00    +0.011 A 
ATOM     16  C   LIG A   1      -9.095  -0.077 125.308  0.00  0.00    +0.050 A 
ATOM     17  C   LIG A   1      -8.294  -1.136 125.744  0.00  0.00    +0.162 A 
ATOM     18  C   LIG A   1      -6.900  -0.996 125.715  0.00  0.00    +0.162 A 
ATOM     19  C   LIG A   1      -6.342   0.209 125.257  0.00  0.00    +0.056 A 
BRANCH  17  20
ATOM     20  O   LIG A   1      -9.010  -2.248 126.105  0.00  0.00    -0.491 OA
ATOM     21  C   LIG A   1      -9.404  -3.124 125.057  0.00  0.00    +0.277 C 
ENDBRANCH  17  20
BRANCH  18  22
ATOM     22  O   LIG A   1      -6.127  -2.082 126.034  0.00  0.00    -0.491 OA
ATOM     23  C   LIG A   1      -5.647  -2.860 124.945  0.00  0.00    +0.277 C 
ENDBRANCH  18  22
ENDBRANCH   7  14
BRANCH  10  24
ATOM     24  O   LIG A   1      -8.558   4.822 128.242  0.00  0.00    -0.506 OA
ATOM     25  H   LIG A   1      -8.437   5.576 128.867  0.00  0.00    +0.292 HD
ENDBRANCH  10  24
BRANCH  13  26
ATOM     26  O   LIG A   1      -4.269   3.615 129.802  0.00  0.00    -0.494 OA
ATOM     27  C   LIG A   1      -3.413   4.732 129.990  0.00  0.00    +0.277 C 
ENDBRANCH  13  26
TORSDOF 5
ENDMDL
