MODEL 1
REMARK VINA RESULT:      -9.0      0.000      0.000
REMARK  Name = NuBBE_1413
REMARK  6 active torsions:
REMARK  status: ('A' for Active; 'I' for Inactive)
REMARK    1  A    between atoms: C_1  and  C_2
REMARK    2  A    between atoms: C_2  and  C_3
REMARK    3  A    between atoms: C_25  and  O_26
REMARK    4  A    between atoms: O_26  and  C_27
REMARK    5  A    between atoms: C_28  and  O_29
REMARK    6  A    between atoms: O_29  and  C_30
REMARK                            x       y       z     vdW  Elec       q    Type
REMARK                         _______ _______ _______ _____ _____    ______ ____
ROOT
ATOM      1  C   LIG A   1     -13.259   7.116 127.591  0.00  0.00    +0.060 C 
ATOM      2  C   LIG A   1     -12.656   8.175 128.522  0.00  0.00    +0.123 C 
ATOM      3  C   LIG A   1     -13.519   9.441 128.489  0.00  0.00    +0.060 C 
ATOM      4  C   LIG A   1     -11.257   8.513 128.065  0.00  0.00    +0.020 C 
ATOM      5  C   LIG A   1     -10.162   8.167 128.747  0.00  0.00    +0.015 C 
ATOM      6  C   LIG A   1     -10.327   7.419 129.990  0.00  0.00    +0.059 A 
ATOM      7  C   LIG A   1      -9.226   6.912 130.707  0.00  0.00    +0.142 A 
ATOM      8  C   LIG A   1      -9.434   6.238 131.911  0.00  0.00    +0.061 A 
ATOM      9  C   LIG A   1     -10.730   6.040 132.399  0.00  0.00    +0.019 A 
ATOM     10  C   LIG A   1     -11.821   6.528 131.683  0.00  0.00    +0.047 A 
ATOM     11  C   LIG A   1     -11.621   7.210 130.483  0.00  0.00    +0.132 A 
ATOM     12  O   LIG A   1     -12.754   7.663 129.867  0.00  0.00    -0.481 OA
ATOM     13  O   LIG A   1      -7.979   7.130 130.183  0.00  0.00    -0.483 OA
ATOM     14  C   LIG A   1      -6.941   6.273 130.655  0.00  0.00    +0.226 C 
ATOM     15  C   LIG A   1      -6.969   4.897 129.989  0.00  0.00    +0.274 C 
ATOM     16  O   LIG A   1      -5.810   4.118 130.293  0.00  0.00    -0.488 OA
ATOM     17  C   LIG A   1      -5.370   4.187 131.588  0.00  0.00    +0.128 A 
ATOM     18  C   LIG A   1      -5.838   5.106 132.527  0.00  0.00    +0.012 A 
ATOM     19  C   LIG A   1      -6.899   6.120 132.169  0.00  0.00    +0.138 C 
ATOM     20  C   LIG A   1      -8.275   5.755 132.691  0.00  0.00    +0.178 C 
ATOM     21  O   LIG A   1      -8.469   5.157 133.746  0.00  0.00    -0.291 OA
ATOM     22  C   LIG A   1      -5.292   5.081 133.818  0.00  0.00    +0.057 A 
ATOM     23  C   LIG A   1      -4.262   4.191 134.161  0.00  0.00    +0.162 A 
ATOM     24  C   LIG A   1      -3.787   3.283 133.204  0.00  0.00    +0.165 A 
ATOM     25  C   LIG A   1      -4.359   3.284 131.924  0.00  0.00    +0.095 A 
ENDROOT
BRANCH  23  26
ATOM     26  O   LIG A   1      -3.851   4.324 135.462  0.00  0.00    -0.491 OA
ATOM     27  C   LIG A   1      -4.628   3.667 136.455  0.00  0.00    +0.277 C 
ENDBRANCH  23  26
BRANCH  24  28
ATOM     28  O   LIG A   1      -2.829   2.376 133.575  0.00  0.00    -0.491 OA
ATOM     29  C   LIG A   1      -3.263   1.026 133.711  0.00  0.00    +0.277 C 
ENDBRANCH  24  28
TORSDOF 2
ENDMDL
MODEL 2
REMARK VINA RESULT:      -8.2      5.843      9.475
REMARK  Name = NuBBE_1413
REMARK  6 active torsions:
REMARK  status: ('A' for Active; 'I' for Inactive)
REMARK    1  A    between atoms: C_1  and  C_2
REMARK    2  A    between atoms: C_2  and  C_3
REMARK    3  A    between atoms: C_25  and  O_26
REMARK    4  A    between atoms: O_26  and  C_27
REMARK    5  A    between atoms: C_28  and  O_29
REMARK    6  A    between atoms: O_29  and  C_30
REMARK                            x       y       z     vdW  Elec       q    Type
REMARK                         _______ _______ _______ _____ _____    ______ ____
ROOT
ATOM      1  C   LIG A   1      -3.340   7.371 131.299  0.00  0.00    +0.060 C 
ATOM      2  C   LIG A   1      -2.337   6.321 130.803  0.00  0.00    +0.123 C 
ATOM      3  C   LIG A   1      -0.987   6.529 131.498  0.00  0.00    +0.060 C 
ATOM      4  C   LIG A   1      -2.156   6.460 129.311  0.00  0.00    +0.020 C 
ATOM      5  C   LIG A   1      -2.607   5.560 128.434  0.00  0.00    +0.015 C 
ATOM      6  C   LIG A   1      -3.315   4.389 128.944  0.00  0.00    +0.059 A 
ATOM      7  C   LIG A   1      -3.926   3.455 128.085  0.00  0.00    +0.142 A 
ATOM      8  C   LIG A   1      -4.557   2.331 128.620  0.00  0.00    +0.061 A 
ATOM      9  C   LIG A   1      -4.610   2.138 130.005  0.00  0.00    +0.019 A 
ATOM     10  C   LIG A   1      -4.019   3.069 130.856  0.00  0.00    +0.047 A 
ATOM     11  C   LIG A   1      -3.379   4.191 130.328  0.00  0.00    +0.132 A 
ATOM     12  O   LIG A   1      -2.817   5.034 131.246  0.00  0.00    -0.481 OA
ATOM     13  O   LIG A   1      -3.849   3.693 126.738  0.00  0.00    -0.483 OA
ATOM     14  C   LIG A   1      -4.805   3.014 125.925  0.00  0.00    +0.226 C 
ATOM     15  C   LIG A   1      -6.180   3.683 125.955  0.00  0.00    +0.274 C 
ATOM     16  O   LIG A   1      -7.074   3.141 124.980  0.00  0.00    -0.488 OA
ATOM     17  C   LIG A   1      -7.033   1.781 124.827  0.00  0.00    +0.128 A 
ATOM     18  C   LIG A   1      -6.056   0.957 125.387  0.00  0.00    +0.012 A 
ATOM     19  C   LIG A   1      -4.940   1.528 126.230  0.00  0.00    +0.138 C 
ATOM     20  C   LIG A   1      -5.150   1.322 127.718  0.00  0.00    +0.178 C 
ATOM     21  O   LIG A   1      -5.708   0.340 128.198  0.00  0.00    -0.291 OA
ATOM     22  C   LIG A   1      -6.121  -0.421 125.140  0.00  0.00    +0.057 A 
ATOM     23  C   LIG A   1      -7.110  -0.971 124.310  0.00  0.00    +0.162 A 
ATOM     24  C   LIG A   1      -8.077  -0.132 123.738  0.00  0.00    +0.165 A 
ATOM     25  C   LIG A   1      -8.034   1.241 124.015  0.00  0.00    +0.095 A 
ENDROOT
BRANCH  23  26
ATOM     26  O   LIG A   1      -7.002  -2.332 124.180  0.00  0.00    -0.491 OA
ATOM     27  C   LIG A   1      -5.690  -2.870 124.095  0.00  0.00    +0.277 C 
ENDBRANCH  23  26
BRANCH  24  28
ATOM     28  O   LIG A   1      -9.075  -0.694 122.986  0.00  0.00    -0.491 OA
ATOM     29  C   LIG A   1     -10.044   0.206 122.457  0.00  0.00    +0.277 C 
ENDBRANCH  24  28
TORSDOF 2
ENDMDL
MODEL 3
REMARK VINA RESULT:      -8.0      5.248      9.308
REMARK  Name = NuBBE_1413
REMARK  6 active torsions:
REMARK  status: ('A' for Active; 'I' for Inactive)
REMARK    1  A    between atoms: C_1  and  C_2
REMARK    2  A    between atoms: C_2  and  C_3
REMARK    3  A    between atoms: C_25  and  O_26
REMARK    4  A    between atoms: O_26  and  C_27
REMARK    5  A    between atoms: C_28  and  O_29
REMARK    6  A    between atoms: O_29  and  C_30
REMARK                            x       y       z     vdW  Elec       q    Type
REMARK                         _______ _______ _______ _____ _____    ______ ____
ROOT
ATOM      1  C   LIG A   1      -2.286   4.976 132.412  0.00  0.00    +0.060 C 
ATOM      2  C   LIG A   1      -2.847   6.101 131.533  0.00  0.00    +0.123 C 
ATOM      3  C   LIG A   1      -2.246   7.442 131.966  0.00  0.00    +0.060 C 
ATOM      4  C   LIG A   1      -4.349   6.157 131.681  0.00  0.00    +0.020 C 
ATOM      5  C   LIG A   1      -5.192   5.802 130.708  0.00  0.00    +0.015 C 
ATOM      6  C   LIG A   1      -4.634   5.329 129.444  0.00  0.00    +0.059 A 
ATOM      7  C   LIG A   1      -5.447   4.823 128.412  0.00  0.00    +0.142 A 
ATOM      8  C   LIG A   1      -4.869   4.420 127.208  0.00  0.00    +0.061 A 
ATOM      9  C   LIG A   1      -3.484   4.492 127.026  0.00  0.00    +0.019 A 
ATOM     10  C   LIG A   1      -2.676   4.979 128.052  0.00  0.00    +0.047 A 
ATOM     11  C   LIG A   1      -3.248   5.391 129.256  0.00  0.00    +0.132 A 
ATOM     12  O   LIG A   1      -2.371   5.868 130.191  0.00  0.00    -0.481 OA
ATOM     13  O   LIG A   1      -6.797   4.770 128.643  0.00  0.00    -0.483 OA
ATOM     14  C   LIG A   1      -7.542   3.886 127.808  0.00  0.00    +0.226 C 
ATOM     15  C   LIG A   1      -7.421   2.425 128.245  0.00  0.00    +0.274 C 
ATOM     16  O   LIG A   1      -8.332   1.569 127.553  0.00  0.00    -0.488 OA
ATOM     17  C   LIG A   1      -8.486   1.820 126.216  0.00  0.00    +0.128 A 
ATOM     18  C   LIG A   1      -7.992   2.954 125.569  0.00  0.00    +0.012 A 
ATOM     19  C   LIG A   1      -7.227   4.015 126.324  0.00  0.00    +0.138 C 
ATOM     20  C   LIG A   1      -5.728   3.941 126.105  0.00  0.00    +0.178 C 
ATOM     21  O   LIG A   1      -5.209   3.583 125.052  0.00  0.00    -0.291 OA
ATOM     22  C   LIG A   1      -8.232   3.098 124.195  0.00  0.00    +0.057 A 
ATOM     23  C   LIG A   1      -8.992   2.159 123.481  0.00  0.00    +0.162 A 
ATOM     24  C   LIG A   1      -9.498   1.032 124.145  0.00  0.00    +0.165 A 
ATOM     25  C   LIG A   1      -9.227   0.869 125.510  0.00  0.00    +0.095 A 
ENDROOT
BRANCH  23  26
ATOM     26  O   LIG A   1      -9.127   2.477 122.155  0.00  0.00    -0.491 OA
ATOM     27  C   LIG A   1      -8.248   3.466 121.636  0.00  0.00    +0.277 C 
ENDBRANCH  23  26
BRANCH  24  28
ATOM     28  O   LIG A   1     -10.180   0.091 123.419  0.00  0.00    -0.491 OA
ATOM     29  C   LIG A   1      -9.396  -0.959 122.861  0.00  0.00    +0.277 C 
ENDBRANCH  24  28
TORSDOF 2
ENDMDL
MODEL 4
REMARK VINA RESULT:      -7.7      8.734     11.938
REMARK  Name = NuBBE_1413
REMARK  6 active torsions:
REMARK  status: ('A' for Active; 'I' for Inactive)
REMARK    1  A    between atoms: C_1  and  C_2
REMARK    2  A    between atoms: C_2  and  C_3
REMARK    3  A    between atoms: C_25  and  O_26
REMARK    4  A    between atoms: O_26  and  C_27
REMARK    5  A    between atoms: C_28  and  O_29
REMARK    6  A    between atoms: O_29  and  C_30
REMARK                            x       y       z     vdW  Elec       q    Type
REMARK                         _______ _______ _______ _____ _____    ______ ____
ROOT
ATOM      1  C   LIG A   1      -6.268  -5.938 135.060  0.00  0.00    +0.060 C 
ATOM      2  C   LIG A   1      -5.981  -4.439 134.906  0.00  0.00    +0.123 C 
ATOM      3  C   LIG A   1      -5.443  -3.879 136.228  0.00  0.00    +0.060 C 
ATOM      4  C   LIG A   1      -7.254  -3.716 134.539  0.00  0.00    +0.020 C 
ATOM      5  C   LIG A   1      -7.468  -3.179 133.335  0.00  0.00    +0.015 C 
ATOM      6  C   LIG A   1      -6.422  -3.306 132.323  0.00  0.00    +0.059 A 
ATOM      7  C   LIG A   1      -6.612  -2.876 130.996  0.00  0.00    +0.142 A 
ATOM      8  C   LIG A   1      -5.568  -2.983 130.076  0.00  0.00    +0.061 A 
ATOM      9  C   LIG A   1      -4.342  -3.537 130.456  0.00  0.00    +0.019 A 
ATOM     10  C   LIG A   1      -4.157  -3.977 131.765  0.00  0.00    +0.047 A 
ATOM     11  C   LIG A   1      -5.193  -3.865 132.693  0.00  0.00    +0.132 A 
ATOM     12  O   LIG A   1      -4.905  -4.310 133.953  0.00  0.00    -0.481 OA
ATOM     13  O   LIG A   1      -7.834  -2.345 130.675  0.00  0.00    -0.483 OA
ATOM     14  C   LIG A   1      -8.163  -2.320 129.287  0.00  0.00    +0.226 C 
ATOM     15  C   LIG A   1      -8.631  -3.681 128.771  0.00  0.00    +0.274 C 
ATOM     16  O   LIG A   1      -9.166  -3.610 127.448  0.00  0.00    -0.488 OA
ATOM     17  C   LIG A   1      -8.490  -2.799 126.576  0.00  0.00    +0.128 A 
ATOM     18  C   LIG A   1      -7.484  -1.908 126.952  0.00  0.00    +0.012 A 
ATOM     19  C   LIG A   1      -7.056  -1.774 128.394  0.00  0.00    +0.138 C 
ATOM     20  C   LIG A   1      -5.750  -2.481 128.698  0.00  0.00    +0.178 C 
ATOM     21  O   LIG A   1      -4.828  -2.586 127.895  0.00  0.00    -0.291 OA
ATOM     22  C   LIG A   1      -6.881  -1.122 125.960  0.00  0.00    +0.057 A 
ATOM     23  C   LIG A   1      -7.301  -1.181 124.622  0.00  0.00    +0.162 A 
ATOM     24  C   LIG A   1      -8.325  -2.068 124.257  0.00  0.00    +0.165 A 
ATOM     25  C   LIG A   1      -8.902  -2.880 125.243  0.00  0.00    +0.095 A 
ENDROOT
BRANCH  23  26
ATOM     26  O   LIG A   1      -6.602  -0.331 123.804  0.00  0.00    -0.491 OA
ATOM     27  C   LIG A   1      -7.032   1.023 123.761  0.00  0.00    +0.277 C 
ENDBRANCH  23  26
BRANCH  24  28
ATOM     28  O   LIG A   1      -8.676  -2.162 122.936  0.00  0.00    -0.491 OA
ATOM     29  C   LIG A   1      -9.654  -1.233 122.480  0.00  0.00    +0.277 C 
ENDBRANCH  24  28
TORSDOF 2
ENDMDL
MODEL 5
REMARK VINA RESULT:      -7.6      5.874      8.021
REMARK  Name = NuBBE_1413
REMARK  6 active torsions:
REMARK  status: ('A' for Active; 'I' for Inactive)
REMARK    1  A    between atoms: C_1  and  C_2
REMARK    2  A    between atoms: C_2  and  C_3
REMARK    3  A    between atoms: C_25  and  O_26
REMARK    4  A    between atoms: O_26  and  C_27
REMARK    5  A    between atoms: C_28  and  O_29
REMARK    6  A    between atoms: O_29  and  C_30
REMARK                            x       y       z     vdW  Elec       q    Type
REMARK                         _______ _______ _______ _____ _____    ______ ____
ROOT
ATOM      1  C   LIG A   1      -7.163  -3.671 124.216  0.00  0.00    +0.060 C 
ATOM      2  C   LIG A   1      -8.099  -2.466 124.063  0.00  0.00    +0.123 C 
ATOM      3  C   LIG A   1      -9.376  -2.895 123.332  0.00  0.00    +0.060 C 
ATOM      4  C   LIG A   1      -7.407  -1.387 123.265  0.00  0.00    +0.020 C 
ATOM      5  C   LIG A   1      -7.000  -0.232 123.798  0.00  0.00    +0.015 C 
ATOM      6  C   LIG A   1      -7.229  -0.007 125.223  0.00  0.00    +0.059 A 
ATOM      7  C   LIG A   1      -6.725   1.127 125.888  0.00  0.00    +0.142 A 
ATOM      8  C   LIG A   1      -7.004   1.316 127.243  0.00  0.00    +0.061 A 
ATOM      9  C   LIG A   1      -7.759   0.375 127.950  0.00  0.00    +0.019 A 
ATOM     10  C   LIG A   1      -8.245  -0.755 127.296  0.00  0.00    +0.047 A 
ATOM     11  C   LIG A   1      -7.977  -0.948 125.940  0.00  0.00    +0.132 A 
ATOM     12  O   LIG A   1      -8.512  -2.079 125.390  0.00  0.00    -0.481 OA
ATOM     13  O   LIG A   1      -5.989   2.015 125.150  0.00  0.00    -0.483 OA
ATOM     14  C   LIG A   1      -5.144   2.897 125.888  0.00  0.00    +0.226 C 
ATOM     15  C   LIG A   1      -3.850   2.221 126.346  0.00  0.00    +0.274 C 
ATOM     16  O   LIG A   1      -2.911   3.150 126.891  0.00  0.00    -0.488 OA
ATOM     17  C   LIG A   1      -3.437   4.126 127.695  0.00  0.00    +0.128 A 
ATOM     18  C   LIG A   1      -4.802   4.382 127.828  0.00  0.00    +0.012 A 
ATOM     19  C   LIG A   1      -5.828   3.573 127.069  0.00  0.00    +0.138 C 
ATOM     20  C   LIG A   1      -6.524   2.534 127.928  0.00  0.00    +0.178 C 
ATOM     21  O   LIG A   1      -6.769   2.689 129.121  0.00  0.00    -0.291 OA
ATOM     22  C   LIG A   1      -5.209   5.422 128.675  0.00  0.00    +0.057 A 
ATOM     23  C   LIG A   1      -4.276   6.230 129.344  0.00  0.00    +0.162 A 
ATOM     24  C   LIG A   1      -2.906   5.975 129.191  0.00  0.00    +0.165 A 
ATOM     25  C   LIG A   1      -2.500   4.911 128.372  0.00  0.00    +0.095 A 
ENDROOT
BRANCH  23  26
ATOM     26  O   LIG A   1      -4.864   7.199 130.115  0.00  0.00    -0.491 OA
ATOM     27  C   LIG A   1      -5.663   6.760 131.205  0.00  0.00    +0.277 C 
ENDBRANCH  23  26
BRANCH  24  28
ATOM     28  O   LIG A   1      -2.011   6.729 129.904  0.00  0.00    -0.491 OA
ATOM     29  C   LIG A   1      -1.751   6.299 131.236  0.00  0.00    +0.277 C 
ENDBRANCH  24  28
TORSDOF 2
ENDMDL
MODEL 6
REMARK VINA RESULT:      -7.5      5.674      7.890
REMARK  Name = NuBBE_1413
REMARK  6 active torsions:
REMARK  status: ('A' for Active; 'I' for Inactive)
REMARK    1  A    between atoms: C_1  and  C_2
REMARK    2  A    between atoms: C_2  and  C_3
REMARK    3  A    between atoms: C_25  and  O_26
REMARK    4  A    between atoms: O_26  and  C_27
REMARK    5  A    between atoms: C_28  and  O_29
REMARK    6  A    between atoms: O_29  and  C_30
REMARK                            x       y       z     vdW  Elec       q    Type
REMARK                         _______ _______ _______ _____ _____    ______ ____
ROOT
ATOM      1  C   LIG A   1      -9.276  -2.909 125.411  0.00  0.00    +0.060 C 
ATOM      2  C   LIG A   1      -8.582  -2.023 124.368  0.00  0.00    +0.123 C 
ATOM      3  C   LIG A   1      -8.957  -2.495 122.959  0.00  0.00    +0.060 C 
ATOM      4  C   LIG A   1      -7.086  -2.115 124.543  0.00  0.00    +0.020 C 
ATOM      5  C   LIG A   1      -6.341  -1.107 125.004  0.00  0.00    +0.015 C 
ATOM      6  C   LIG A   1      -7.009   0.141 125.364  0.00  0.00    +0.059 A 
ATOM      7  C   LIG A   1      -6.319   1.209 125.970  0.00  0.00    +0.142 A 
ATOM      8  C   LIG A   1      -6.994   2.395 126.259  0.00  0.00    +0.061 A 
ATOM      9  C   LIG A   1      -8.358   2.524 125.975  0.00  0.00    +0.019 A 
ATOM     10  C   LIG A   1      -9.045   1.462 125.390  0.00  0.00    +0.047 A 
ATOM     11  C   LIG A   1      -8.375   0.275 125.090  0.00  0.00    +0.132 A 
ATOM     12  O   LIG A   1      -9.136  -0.697 124.503  0.00  0.00    -0.481 OA
ATOM     13  O   LIG A   1      -4.986   1.030 126.230  0.00  0.00    -0.483 OA
ATOM     14  C   LIG A   1      -4.413   1.903 127.202  0.00  0.00    +0.226 C 
ATOM     15  C   LIG A   1      -4.740   1.479 128.635  0.00  0.00    +0.274 C 
ATOM     16  O   LIG A   1      -3.994   2.215 129.607  0.00  0.00    -0.488 OA
ATOM     17  C   LIG A   1      -3.852   3.554 129.358  0.00  0.00    +0.128 A 
ATOM     18  C   LIG A   1      -4.190   4.169 128.152  0.00  0.00    +0.012 A 
ATOM     19  C   LIG A   1      -4.758   3.372 127.000  0.00  0.00    +0.138 C 
ATOM     20  C   LIG A   1      -6.257   3.536 126.843  0.00  0.00    +0.178 C 
ATOM     21  O   LIG A   1      -6.862   4.573 127.099  0.00  0.00    -0.291 OA
ATOM     22  C   LIG A   1      -3.980   5.549 128.021  0.00  0.00    +0.057 A 
ATOM     23  C   LIG A   1      -3.398   6.302 129.052  0.00  0.00    +0.162 A 
ATOM     24  C   LIG A   1      -3.045   5.672 130.254  0.00  0.00    +0.165 A 
ATOM     25  C   LIG A   1      -3.289   4.299 130.398  0.00  0.00    +0.095 A 
ENDROOT
BRANCH  23  26
ATOM     26  O   LIG A   1      -3.262   7.629 128.734  0.00  0.00    -0.491 OA
ATOM     27  C   LIG A   1      -4.016   8.556 129.503  0.00  0.00    +0.277 C 
ENDBRANCH  23  26
BRANCH  24  28
ATOM     28  O   LIG A   1      -2.540   6.434 131.275  0.00  0.00    -0.491 OA
ATOM     29  C   LIG A   1      -1.121   6.481 131.378  0.00  0.00    +0.277 C 
ENDBRANCH  24  28
TORSDOF 2
ENDMDL
MODEL 7
REMARK VINA RESULT:      -7.5      8.455      9.089
REMARK  Name = NuBBE_1413
REMARK  6 active torsions:
REMARK  status: ('A' for Active; 'I' for Inactive)
REMARK    1  A    between atoms: C_1  and  C_2
REMARK    2  A    between atoms: C_2  and  C_3
REMARK    3  A    between atoms: C_25  and  O_26
REMARK    4  A    between atoms: O_26  and  C_27
REMARK    5  A    between atoms: C_28  and  O_29
REMARK    6  A    between atoms: O_29  and  C_30
REMARK                            x       y       z     vdW  Elec       q    Type
REMARK                         _______ _______ _______ _____ _____    ______ ____
ROOT
ATOM      1  C   LIG A   1      -7.948  -2.038 122.162  0.00  0.00    +0.060 C 
ATOM      2  C   LIG A   1      -8.689  -1.144 123.164  0.00  0.00    +0.123 C 
ATOM      3  C   LIG A   1      -9.775  -0.344 122.436  0.00  0.00    +0.060 C 
ATOM      4  C   LIG A   1      -7.714  -0.188 123.807  0.00  0.00    +0.020 C 
ATOM      5  C   LIG A   1      -7.342  -0.276 125.087  0.00  0.00    +0.015 C 
ATOM      6  C   LIG A   1      -7.901  -1.353 125.900  0.00  0.00    +0.059 A 
ATOM      7  C   LIG A   1      -7.472  -1.590 127.220  0.00  0.00    +0.142 A 
ATOM      8  C   LIG A   1      -8.066  -2.607 127.969  0.00  0.00    +0.061 A 
ATOM      9  C   LIG A   1      -9.065  -3.409 127.410  0.00  0.00    +0.019 A 
ATOM     10  C   LIG A   1      -9.479  -3.186 126.098  0.00  0.00    +0.047 A 
ATOM     11  C   LIG A   1      -8.897  -2.165 125.346  0.00  0.00    +0.132 A 
ATOM     12  O   LIG A   1      -9.385  -2.018 124.077  0.00  0.00    -0.481 OA
ATOM     13  O   LIG A   1      -6.488  -0.778 127.718  0.00  0.00    -0.483 OA
ATOM     14  C   LIG A   1      -5.774  -1.277 128.848  0.00  0.00    +0.226 C 
ATOM     15  C   LIG A   1      -4.713  -2.309 128.462  0.00  0.00    +0.274 C 
ATOM     16  O   LIG A   1      -3.855  -2.646 129.554  0.00  0.00    -0.488 OA
ATOM     17  C   LIG A   1      -4.468  -2.790 130.770  0.00  0.00    +0.128 A 
ATOM     18  C   LIG A   1      -5.789  -2.425 131.031  0.00  0.00    +0.012 A 
ATOM     19  C   LIG A   1      -6.664  -1.829 129.953  0.00  0.00    +0.138 C 
ATOM     20  C   LIG A   1      -7.656  -2.820 129.373  0.00  0.00    +0.178 C 
ATOM     21  O   LIG A   1      -8.179  -3.721 130.021  0.00  0.00    -0.291 OA
ATOM     22  C   LIG A   1      -6.292  -2.612 132.326  0.00  0.00    +0.057 A 
ATOM     23  C   LIG A   1      -5.484  -3.106 133.362  0.00  0.00    +0.162 A 
ATOM     24  C   LIG A   1      -4.152  -3.453 133.093  0.00  0.00    +0.165 A 
ATOM     25  C   LIG A   1      -3.660  -3.301 131.789  0.00  0.00    +0.095 A 
ENDROOT
BRANCH  23  26
ATOM     26  O   LIG A   1      -6.148  -3.206 134.557  0.00  0.00    -0.491 OA
ATOM     27  C   LIG A   1      -7.567  -3.148 134.513  0.00  0.00    +0.277 C 
ENDBRANCH  23  26
BRANCH  24  28
ATOM     28  O   LIG A   1      -3.397  -3.997 134.099  0.00  0.00    -0.491 OA
ATOM     29  C   LIG A   1      -2.332  -3.189 134.590  0.00  0.00    +0.277 C 
ENDBRANCH  24  28
TORSDOF 2
ENDMDL
MODEL 8
REMARK VINA RESULT:      -7.4      5.639      8.156
REMARK  Name = NuBBE_1413
REMARK  6 active torsions:
REMARK  status: ('A' for Active; 'I' for Inactive)
REMARK    1  A    between atoms: C_1  and  C_2
REMARK    2  A    between atoms: C_2  and  C_3
REMARK    3  A    between atoms: C_25  and  O_26
REMARK    4  A    between atoms: O_26  and  C_27
REMARK    5  A    between atoms: C_28  and  O_29
REMARK    6  A    between atoms: O_29  and  C_30
REMARK                            x       y       z     vdW  Elec       q    Type
REMARK                         _______ _______ _______ _____ _____    ______ ____
ROOT
ATOM      1  C   LIG A   1      -5.190  -3.036 123.635  0.00  0.00    +0.060 C 
ATOM      2  C   LIG A   1      -6.423  -2.491 124.367  0.00  0.00    +0.123 C 
ATOM      3  C   LIG A   1      -7.645  -3.352 124.028  0.00  0.00    +0.060 C 
ATOM      4  C   LIG A   1      -6.680  -1.068 123.934  0.00  0.00    +0.020 C 
ATOM      5  C   LIG A   1      -6.492  -0.016 124.735  0.00  0.00    +0.015 C 
ATOM      6  C   LIG A   1      -6.008  -0.255 126.092  0.00  0.00    +0.059 A 
ATOM      7  C   LIG A   1      -5.669   0.801 126.960  0.00  0.00    +0.142 A 
ATOM      8  C   LIG A   1      -5.248   0.521 128.261  0.00  0.00    +0.061 A 
ATOM      9  C   LIG A   1      -5.136  -0.801 128.702  0.00  0.00    +0.019 A 
ATOM     10  C   LIG A   1      -5.456  -1.848 127.839  0.00  0.00    +0.047 A 
ATOM     11  C   LIG A   1      -5.885  -1.576 126.539  0.00  0.00    +0.132 A 
ATOM     12  O   LIG A   1      -6.190  -2.671 125.780  0.00  0.00    -0.481 OA
ATOM     13  O   LIG A   1      -5.793   2.077 126.477  0.00  0.00    -0.483 OA
ATOM     14  C   LIG A   1      -5.062   3.086 127.173  0.00  0.00    +0.226 C 
ATOM     15  C   LIG A   1      -3.580   3.099 126.797  0.00  0.00    +0.274 C 
ATOM     16  O   LIG A   1      -2.893   4.237 127.320  0.00  0.00    -0.488 OA
ATOM     17  C   LIG A   1      -3.227   4.598 128.598  0.00  0.00    +0.128 A 
ATOM     18  C   LIG A   1      -4.311   4.074 129.303  0.00  0.00    +0.012 A 
ATOM     19  C   LIG A   1      -5.218   3.036 128.687  0.00  0.00    +0.138 C 
ATOM     20  C   LIG A   1      -4.947   1.631 129.189  0.00  0.00    +0.178 C 
ATOM     21  O   LIG A   1      -4.572   1.375 130.329  0.00  0.00    -0.291 OA
ATOM     22  C   LIG A   1      -4.552   4.542 130.603  0.00  0.00    +0.057 A 
ATOM     23  C   LIG A   1      -3.763   5.549 131.178  0.00  0.00    +0.162 A 
ATOM     24  C   LIG A   1      -2.687   6.082 130.454  0.00  0.00    +0.165 A 
ATOM     25  C   LIG A   1      -2.423   5.589 129.168  0.00  0.00    +0.095 A 
ENDROOT
BRANCH  23  26
ATOM     26  O   LIG A   1      -4.161   5.881 132.447  0.00  0.00    -0.491 OA
ATOM     27  C   LIG A   1      -5.559   6.005 132.674  0.00  0.00    +0.277 C 
ENDBRANCH  23  26
BRANCH  24  28
ATOM     28  O   LIG A   1      -1.886   7.017 131.056  0.00  0.00    -0.491 OA
ATOM     29  C   LIG A   1      -0.836   6.509 131.874  0.00  0.00    +0.277 C 
ENDBRANCH  24  28
TORSDOF 2
ENDMDL
MODEL 9
REMARK VINA RESULT:      -7.3      2.434      3.172
REMARK  Name = NuBBE_1413
REMARK  6 active torsions:
REMARK  status: ('A' for Active; 'I' for Inactive)
REMARK    1  A    between atoms: C_1  and  C_2
REMARK    2  A    between atoms: C_2  and  C_3
REMARK    3  A    between atoms: C_25  and  O_26
REMARK    4  A    between atoms: O_26  and  C_27
REMARK    5  A    between atoms: C_28  and  O_29
REMARK    6  A    between atoms: O_29  and  C_30
REMARK                            x       y       z     vdW  Elec       q    Type
REMARK                         _______ _______ _______ _____ _____    ______ ____
ROOT
ATOM      1  C   LIG A   1     -10.679   6.996 127.654  0.00  0.00    +0.060 C 
ATOM      2  C   LIG A   1     -11.001   7.065 129.152  0.00  0.00    +0.123 C 
ATOM      3  C   LIG A   1     -12.214   7.974 129.377  0.00  0.00    +0.060 C 
ATOM      4  C   LIG A   1      -9.814   7.624 129.898  0.00  0.00    +0.020 C 
ATOM      5  C   LIG A   1      -9.053   6.890 130.715  0.00  0.00    +0.015 C 
ATOM      6  C   LIG A   1      -9.382   5.478 130.887  0.00  0.00    +0.059 A 
ATOM      7  C   LIG A   1      -8.564   4.607 131.632  0.00  0.00    +0.142 A 
ATOM      8  C   LIG A   1      -8.943   3.275 131.801  0.00  0.00    +0.061 A 
ATOM      9  C   LIG A   1     -10.116   2.791 131.213  0.00  0.00    +0.019 A 
ATOM     10  C   LIG A   1     -10.919   3.647 130.462  0.00  0.00    +0.047 A 
ATOM     11  C   LIG A   1     -10.551   4.983 130.297  0.00  0.00    +0.132 A 
ATOM     12  O   LIG A   1     -11.414   5.744 129.558  0.00  0.00    -0.481 OA
ATOM     13  O   LIG A   1      -7.424   5.131 132.183  0.00  0.00    -0.483 OA
ATOM     14  C   LIG A   1      -6.414   4.192 132.548  0.00  0.00    +0.226 C 
ATOM     15  C   LIG A   1      -5.600   3.710 131.346  0.00  0.00    +0.274 C 
ATOM     16  O   LIG A   1      -4.456   2.945 131.732  0.00  0.00    -0.488 OA
ATOM     17  C   LIG A   1      -4.649   2.064 132.762  0.00  0.00    +0.128 A 
ATOM     18  C   LIG A   1      -5.791   2.033 133.564  0.00  0.00    +0.012 A 
ATOM     19  C   LIG A   1      -6.930   2.999 133.343  0.00  0.00    +0.138 C 
ATOM     20  C   LIG A   1      -8.114   2.375 132.629  0.00  0.00    +0.178 C 
ATOM     21  O   LIG A   1      -8.451   1.203 132.766  0.00  0.00    -0.291 OA
ATOM     22  C   LIG A   1      -5.856   1.087 134.597  0.00  0.00    +0.057 A 
ATOM     23  C   LIG A   1      -4.787   0.218 134.865  0.00  0.00    +0.162 A 
ATOM     24  C   LIG A   1      -3.638   0.270 134.064  0.00  0.00    +0.165 A 
ATOM     25  C   LIG A   1      -3.587   1.190 133.007  0.00  0.00    +0.095 A 
ENDROOT
BRANCH  23  26
ATOM     26  O   LIG A   1      -5.033  -0.623 135.919  0.00  0.00    -0.491 OA
ATOM     27  C   LIG A   1      -5.983  -1.659 135.710  0.00  0.00    +0.277 C 
ENDBRANCH  23  26
BRANCH  24  28
ATOM     28  O   LIG A   1      -2.632  -0.631 134.296  0.00  0.00    -0.491 OA
ATOM     29  C   LIG A   1      -2.652  -1.812 133.500  0.00  0.00    +0.277 C 
ENDBRANCH  24  28
TORSDOF 2
ENDMDL
