MODEL 1
REMARK VINA RESULT:      -5.6      0.000      0.000
REMARK  Name = NuBBE_1914
REMARK  3 active torsions:
REMARK  status: ('A' for Active; 'I' for Inactive)
REMARK    1  A    between atoms: C_1  and  C_3
REMARK    2  A    between atoms: C_1  and  C_4
REMARK    3  A    between atoms: C_7  and  C_10
REMARK                            x       y       z     vdW  Elec       q    Type
REMARK                         _______ _______ _______ _____ _____    ______ ____
ROOT
ATOM      1  C   LIG A   1     -12.555   7.429 128.774  0.00  0.00    +0.018 C 
ATOM      2  C   LIG A   1     -13.657   8.245 128.074  0.00  0.00    +0.012 C 
ATOM      3  C   LIG A   1     -13.572   9.741 128.396  0.00  0.00    +0.030 C 
ATOM      4  C   LIG A   1     -13.353  10.024 129.862  0.00  0.00    -0.076 C 
ATOM      5  C   LIG A   1     -12.958   9.066 130.718  0.00  0.00    -0.027 C 
ATOM      6  C   LIG A   1     -12.658   7.651 130.304  0.00  0.00    +0.035 C 
ATOM      7  C   LIG A   1     -13.598  11.439 130.303  0.00  0.00    +0.038 C 
ENDROOT
BRANCH   1   8
ATOM      8  C   LIG A   1     -11.179   7.669 128.141  0.00  0.00    -0.076 C 
ATOM      9  C   LIG A   1     -10.066   7.990 128.821  0.00  0.00    +0.007 C 
ATOM     10  C   LIG A   1     -11.116   7.487 126.644  0.00  0.00    +0.038 C 
ENDBRANCH   1   8
TORSDOF 1
ENDMDL
MODEL 2
REMARK VINA RESULT:      -5.5      1.409      3.260
REMARK  Name = NuBBE_1914
REMARK  3 active torsions:
REMARK  status: ('A' for Active; 'I' for Inactive)
REMARK    1  A    between atoms: C_1  and  C_3
REMARK    2  A    between atoms: C_1  and  C_4
REMARK    3  A    between atoms: C_7  and  C_10
REMARK                            x       y       z     vdW  Elec       q    Type
REMARK                         _______ _______ _______ _____ _____    ______ ____
ROOT
ATOM      1  C   LIG A   1     -11.971   8.644 128.346  0.00  0.00    +0.018 C 
ATOM      2  C   LIG A   1     -10.502   8.343 128.694  0.00  0.00    +0.012 C 
ATOM      3  C   LIG A   1     -10.358   7.146 129.640  0.00  0.00    +0.030 C 
ATOM      4  C   LIG A   1     -11.330   7.178 130.794  0.00  0.00    -0.076 C 
ATOM      5  C   LIG A   1     -12.401   7.991 130.798  0.00  0.00    -0.027 C 
ATOM      6  C   LIG A   1     -12.757   8.905 129.656  0.00  0.00    +0.035 C 
ATOM      7  C   LIG A   1     -11.032   6.244 131.932  0.00  0.00    +0.038 C 
ENDROOT
BRANCH   1   8
ATOM      8  C   LIG A   1     -12.559   7.594 127.395  0.00  0.00    -0.076 C 
ATOM      9  C   LIG A   1     -11.967   7.158 126.271  0.00  0.00    +0.007 C 
ATOM     10  C   LIG A   1     -13.887   7.014 127.816  0.00  0.00    +0.038 C 
ENDBRANCH   1   8
TORSDOF 1
ENDMDL
MODEL 3
REMARK VINA RESULT:      -5.2      1.665      2.862
REMARK  Name = NuBBE_1914
REMARK  3 active torsions:
REMARK  status: ('A' for Active; 'I' for Inactive)
REMARK    1  A    between atoms: C_1  and  C_3
REMARK    2  A    between atoms: C_1  and  C_4
REMARK    3  A    between atoms: C_7  and  C_10
REMARK                            x       y       z     vdW  Elec       q    Type
REMARK                         _______ _______ _______ _____ _____    ______ ____
ROOT
ATOM      1  C   LIG A   1     -10.841   6.277 129.324  0.00  0.00    +0.018 C 
ATOM      2  C   LIG A   1     -10.512   7.287 128.209  0.00  0.00    +0.012 C 
ATOM      3  C   LIG A   1     -11.155   8.657 128.451  0.00  0.00    +0.030 C 
ATOM      4  C   LIG A   1     -12.600   8.571 128.877  0.00  0.00    -0.076 C 
ATOM      5  C   LIG A   1     -13.147   7.418 129.301  0.00  0.00    -0.027 C 
ATOM      6  C   LIG A   1     -12.380   6.131 129.434  0.00  0.00    +0.035 C 
ATOM      7  C   LIG A   1     -13.386   9.848 128.802  0.00  0.00    +0.038 C 
ENDROOT
BRANCH   1   8
ATOM      8  C   LIG A   1     -10.091   6.598 130.622  0.00  0.00    -0.076 C 
ATOM      9  C   LIG A   1      -8.829   7.054 130.688  0.00  0.00    +0.007 C 
ATOM     10  C   LIG A   1     -10.884   6.402 131.891  0.00  0.00    +0.038 C 
ENDBRANCH   1   8
TORSDOF 1
ENDMDL
MODEL 4
REMARK VINA RESULT:      -5.1     12.420     13.993
REMARK  Name = NuBBE_1914
REMARK  3 active torsions:
REMARK  status: ('A' for Active; 'I' for Inactive)
REMARK    1  A    between atoms: C_1  and  C_3
REMARK    2  A    between atoms: C_1  and  C_4
REMARK    3  A    between atoms: C_7  and  C_10
REMARK                            x       y       z     vdW  Elec       q    Type
REMARK                         _______ _______ _______ _____ _____    ______ ____
ROOT
ATOM      1  C   LIG A   1      -7.569  -1.539 124.381  0.00  0.00    +0.018 C 
ATOM      2  C   LIG A   1      -6.852  -1.422 123.024  0.00  0.00    +0.012 C 
ATOM      3  C   LIG A   1      -6.009  -2.660 122.699  0.00  0.00    +0.030 C 
ATOM      4  C   LIG A   1      -5.175  -3.136 123.862  0.00  0.00    -0.076 C 
ATOM      5  C   LIG A   1      -5.400  -2.712 125.117  0.00  0.00    -0.027 C 
ATOM      6  C   LIG A   1      -6.514  -1.771 125.491  0.00  0.00    +0.035 C 
ATOM      7  C   LIG A   1      -4.083  -4.114 123.533  0.00  0.00    +0.038 C 
ENDROOT
BRANCH   1   8
ATOM      8  C   LIG A   1      -8.733  -2.537 124.327  0.00  0.00    -0.076 C 
ATOM      9  C   LIG A   1      -9.380  -2.903 123.208  0.00  0.00    +0.007 C 
ATOM     10  C   LIG A   1      -9.119  -3.151 125.651  0.00  0.00    +0.038 C 
ENDBRANCH   1   8
TORSDOF 1
ENDMDL
MODEL 5
REMARK VINA RESULT:      -5.0     11.608     13.386
REMARK  Name = NuBBE_1914
REMARK  3 active torsions:
REMARK  status: ('A' for Active; 'I' for Inactive)
REMARK    1  A    between atoms: C_1  and  C_3
REMARK    2  A    between atoms: C_1  and  C_4
REMARK    3  A    between atoms: C_7  and  C_10
REMARK                            x       y       z     vdW  Elec       q    Type
REMARK                         _______ _______ _______ _____ _____    ______ ____
ROOT
ATOM      1  C   LIG A   1      -8.696  -2.259 126.101  0.00  0.00    +0.018 C 
ATOM      2  C   LIG A   1      -8.847  -3.256 124.938  0.00  0.00    +0.012 C 
ATOM      3  C   LIG A   1      -7.509  -3.876 124.520  0.00  0.00    +0.030 C 
ATOM      4  C   LIG A   1      -6.395  -2.866 124.400  0.00  0.00    -0.076 C 
ATOM      5  C   LIG A   1      -6.501  -1.628 124.914  0.00  0.00    -0.027 C 
ATOM      6  C   LIG A   1      -7.700  -1.146 125.685  0.00  0.00    +0.035 C 
ATOM      7  C   LIG A   1      -5.163  -3.327 123.677  0.00  0.00    +0.038 C 
ENDROOT
BRANCH   1   8
ATOM      8  C   LIG A   1      -8.408  -2.970 127.428  0.00  0.00    -0.076 C 
ATOM      9  C   LIG A   1      -9.018  -4.091 127.848  0.00  0.00    +0.007 C 
ATOM     10  C   LIG A   1      -7.327  -2.345 128.276  0.00  0.00    +0.038 C 
ENDBRANCH   1   8
TORSDOF 1
ENDMDL
MODEL 6
REMARK VINA RESULT:      -4.9      1.423      3.787
REMARK  Name = NuBBE_1914
REMARK  3 active torsions:
REMARK  status: ('A' for Active; 'I' for Inactive)
REMARK    1  A    between atoms: C_1  and  C_3
REMARK    2  A    between atoms: C_1  and  C_4
REMARK    3  A    between atoms: C_7  and  C_10
REMARK                            x       y       z     vdW  Elec       q    Type
REMARK                         _______ _______ _______ _____ _____    ______ ____
ROOT
ATOM      1  C   LIG A   1     -12.339   8.670 128.126  0.00  0.00    +0.018 C 
ATOM      2  C   LIG A   1     -13.030   7.312 127.913  0.00  0.00    +0.012 C 
ATOM      3  C   LIG A   1     -12.775   6.338 129.069  0.00  0.00    +0.030 C 
ATOM      4  C   LIG A   1     -11.332   6.298 129.508  0.00  0.00    -0.076 C 
ATOM      5  C   LIG A   1     -10.452   7.244 129.139  0.00  0.00    -0.027 C 
ATOM      6  C   LIG A   1     -10.816   8.440 128.302  0.00  0.00    +0.035 C 
ATOM      7  C   LIG A   1     -10.942   5.142 130.384  0.00  0.00    +0.038 C 
ENDROOT
BRANCH   1   8
ATOM      8  C   LIG A   1     -13.033   9.499 129.213  0.00  0.00    -0.076 C 
ATOM      9  C   LIG A   1     -12.911   9.290 130.535  0.00  0.00    +0.007 C 
ATOM     10  C   LIG A   1     -13.879  10.644 128.711  0.00  0.00    +0.038 C 
ENDBRANCH   1   8
TORSDOF 1
ENDMDL
MODEL 7
REMARK VINA RESULT:      -4.8     10.855     13.448
REMARK  Name = NuBBE_1914
REMARK  3 active torsions:
REMARK  status: ('A' for Active; 'I' for Inactive)
REMARK    1  A    between atoms: C_1  and  C_3
REMARK    2  A    between atoms: C_1  and  C_4
REMARK    3  A    between atoms: C_7  and  C_10
REMARK                            x       y       z     vdW  Elec       q    Type
REMARK                         _______ _______ _______ _____ _____    ______ ____
ROOT
ATOM      1  C   LIG A   1      -8.767  -2.056 124.107  0.00  0.00    +0.018 C 
ATOM      2  C   LIG A   1      -8.384  -3.545 124.026  0.00  0.00    +0.012 C 
ATOM      3  C   LIG A   1      -6.893  -3.781 124.289  0.00  0.00    +0.030 C 
ATOM      4  C   LIG A   1      -5.996  -2.815 123.554  0.00  0.00    -0.076 C 
ATOM      5  C   LIG A   1      -6.474  -1.688 122.998  0.00  0.00    -0.027 C 
ATOM      6  C   LIG A   1      -7.914  -1.260 123.088  0.00  0.00    +0.035 C 
ATOM      7  C   LIG A   1      -4.543  -3.186 123.486  0.00  0.00    +0.038 C 
ENDROOT
BRANCH   1   8
ATOM      8  C   LIG A   1      -8.757  -1.543 125.552  0.00  0.00    -0.076 C 
ATOM      9  C   LIG A   1      -8.636  -0.253 125.909  0.00  0.00    +0.007 C 
ATOM     10  C   LIG A   1      -8.934  -2.600 126.614  0.00  0.00    +0.038 C 
ENDBRANCH   1   8
TORSDOF 1
ENDMDL
MODEL 8
REMARK VINA RESULT:      -4.8     11.762     13.260
REMARK  Name = NuBBE_1914
REMARK  3 active torsions:
REMARK  status: ('A' for Active; 'I' for Inactive)
REMARK    1  A    between atoms: C_1  and  C_3
REMARK    2  A    between atoms: C_1  and  C_4
REMARK    3  A    between atoms: C_7  and  C_10
REMARK                            x       y       z     vdW  Elec       q    Type
REMARK                         _______ _______ _______ _____ _____    ______ ____
ROOT
ATOM      1  C   LIG A   1      -7.382  -3.491 124.438  0.00  0.00    +0.018 C 
ATOM      2  C   LIG A   1      -7.684  -3.013 125.870  0.00  0.00    +0.012 C 
ATOM      3  C   LIG A   1      -7.286  -1.550 126.095  0.00  0.00    +0.030 C 
ATOM      4  C   LIG A   1      -5.921  -1.212 125.547  0.00  0.00    -0.076 C 
ATOM      5  C   LIG A   1      -5.284  -2.021 124.683  0.00  0.00    -0.027 C 
ATOM      6  C   LIG A   1      -5.871  -3.301 124.151  0.00  0.00    +0.035 C 
ATOM      7  C   LIG A   1      -5.324   0.082 126.019  0.00  0.00    +0.038 C 
ENDROOT
BRANCH   1   8
ATOM      8  C   LIG A   1      -8.352  -2.884 123.418  0.00  0.00    -0.076 C 
ATOM      9  C   LIG A   1      -8.023  -1.957 122.502  0.00  0.00    +0.007 C 
ATOM     10  C   LIG A   1      -9.760  -3.425 123.463  0.00  0.00    +0.038 C 
ENDBRANCH   1   8
TORSDOF 1
ENDMDL
MODEL 9
REMARK VINA RESULT:      -4.8     11.439     12.990
REMARK  Name = NuBBE_1914
REMARK  3 active torsions:
REMARK  status: ('A' for Active; 'I' for Inactive)
REMARK    1  A    between atoms: C_1  and  C_3
REMARK    2  A    between atoms: C_1  and  C_4
REMARK    3  A    between atoms: C_7  and  C_10
REMARK                            x       y       z     vdW  Elec       q    Type
REMARK                         _______ _______ _______ _____ _____    ______ ____
ROOT
ATOM      1  C   LIG A   1      -7.400  -1.818 124.261  0.00  0.00    +0.018 C 
ATOM      2  C   LIG A   1      -8.206  -1.053 125.326  0.00  0.00    +0.012 C 
ATOM      3  C   LIG A   1      -8.259  -1.795 126.666  0.00  0.00    +0.030 C 
ATOM      4  C   LIG A   1      -8.561  -3.266 126.522  0.00  0.00    -0.076 C 
ATOM      5  C   LIG A   1      -8.471  -3.896 125.337  0.00  0.00    -0.027 C 
ATOM      6  C   LIG A   1      -8.026  -3.222 124.067  0.00  0.00    +0.035 C 
ATOM      7  C   LIG A   1      -8.963  -3.983 127.779  0.00  0.00    +0.038 C 
ENDROOT
BRANCH   1   8
ATOM      8  C   LIG A   1      -5.894  -1.777 124.547  0.00  0.00    -0.076 C 
ATOM      9  C   LIG A   1      -5.287  -0.879 125.342  0.00  0.00    +0.007 C 
ATOM     10  C   LIG A   1      -5.082  -2.865 123.889  0.00  0.00    +0.038 C 
ENDBRANCH   1   8
TORSDOF 1
ENDMDL
