MODEL 1
REMARK VINA RESULT:      -7.8      0.000      0.000
REMARK  Name = NuBBE_1769
REMARK  4 active torsions:
REMARK  status: ('A' for Active; 'I' for Inactive)
REMARK    1  A    between atoms: O_1  and  C_2
REMARK    2  A    between atoms: C_12  and  O_13
REMARK    3  A    between atoms: C_14  and  O_17
REMARK    4  A    between atoms: C_23  and  O_25
REMARK                            x       y       z     vdW  Elec       q    Type
REMARK                         _______ _______ _______ _____ _____    ______ ____
ROOT
ATOM      1  C   LIG A   1     -11.382   6.916 131.260  0.00  0.00    +0.181 C 
ATOM      2  C   LIG A   1      -9.997   6.407 131.662  0.00  0.00    +0.197 C 
ATOM      3  C   LIG A   1      -8.956   7.006 130.714  0.00  0.00    +0.235 C 
ATOM      4  C   LIG A   1      -7.589   6.470 131.098  0.00  0.00    +0.004 A 
ATOM      5  C   LIG A   1      -7.483   5.239 131.787  0.00  0.00    +0.030 A 
ATOM      6  C   LIG A   1      -8.730   4.457 132.133  0.00  0.00    +0.200 C 
ATOM      7  O   LIG A   1      -9.953   4.966 131.588  0.00  0.00    -0.365 OA
ATOM      8  C   LIG A   1      -6.209   4.812 132.185  0.00  0.00    +0.164 A 
ATOM      9  C   LIG A   1      -5.080   5.579 131.890  0.00  0.00    +0.159 A 
ATOM     10  C   LIG A   1      -5.179   6.767 131.186  0.00  0.00    +0.049 A 
ATOM     11  C   LIG A   1      -6.436   7.212 130.783  0.00  0.00    +0.011 A 
ATOM     12  O   LIG A   1      -9.189   6.658 129.341  0.00  0.00    -0.481 OA
ATOM     13  C   LIG A   1     -10.473   6.863 128.908  0.00  0.00    +0.131 A 
ATOM     14  C   LIG A   1     -11.567   6.987 129.771  0.00  0.00    +0.025 A 
ATOM     15  C   LIG A   1     -12.841   7.227 129.230  0.00  0.00    +0.013 A 
ATOM     16  C   LIG A   1     -13.024   7.310 127.849  0.00  0.00    +0.046 A 
ATOM     17  C   LIG A   1     -11.930   7.147 127.008  0.00  0.00    +0.120 A 
ATOM     18  C   LIG A   1     -10.659   6.918 127.528  0.00  0.00    +0.091 A 
ENDROOT
BRANCH   1  19
ATOM     19  O   LIG A   1     -12.388   6.087 131.847  0.00  0.00    -0.384 OA
ATOM     20  H   LIG A   1     -12.882   6.687 132.442  0.00  0.00    +0.210 HD
ENDBRANCH   1  19
BRANCH   8  21
ATOM     21  O   LIG A   1      -5.974   3.662 132.893  0.00  0.00    -0.503 OA
ATOM     22  H   LIG A   1      -6.782   3.127 132.941  0.00  0.00    +0.292 HD
ENDBRANCH   8  21
BRANCH   9  23
ATOM     23  O   LIG A   1      -3.847   5.160 132.306  0.00  0.00    -0.503 OA
ATOM     24  H   LIG A   1      -3.706   5.623 133.156  0.00  0.00    +0.292 HD
ENDBRANCH   9  23
BRANCH  17  25
ATOM     25  O   LIG A   1     -12.067   7.212 125.652  0.00  0.00    -0.507 OA
ATOM     26  H   LIG A   1     -11.299   7.675 125.284  0.00  0.00    +0.292 HD
ENDBRANCH  17  25
TORSDOF 4
ENDMDL
MODEL 2
REMARK VINA RESULT:      -7.7      6.972      8.612
REMARK  Name = NuBBE_1769
REMARK  4 active torsions:
REMARK  status: ('A' for Active; 'I' for Inactive)
REMARK    1  A    between atoms: O_1  and  C_2
REMARK    2  A    between atoms: C_12  and  O_13
REMARK    3  A    between atoms: C_14  and  O_17
REMARK    4  A    between atoms: C_23  and  O_25
REMARK                            x       y       z     vdW  Elec       q    Type
REMARK                         _______ _______ _______ _____ _____    ______ ____
ROOT
ATOM      1  C   LIG A   1      -5.411   3.919 121.889  0.00  0.00    +0.181 C 
ATOM      2  C   LIG A   1      -5.780   3.759 123.365  0.00  0.00    +0.197 C 
ATOM      3  C   LIG A   1      -6.974   2.811 123.477  0.00  0.00    +0.235 C 
ATOM      4  C   LIG A   1      -7.354   2.684 124.940  0.00  0.00    +0.004 A 
ATOM      5  C   LIG A   1      -7.018   3.716 125.847  0.00  0.00    +0.030 A 
ATOM      6  C   LIG A   1      -6.287   4.946 125.356  0.00  0.00    +0.200 C 
ATOM      7  O   LIG A   1      -6.118   5.041 123.937  0.00  0.00    -0.365 OA
ATOM      8  C   LIG A   1      -7.324   3.532 127.202  0.00  0.00    +0.164 A 
ATOM      9  C   LIG A   1      -7.959   2.364 127.633  0.00  0.00    +0.159 A 
ATOM     10  C   LIG A   1      -8.319   1.369 126.741  0.00  0.00    +0.049 A 
ATOM     11  C   LIG A   1      -8.023   1.530 125.390  0.00  0.00    +0.011 A 
ATOM     12  O   LIG A   1      -8.129   3.284 122.768  0.00  0.00    -0.481 OA
ATOM     13  C   LIG A   1      -7.887   3.675 121.477  0.00  0.00    +0.131 A 
ATOM     14  C   LIG A   1      -6.615   4.000 120.995  0.00  0.00    +0.025 A 
ATOM     15  C   LIG A   1      -6.467   4.360 119.644  0.00  0.00    +0.013 A 
ATOM     16  C   LIG A   1      -7.575   4.425 118.799  0.00  0.00    +0.046 A 
ATOM     17  C   LIG A   1      -8.835   4.134 119.308  0.00  0.00    +0.120 A 
ATOM     18  C   LIG A   1      -8.999   3.766 120.640  0.00  0.00    +0.091 A 
ENDROOT
BRANCH   1  19
ATOM     19  O   LIG A   1      -4.588   5.075 121.721  0.00  0.00    -0.384 OA
ATOM     20  H   LIG A   1      -5.018   5.763 122.267  0.00  0.00    +0.210 HD
ENDBRANCH   1  19
BRANCH   8  21
ATOM     21  O   LIG A   1      -7.015   4.434 128.187  0.00  0.00    -0.503 OA
ATOM     22  H   LIG A   1      -7.475   5.273 128.029  0.00  0.00    +0.292 HD
ENDBRANCH   8  21
BRANCH   9  23
ATOM     23  O   LIG A   1      -8.229   2.189 128.962  0.00  0.00    -0.503 OA
ATOM     24  H   LIG A   1      -9.203   2.257 129.024  0.00  0.00    +0.292 HD
ENDBRANCH   9  23
BRANCH  17  25
ATOM     25  O   LIG A   1      -9.945   4.193 118.517  0.00  0.00    -0.507 OA
ATOM     26  H   LIG A   1      -9.791   3.660 117.722  0.00  0.00    +0.292 HD
ENDBRANCH  17  25
TORSDOF 4
ENDMDL
MODEL 3
REMARK VINA RESULT:      -7.5      1.700      2.360
REMARK  Name = NuBBE_1769
REMARK  4 active torsions:
REMARK  status: ('A' for Active; 'I' for Inactive)
REMARK    1  A    between atoms: O_1  and  C_2
REMARK    2  A    between atoms: C_12  and  O_13
REMARK    3  A    between atoms: C_14  and  O_17
REMARK    4  A    between atoms: C_23  and  O_25
REMARK                            x       y       z     vdW  Elec       q    Type
REMARK                         _______ _______ _______ _____ _____    ______ ____
ROOT
ATOM      1  C   LIG A   1      -9.506   5.847 132.694  0.00  0.00    +0.181 C 
ATOM      2  C   LIG A   1      -8.067   5.578 132.250  0.00  0.00    +0.197 C 
ATOM      3  C   LIG A   1      -7.583   6.754 131.401  0.00  0.00    +0.235 C 
ATOM      4  C   LIG A   1      -6.168   6.464 130.938  0.00  0.00    +0.004 A 
ATOM      5  C   LIG A   1      -5.716   5.126 130.850  0.00  0.00    +0.030 A 
ATOM      6  C   LIG A   1      -6.645   3.988 131.211  0.00  0.00    +0.200 C 
ATOM      7  O   LIG A   1      -8.002   4.359 131.480  0.00  0.00    -0.365 OA
ATOM      8  C   LIG A   1      -4.382   4.901 130.485  0.00  0.00    +0.164 A 
ATOM      9  C   LIG A   1      -3.534   5.975 130.201  0.00  0.00    +0.159 A 
ATOM     10  C   LIG A   1      -3.985   7.283 130.254  0.00  0.00    +0.049 A 
ATOM     11  C   LIG A   1      -5.306   7.530 130.617  0.00  0.00    +0.011 A 
ATOM     12  O   LIG A   1      -8.388   6.965 130.232  0.00  0.00    -0.481 OA
ATOM     13  C   LIG A   1      -9.738   7.007 130.466  0.00  0.00    +0.131 A 
ATOM     14  C   LIG A   1     -10.337   6.485 131.617  0.00  0.00    +0.025 A 
ATOM     15  C   LIG A   1     -11.728   6.605 131.778  0.00  0.00    +0.013 A 
ATOM     16  C   LIG A   1     -12.510   7.208 130.792  0.00  0.00    +0.046 A 
ATOM     17  C   LIG A   1     -11.898   7.687 129.640  0.00  0.00    +0.120 A 
ATOM     18  C   LIG A   1     -10.521   7.584 129.468  0.00  0.00    +0.091 A 
ENDROOT
BRANCH   1  19
ATOM     19  O   LIG A   1     -10.110   4.629 133.134  0.00  0.00    -0.384 OA
ATOM     20  H   LIG A   1      -9.456   3.937 132.910  0.00  0.00    +0.210 HD
ENDBRANCH   1  19
BRANCH   8  21
ATOM     21  O   LIG A   1      -3.809   3.659 130.403  0.00  0.00    -0.503 OA
ATOM     22  H   LIG A   1      -3.216   3.512 131.156  0.00  0.00    +0.292 HD
ENDBRANCH   8  21
BRANCH   9  23
ATOM     23  O   LIG A   1      -2.228   5.740 129.869  0.00  0.00    -0.503 OA
ATOM     24  H   LIG A   1      -2.162   4.766 129.814  0.00  0.00    +0.292 HD
ENDBRANCH   9  23
BRANCH  17  25
ATOM     25  O   LIG A   1     -12.627   8.275 128.648  0.00  0.00    -0.507 OA
ATOM     26  H   LIG A   1     -12.284   9.169 128.497  0.00  0.00    +0.292 HD
ENDBRANCH  17  25
TORSDOF 4
ENDMDL
MODEL 4
REMARK VINA RESULT:      -7.5      8.079      9.915
REMARK  Name = NuBBE_1769
REMARK  4 active torsions:
REMARK  status: ('A' for Active; 'I' for Inactive)
REMARK    1  A    between atoms: O_1  and  C_2
REMARK    2  A    between atoms: C_12  and  O_13
REMARK    3  A    between atoms: C_14  and  O_17
REMARK    4  A    between atoms: C_23  and  O_25
REMARK                            x       y       z     vdW  Elec       q    Type
REMARK                         _______ _______ _______ _____ _____    ______ ____
ROOT
ATOM      1  C   LIG A   1      -7.996   2.554 125.442  0.00  0.00    +0.181 C 
ATOM      2  C   LIG A   1      -7.294   3.353 124.343  0.00  0.00    +0.197 C 
ATOM      3  C   LIG A   1      -7.622   2.725 122.988  0.00  0.00    +0.235 C 
ATOM      4  C   LIG A   1      -6.895   3.503 121.907  0.00  0.00    +0.004 A 
ATOM      5  C   LIG A   1      -5.728   4.234 122.229  0.00  0.00    +0.030 A 
ATOM      6  C   LIG A   1      -5.203   4.234 123.648  0.00  0.00    +0.200 C 
ATOM      7  O   LIG A   1      -5.865   3.344 124.553  0.00  0.00    -0.365 OA
ATOM      8  C   LIG A   1      -5.125   4.996 121.219  0.00  0.00    +0.164 A 
ATOM      9  C   LIG A   1      -5.659   5.013 119.928  0.00  0.00    +0.159 A 
ATOM     10  C   LIG A   1      -6.782   4.270 119.604  0.00  0.00    +0.049 A 
ATOM     11  C   LIG A   1      -7.399   3.508 120.592  0.00  0.00    +0.011 A 
ATOM     12  O   LIG A   1      -7.203   1.355 122.893  0.00  0.00    -0.481 OA
ATOM     13  C   LIG A   1      -7.587   0.565 123.945  0.00  0.00    +0.131 A 
ATOM     14  C   LIG A   1      -7.969   1.073 125.191  0.00  0.00    +0.025 A 
ATOM     15  C   LIG A   1      -8.376   0.180 126.197  0.00  0.00    +0.013 A 
ATOM     16  C   LIG A   1      -8.370  -1.197 125.973  0.00  0.00    +0.046 A 
ATOM     17  C   LIG A   1      -7.951  -1.682 124.740  0.00  0.00    +0.120 A 
ATOM     18  C   LIG A   1      -7.554  -0.812 123.729  0.00  0.00    +0.091 A 
ENDROOT
BRANCH   1  19
ATOM     19  O   LIG A   1      -7.405   2.855 126.708  0.00  0.00    -0.384 OA
ATOM     20  H   LIG A   1      -6.667   2.218 126.791  0.00  0.00    +0.210 HD
ENDBRANCH   1  19
BRANCH   8  21
ATOM     21  O   LIG A   1      -4.017   5.780 121.410  0.00  0.00    -0.503 OA
ATOM     22  H   LIG A   1      -4.127   6.329 122.202  0.00  0.00    +0.292 HD
ENDBRANCH   8  21
BRANCH   9  23
ATOM     23  O   LIG A   1      -5.073   5.779 118.960  0.00  0.00    -0.503 OA
ATOM     24  H   LIG A   1      -5.811   6.292 118.575  0.00  0.00    +0.292 HD
ENDBRANCH   9  23
BRANCH  17  25
ATOM     25  O   LIG A   1      -7.922  -3.021 124.482  0.00  0.00    -0.507 OA
ATOM     26  H   LIG A   1      -7.739  -3.153 123.539  0.00  0.00    +0.292 HD
ENDBRANCH  17  25
TORSDOF 4
ENDMDL
MODEL 5
REMARK VINA RESULT:      -7.5      7.352      8.384
REMARK  Name = NuBBE_1769
REMARK  4 active torsions:
REMARK  status: ('A' for Active; 'I' for Inactive)
REMARK    1  A    between atoms: O_1  and  C_2
REMARK    2  A    between atoms: C_12  and  O_13
REMARK    3  A    between atoms: C_14  and  O_17
REMARK    4  A    between atoms: C_23  and  O_25
REMARK                            x       y       z     vdW  Elec       q    Type
REMARK                         _______ _______ _______ _____ _____    ______ ____
ROOT
ATOM      1  C   LIG A   1      -8.899   2.895 122.736  0.00  0.00    +0.181 C 
ATOM      2  C   LIG A   1      -7.955   2.471 123.862  0.00  0.00    +0.197 C 
ATOM      3  C   LIG A   1      -6.835   3.505 123.985  0.00  0.00    +0.235 C 
ATOM      4  C   LIG A   1      -5.885   3.060 125.080  0.00  0.00    +0.004 A 
ATOM      5  C   LIG A   1      -5.801   1.691 125.427  0.00  0.00    +0.030 A 
ATOM      6  C   LIG A   1      -6.652   0.674 124.700  0.00  0.00    +0.200 C 
ATOM      7  O   LIG A   1      -7.392   1.172 123.579  0.00  0.00    -0.365 OA
ATOM      8  C   LIG A   1      -4.965   1.328 126.491  0.00  0.00    +0.164 A 
ATOM      9  C   LIG A   1      -4.225   2.297 127.174  0.00  0.00    +0.159 A 
ATOM     10  C   LIG A   1      -4.280   3.632 126.813  0.00  0.00    +0.049 A 
ATOM     11  C   LIG A   1      -5.107   4.016 125.760  0.00  0.00    +0.011 A 
ATOM     12  O   LIG A   1      -6.071   3.644 122.777  0.00  0.00    -0.481 OA
ATOM     13  C   LIG A   1      -6.820   3.812 121.642  0.00  0.00    +0.131 A 
ATOM     14  C   LIG A   1      -8.172   3.468 121.552  0.00  0.00    +0.025 A 
ATOM     15  C   LIG A   1      -8.861   3.709 120.351  0.00  0.00    +0.013 A 
ATOM     16  C   LIG A   1      -8.201   4.255 119.249  0.00  0.00    +0.046 A 
ATOM     17  C   LIG A   1      -6.848   4.555 119.348  0.00  0.00    +0.120 A 
ATOM     18  C   LIG A   1      -6.153   4.331 120.533  0.00  0.00    +0.091 A 
ENDROOT
BRANCH   1  19
ATOM     19  O   LIG A   1      -9.701   1.783 122.336  0.00  0.00    -0.384 OA
ATOM     20  H   LIG A   1      -9.086   1.201 121.845  0.00  0.00    +0.210 HD
ENDBRANCH   1  19
BRANCH   8  21
ATOM     21  O   LIG A   1      -4.825   0.045 126.952  0.00  0.00    -0.503 OA
ATOM     22  H   LIG A   1      -4.207  -0.448 126.390  0.00  0.00    +0.292 HD
ENDBRANCH   8  21
BRANCH   9  23
ATOM     23  O   LIG A   1      -3.431   1.929 128.224  0.00  0.00    -0.503 OA
ATOM     24  H   LIG A   1      -3.307   2.753 128.736  0.00  0.00    +0.292 HD
ENDBRANCH   9  23
BRANCH  17  25
ATOM     25  O   LIG A   1      -6.164   5.081 118.292  0.00  0.00    -0.507 OA
ATOM     26  H   LIG A   1      -6.536   4.723 117.471  0.00  0.00    +0.292 HD
ENDBRANCH  17  25
TORSDOF 4
ENDMDL
MODEL 6
REMARK VINA RESULT:      -7.5      7.184      9.667
REMARK  Name = NuBBE_1769
REMARK  4 active torsions:
REMARK  status: ('A' for Active; 'I' for Inactive)
REMARK    1  A    between atoms: O_1  and  C_2
REMARK    2  A    between atoms: C_12  and  O_13
REMARK    3  A    between atoms: C_14  and  O_17
REMARK    4  A    between atoms: C_23  and  O_25
REMARK                            x       y       z     vdW  Elec       q    Type
REMARK                         _______ _______ _______ _____ _____    ______ ____
ROOT
ATOM      1  C   LIG A   1      -7.963   1.234 124.307  0.00  0.00    +0.181 C 
ATOM      2  C   LIG A   1      -7.738   1.959 122.979  0.00  0.00    +0.197 C 
ATOM      3  C   LIG A   1      -6.602   2.968 123.152  0.00  0.00    +0.235 C 
ATOM      4  C   LIG A   1      -6.409   3.707 121.841  0.00  0.00    +0.004 A 
ATOM      5  C   LIG A   1      -7.480   3.802 120.922  0.00  0.00    +0.030 A 
ATOM      6  C   LIG A   1      -8.817   3.176 121.250  0.00  0.00    +0.200 C 
ATOM      7  O   LIG A   1      -8.943   2.644 122.574  0.00  0.00    -0.365 OA
ATOM      8  C   LIG A   1      -7.242   4.431 119.692  0.00  0.00    +0.164 A 
ATOM      9  C   LIG A   1      -5.983   4.961 119.398  0.00  0.00    +0.159 A 
ATOM     10  C   LIG A   1      -4.944   4.898 120.311  0.00  0.00    +0.049 A 
ATOM     11  C   LIG A   1      -5.157   4.275 121.538  0.00  0.00    +0.011 A 
ATOM     12  O   LIG A   1      -6.877   3.947 124.165  0.00  0.00    -0.481 OA
ATOM     13  C   LIG A   1      -7.307   3.430 125.360  0.00  0.00    +0.131 A 
ATOM     14  C   LIG A   1      -7.843   2.146 125.495  0.00  0.00    +0.025 A 
ATOM     15  C   LIG A   1      -8.227   1.696 126.770  0.00  0.00    +0.013 A 
ATOM     16  C   LIG A   1      -8.107   2.527 127.884  0.00  0.00    +0.046 A 
ATOM     17  C   LIG A   1      -7.606   3.813 127.721  0.00  0.00    +0.120 A 
ATOM     18  C   LIG A   1      -7.212   4.272 126.467  0.00  0.00    +0.091 A 
ENDROOT
BRANCH   1  19
ATOM     19  O   LIG A   1      -9.241   0.596 124.297  0.00  0.00    -0.384 OA
ATOM     20  H   LIG A   1      -9.055  -0.329 124.557  0.00  0.00    +0.210 HD
ENDBRANCH   1  19
BRANCH   8  21
ATOM     21  O   LIG A   1      -8.180   4.553 118.701  0.00  0.00    -0.503 OA
ATOM     22  H   LIG A   1      -9.071   4.424 119.063  0.00  0.00    +0.292 HD
ENDBRANCH   8  21
BRANCH   9  23
ATOM     23  O   LIG A   1      -5.761   5.551 118.185  0.00  0.00    -0.503 OA
ATOM     24  H   LIG A   1      -5.578   6.487 118.399  0.00  0.00    +0.292 HD
ENDBRANCH   9  23
BRANCH  17  25
ATOM     25  O   LIG A   1      -7.481   4.661 128.783  0.00  0.00    -0.507 OA
ATOM     26  H   LIG A   1      -6.539   4.839 128.929  0.00  0.00    +0.292 HD
ENDBRANCH  17  25
TORSDOF 4
ENDMDL
MODEL 7
REMARK VINA RESULT:      -7.3      7.646      9.517
REMARK  Name = NuBBE_1769
REMARK  4 active torsions:
REMARK  status: ('A' for Active; 'I' for Inactive)
REMARK    1  A    between atoms: O_1  and  C_2
REMARK    2  A    between atoms: C_12  and  O_13
REMARK    3  A    between atoms: C_14  and  O_17
REMARK    4  A    between atoms: C_23  and  O_25
REMARK                            x       y       z     vdW  Elec       q    Type
REMARK                         _______ _______ _______ _____ _____    ______ ____
ROOT
ATOM      1  C   LIG A   1      -8.653  -2.346 125.405  0.00  0.00    +0.181 C 
ATOM      2  C   LIG A   1      -8.408  -0.889 125.008  0.00  0.00    +0.197 C 
ATOM      3  C   LIG A   1      -7.197  -0.363 125.780  0.00  0.00    +0.235 C 
ATOM      4  C   LIG A   1      -6.980   1.091 125.406  0.00  0.00    +0.004 A 
ATOM      5  C   LIG A   1      -8.063   1.862 124.922  0.00  0.00    +0.030 A 
ATOM      6  C   LIG A   1      -9.434   1.238 124.785  0.00  0.00    +0.200 C 
ATOM      7  O   LIG A   1      -9.568  -0.086 125.313  0.00  0.00    -0.365 OA
ATOM      8  C   LIG A   1      -7.809   3.181 124.521  0.00  0.00    +0.164 A 
ATOM      9  C   LIG A   1      -6.522   3.716 124.617  0.00  0.00    +0.159 A 
ATOM     10  C   LIG A   1      -5.469   2.973 125.123  0.00  0.00    +0.049 A 
ATOM     11  C   LIG A   1      -5.698   1.659 125.524  0.00  0.00    +0.011 A 
ATOM     12  O   LIG A   1      -7.374  -0.424 127.203  0.00  0.00    -0.481 OA
ATOM     13  C   LIG A   1      -7.812  -1.634 127.674  0.00  0.00    +0.131 A 
ATOM     14  C   LIG A   1      -8.438  -2.593 126.871  0.00  0.00    +0.025 A 
ATOM     15  C   LIG A   1      -8.823  -3.818 127.443  0.00  0.00    +0.013 A 
ATOM     16  C   LIG A   1      -8.616  -4.066 128.801  0.00  0.00    +0.046 A 
ATOM     17  C   LIG A   1      -8.026  -3.084 129.588  0.00  0.00    +0.120 A 
ATOM     18  C   LIG A   1      -7.630  -1.870 129.036  0.00  0.00    +0.091 A 
ENDROOT
BRANCH   1  19
ATOM     19  O   LIG A   1      -9.975  -2.732 125.024  0.00  0.00    -0.384 OA
ATOM     20  H   LIG A   1      -9.841  -3.430 124.351  0.00  0.00    +0.210 HD
ENDBRANCH   1  19
BRANCH   8  21
ATOM     21  O   LIG A   1      -8.759   4.019 123.998  0.00  0.00    -0.503 OA
ATOM     22  H   LIG A   1      -8.342   4.819 123.643  0.00  0.00    +0.292 HD
ENDBRANCH   8  21
BRANCH   9  23
ATOM     23  O   LIG A   1      -6.286   4.996 124.201  0.00  0.00    -0.503 OA
ATOM     24  H   LIG A   1      -6.900   5.542 124.731  0.00  0.00    +0.292 HD
ENDBRANCH   9  23
BRANCH  17  25
ATOM     25  O   LIG A   1      -7.814  -3.284 130.921  0.00  0.00    -0.507 OA
ATOM     26  H   LIG A   1      -7.528  -2.448 131.319  0.00  0.00    +0.292 HD
ENDBRANCH  17  25
TORSDOF 4
ENDMDL
MODEL 8
REMARK VINA RESULT:      -7.2      1.827      6.291
REMARK  Name = NuBBE_1769
REMARK  4 active torsions:
REMARK  status: ('A' for Active; 'I' for Inactive)
REMARK    1  A    between atoms: O_1  and  C_2
REMARK    2  A    between atoms: C_12  and  O_13
REMARK    3  A    between atoms: C_14  and  O_17
REMARK    4  A    between atoms: C_23  and  O_25
REMARK                            x       y       z     vdW  Elec       q    Type
REMARK                         _______ _______ _______ _____ _____    ______ ____
ROOT
ATOM      1  C   LIG A   1      -9.477   3.451 131.031  0.00  0.00    +0.181 C 
ATOM      2  C   LIG A   1     -10.364   4.663 130.742  0.00  0.00    +0.197 C 
ATOM      3  C   LIG A   1      -9.731   5.482 129.616  0.00  0.00    +0.235 C 
ATOM      4  C   LIG A   1     -10.598   6.699 129.358  0.00  0.00    +0.004 A 
ATOM      5  C   LIG A   1     -11.439   7.194 130.382  0.00  0.00    +0.030 A 
ATOM      6  C   LIG A   1     -11.466   6.515 131.733  0.00  0.00    +0.200 C 
ATOM      7  O   LIG A   1     -10.497   5.479 131.925  0.00  0.00    -0.365 OA
ATOM      8  C   LIG A   1     -12.277   8.277 130.084  0.00  0.00    +0.164 A 
ATOM      9  C   LIG A   1     -12.263   8.856 128.812  0.00  0.00    +0.159 A 
ATOM     10  C   LIG A   1     -11.415   8.393 127.820  0.00  0.00    +0.049 A 
ATOM     11  C   LIG A   1     -10.576   7.316 128.093  0.00  0.00    +0.011 A 
ATOM     12  O   LIG A   1      -8.413   5.949 129.942  0.00  0.00    -0.481 OA
ATOM     13  C   LIG A   1      -7.568   4.986 130.431  0.00  0.00    +0.131 A 
ATOM     14  C   LIG A   1      -8.011   3.775 130.971  0.00  0.00    +0.025 A 
ATOM     15  C   LIG A   1      -7.063   2.838 131.418  0.00  0.00    +0.013 A 
ATOM     16  C   LIG A   1      -5.698   3.121 131.355  0.00  0.00    +0.046 A 
ATOM     17  C   LIG A   1      -5.282   4.346 130.847  0.00  0.00    +0.120 A 
ATOM     18  C   LIG A   1      -6.206   5.281 130.392  0.00  0.00    +0.091 A 
ENDROOT
BRANCH   1  19
ATOM     19  O   LIG A   1      -9.813   2.902 132.307  0.00  0.00    -0.384 OA
ATOM     20  H   LIG A   1      -9.712   1.935 132.192  0.00  0.00    +0.210 HD
ENDBRANCH   1  19
BRANCH   8  21
ATOM     21  O   LIG A   1     -13.167   8.824 130.971  0.00  0.00    -0.503 OA
ATOM     22  H   LIG A   1     -13.999   8.327 130.961  0.00  0.00    +0.292 HD
ENDBRANCH   8  21
BRANCH   9  23
ATOM     23  O   LIG A   1     -13.103   9.897 128.530  0.00  0.00    -0.503 OA
ATOM     24  H   LIG A   1     -13.988   9.486 128.471  0.00  0.00    +0.292 HD
ENDBRANCH   9  23
BRANCH  17  25
ATOM     25  O   LIG A   1      -3.957   4.665 130.776  0.00  0.00    -0.507 OA
ATOM     26  H   LIG A   1      -3.738   4.880 129.856  0.00  0.00    +0.292 HD
ENDBRANCH  17  25
TORSDOF 4
ENDMDL
MODEL 9
REMARK VINA RESULT:      -7.2      8.008      9.549
REMARK  Name = NuBBE_1769
REMARK  4 active torsions:
REMARK  status: ('A' for Active; 'I' for Inactive)
REMARK    1  A    between atoms: O_1  and  C_2
REMARK    2  A    between atoms: C_12  and  O_13
REMARK    3  A    between atoms: C_14  and  O_17
REMARK    4  A    between atoms: C_23  and  O_25
REMARK                            x       y       z     vdW  Elec       q    Type
REMARK                         _______ _______ _______ _____ _____    ______ ____
ROOT
ATOM      1  C   LIG A   1      -5.002   0.877 126.671  0.00  0.00    +0.181 C 
ATOM      2  C   LIG A   1      -6.047  -0.155 126.244  0.00  0.00    +0.197 C 
ATOM      3  C   LIG A   1      -6.506   0.165 124.821  0.00  0.00    +0.235 C 
ATOM      4  C   LIG A   1      -7.565  -0.842 124.417  0.00  0.00    +0.004 A 
ATOM      5  C   LIG A   1      -8.323  -1.504 125.412  0.00  0.00    +0.030 A 
ATOM      6  C   LIG A   1      -8.082  -1.200 126.874  0.00  0.00    +0.200 C 
ATOM      7  O   LIG A   1      -7.177  -0.123 127.141  0.00  0.00    -0.365 OA
ATOM      8  C   LIG A   1      -9.244  -2.478 125.003  0.00  0.00    +0.164 A 
ATOM      9  C   LIG A   1      -9.413  -2.770 123.647  0.00  0.00    +0.159 A 
ATOM     10  C   LIG A   1      -8.696  -2.099 122.671  0.00  0.00    +0.049 A 
ATOM     11  C   LIG A   1      -7.774  -1.128 123.055  0.00  0.00    +0.011 A 
ATOM     12  O   LIG A   1      -7.084   1.474 124.704  0.00  0.00    -0.481 OA
ATOM     13  C   LIG A   1      -6.336   2.482 125.254  0.00  0.00    +0.131 A 
ATOM     14  C   LIG A   1      -5.332   2.266 126.204  0.00  0.00    +0.025 A 
ATOM     15  C   LIG A   1      -4.599   3.365 126.685  0.00  0.00    +0.013 A 
ATOM     16  C   LIG A   1      -4.885   4.659 126.248  0.00  0.00    +0.046 A 
ATOM     17  C   LIG A   1      -5.911   4.854 125.331  0.00  0.00    +0.120 A 
ATOM     18  C   LIG A   1      -6.641   3.777 124.837  0.00  0.00    +0.091 A 
ENDROOT
BRANCH   1  19
ATOM     19  O   LIG A   1      -4.854   0.853 128.092  0.00  0.00    -0.384 OA
ATOM     20  H   LIG A   1      -3.921   1.102 128.246  0.00  0.00    +0.210 HD
ENDBRANCH   1  19
BRANCH   8  21
ATOM     21  O   LIG A   1     -10.009  -3.219 125.866  0.00  0.00    -0.503 OA
ATOM     22  H   LIG A   1     -10.564  -3.842 125.372  0.00  0.00    +0.292 HD
ENDBRANCH   8  21
BRANCH   9  23
ATOM     23  O   LIG A   1     -10.298  -3.739 123.266  0.00  0.00    -0.503 OA
ATOM     24  H   LIG A   1     -10.880  -3.297 122.617  0.00  0.00    +0.292 HD
ENDBRANCH   9  23
BRANCH  17  25
ATOM     25  O   LIG A   1      -6.229   6.103 124.885  0.00  0.00    -0.507 OA
ATOM     26  H   LIG A   1      -7.064   6.377 125.295  0.00  0.00    +0.292 HD
ENDBRANCH  17  25
TORSDOF 4
ENDMDL
