MODEL 1
REMARK VINA RESULT:      -6.2      0.000      0.000
REMARK  Name = NuBBE_2335
REMARK  4 active torsions:
REMARK  status: ('A' for Active; 'I' for Inactive)
REMARK    1  A    between atoms: C_1  and  C_2
REMARK    2  A    between atoms: C_10  and  C_12
REMARK    3  A    between atoms: C_12  and  C_13
REMARK    4  A    between atoms: C_12  and  C_14
REMARK                            x       y       z     vdW  Elec       q    Type
REMARK                         _______ _______ _______ _____ _____    ______ ____
ROOT
ATOM      1  C   LIG A   1      -4.878  -2.626 123.514  0.00  0.00    +0.008 C 
ATOM      2  C   LIG A   1      -6.336  -2.806 123.947  0.00  0.00    -0.007 C 
ATOM      3  C   LIG A   1      -6.651  -2.063 125.276  0.00  0.00    +0.018 C 
ATOM      4  C   LIG A   1      -5.824  -2.674 126.433  0.00  0.00    +0.013 C 
ATOM      5  C   LIG A   1      -6.367  -2.283 127.801  0.00  0.00    +0.035 C 
ATOM      6  C   LIG A   1      -7.263  -2.368 122.801  0.00  0.00    +0.004 C 
ATOM      7  C   LIG A   1      -8.730  -2.491 123.202  0.00  0.00    +0.008 C 
ATOM      8  C   LIG A   1      -9.072  -1.642 124.437  0.00  0.00    +0.018 C 
ATOM      9  C   LIG A   1      -8.148  -2.061 125.576  0.00  0.00    -0.063 C 
ATOM     10  C   LIG A   1      -8.650  -2.399 126.779  0.00  0.00    +0.003 C 
ATOM     11  C   LIG A   1      -7.815  -2.677 127.928  0.00  0.00    -0.054 C 
ATOM     12  C   LIG A   1      -8.319  -3.224 129.044  0.00  0.00    +0.012 C 
ENDROOT
BRANCH   8  13
ATOM     13  C   LIG A   1      -9.025  -0.100 124.183  0.00  0.00    -0.010 C 
ATOM     14  C   LIG A   1      -9.615   0.689 125.362  0.00  0.00    +0.008 C 
ATOM     15  C   LIG A   1      -9.775   0.300 122.906  0.00  0.00    +0.008 C 
ENDBRANCH   8  13
TORSDOF 1
ENDMDL
MODEL 2
REMARK VINA RESULT:      -6.1      0.970      4.239
REMARK  Name = NuBBE_2335
REMARK  4 active torsions:
REMARK  status: ('A' for Active; 'I' for Inactive)
REMARK    1  A    between atoms: C_1  and  C_2
REMARK    2  A    between atoms: C_10  and  C_12
REMARK    3  A    between atoms: C_12  and  C_13
REMARK    4  A    between atoms: C_12  and  C_14
REMARK                            x       y       z     vdW  Elec       q    Type
REMARK                         _______ _______ _______ _____ _____    ______ ____
ROOT
ATOM      1  C   LIG A   1      -4.787  -3.342 123.586  0.00  0.00    +0.008 C 
ATOM      2  C   LIG A   1      -5.548  -2.321 124.438  0.00  0.00    -0.007 C 
ATOM      3  C   LIG A   1      -7.075  -2.331 124.143  0.00  0.00    +0.018 C 
ATOM      4  C   LIG A   1      -7.335  -1.890 122.683  0.00  0.00    +0.013 C 
ATOM      5  C   LIG A   1      -8.786  -1.491 122.449  0.00  0.00    +0.035 C 
ATOM      6  C   LIG A   1      -5.240  -2.569 125.924  0.00  0.00    +0.004 C 
ATOM      7  C   LIG A   1      -6.010  -1.600 126.815  0.00  0.00    +0.008 C 
ATOM      8  C   LIG A   1      -7.531  -1.711 126.623  0.00  0.00    +0.018 C 
ATOM      9  C   LIG A   1      -7.846  -1.479 125.149  0.00  0.00    -0.063 C 
ATOM     10  C   LIG A   1      -8.766  -0.569 124.778  0.00  0.00    +0.003 C 
ATOM     11  C   LIG A   1      -9.195  -0.402 123.405  0.00  0.00    -0.054 C 
ATOM     12  C   LIG A   1      -9.939   0.648 123.026  0.00  0.00    +0.012 C 
ENDROOT
BRANCH   8  13
ATOM     13  C   LIG A   1      -8.143  -3.050 127.147  0.00  0.00    -0.010 C 
ATOM     14  C   LIG A   1      -9.523  -3.325 126.531  0.00  0.00    +0.008 C 
ATOM     15  C   LIG A   1      -8.281  -3.066 128.675  0.00  0.00    +0.008 C 
ENDBRANCH   8  13
TORSDOF 1
ENDMDL
MODEL 3
REMARK VINA RESULT:      -6.1      1.877      4.727
REMARK  Name = NuBBE_2335
REMARK  4 active torsions:
REMARK  status: ('A' for Active; 'I' for Inactive)
REMARK    1  A    between atoms: C_1  and  C_2
REMARK    2  A    between atoms: C_10  and  C_12
REMARK    3  A    between atoms: C_12  and  C_13
REMARK    4  A    between atoms: C_12  and  C_14
REMARK                            x       y       z     vdW  Elec       q    Type
REMARK                         _______ _______ _______ _____ _____    ______ ____
ROOT
ATOM      1  C   LIG A   1      -9.785  -4.325 128.127  0.00  0.00    +0.008 C 
ATOM      2  C   LIG A   1      -8.411  -3.657 128.014  0.00  0.00    -0.007 C 
ATOM      3  C   LIG A   1      -8.259  -2.843 126.697  0.00  0.00    +0.018 C 
ATOM      4  C   LIG A   1      -8.331  -3.792 125.478  0.00  0.00    +0.013 C 
ATOM      5  C   LIG A   1      -7.795  -3.143 124.208  0.00  0.00    +0.035 C 
ATOM      6  C   LIG A   1      -8.161  -2.795 129.263  0.00  0.00    +0.004 C 
ATOM      7  C   LIG A   1      -6.819  -2.076 129.177  0.00  0.00    +0.008 C 
ATOM      8  C   LIG A   1      -6.724  -1.161 127.945  0.00  0.00    +0.018 C 
ATOM      9  C   LIG A   1      -6.983  -2.004 126.701  0.00  0.00    -0.063 C 
ATOM     10  C   LIG A   1      -6.120  -1.987 125.668  0.00  0.00    +0.003 C 
ATOM     11  C   LIG A   1      -6.382  -2.663 124.415  0.00  0.00    -0.054 C 
ATOM     12  C   LIG A   1      -5.424  -2.821 123.489  0.00  0.00    +0.012 C 
ENDROOT
BRANCH   8  13
ATOM     13  C   LIG A   1      -7.659   0.091 128.008  0.00  0.00    -0.010 C 
ATOM     14  C   LIG A   1      -7.285   1.134 126.944  0.00  0.00    +0.008 C 
ATOM     15  C   LIG A   1      -7.629   0.768 129.384  0.00  0.00    +0.008 C 
ENDBRANCH   8  13
TORSDOF 1
ENDMDL
MODEL 4
REMARK VINA RESULT:      -6.1      1.795      4.892
REMARK  Name = NuBBE_2335
REMARK  4 active torsions:
REMARK  status: ('A' for Active; 'I' for Inactive)
REMARK    1  A    between atoms: C_1  and  C_2
REMARK    2  A    between atoms: C_10  and  C_12
REMARK    3  A    between atoms: C_12  and  C_13
REMARK    4  A    between atoms: C_12  and  C_14
REMARK                            x       y       z     vdW  Elec       q    Type
REMARK                         _______ _______ _______ _____ _____    ______ ____
ROOT
ATOM      1  C   LIG A   1      -9.610  -3.249 123.243  0.00  0.00    +0.008 C 
ATOM      2  C   LIG A   1      -8.373  -2.345 123.227  0.00  0.00    -0.007 C 
ATOM      3  C   LIG A   1      -8.674  -0.928 123.794  0.00  0.00    +0.018 C 
ATOM      4  C   LIG A   1      -9.697  -0.202 122.890  0.00  0.00    +0.013 C 
ATOM      5  C   LIG A   1      -9.730   1.300 123.143  0.00  0.00    +0.035 C 
ATOM      6  C   LIG A   1      -7.225  -3.041 123.977  0.00  0.00    +0.004 C 
ATOM      7  C   LIG A   1      -5.982  -2.159 124.023  0.00  0.00    +0.008 C 
ATOM      8  C   LIG A   1      -6.247  -0.811 124.712  0.00  0.00    +0.018 C 
ATOM      9  C   LIG A   1      -7.393  -0.117 123.983  0.00  0.00    -0.063 C 
ATOM     10  C   LIG A   1      -7.262   1.149 123.544  0.00  0.00    +0.003 C 
ATOM     11  C   LIG A   1      -8.358   1.896 122.964  0.00  0.00    -0.054 C 
ATOM     12  C   LIG A   1      -8.156   3.063 122.335  0.00  0.00    +0.012 C 
ENDROOT
BRANCH   8  13
ATOM     13  C   LIG A   1      -6.514  -0.922 126.248  0.00  0.00    -0.010 C 
ATOM     14  C   LIG A   1      -6.436   0.448 126.940  0.00  0.00    +0.008 C 
ATOM     15  C   LIG A   1      -5.529  -1.873 126.941  0.00  0.00    +0.008 C 
ENDBRANCH   8  13
TORSDOF 1
ENDMDL
MODEL 5
REMARK VINA RESULT:      -5.9      2.746      5.162
REMARK  Name = NuBBE_2335
REMARK  4 active torsions:
REMARK  status: ('A' for Active; 'I' for Inactive)
REMARK    1  A    between atoms: C_1  and  C_2
REMARK    2  A    between atoms: C_10  and  C_12
REMARK    3  A    between atoms: C_12  and  C_13
REMARK    4  A    between atoms: C_12  and  C_14
REMARK                            x       y       z     vdW  Elec       q    Type
REMARK                         _______ _______ _______ _____ _____    ______ ____
ROOT
ATOM      1  C   LIG A   1      -8.383   0.868 130.387  0.00  0.00    +0.008 C 
ATOM      2  C   LIG A   1      -7.495  -0.162 129.682  0.00  0.00    -0.007 C 
ATOM      3  C   LIG A   1      -7.770  -1.612 130.176  0.00  0.00    +0.018 C 
ATOM      4  C   LIG A   1      -7.400  -1.740 131.672  0.00  0.00    +0.013 C 
ATOM      5  C   LIG A   1      -7.258  -3.192 132.111  0.00  0.00    +0.035 C 
ATOM      6  C   LIG A   1      -7.666  -0.023 128.160  0.00  0.00    +0.004 C 
ATOM      7  C   LIG A   1      -6.831  -1.059 127.415  0.00  0.00    +0.008 C 
ATOM      8  C   LIG A   1      -7.203  -2.499 127.802  0.00  0.00    +0.018 C 
ATOM      9  C   LIG A   1      -7.048  -2.644 129.312  0.00  0.00    -0.063 C 
ATOM     10  C   LIG A   1      -6.314  -3.644 129.835  0.00  0.00    +0.003 C 
ATOM     11  C   LIG A   1      -6.241  -3.904 131.257  0.00  0.00    -0.054 C 
ATOM     12  C   LIG A   1      -5.339  -4.754 131.770  0.00  0.00    +0.012 C 
ENDROOT
BRANCH   8  13
ATOM     13  C   LIG A   1      -8.620  -2.944 127.314  0.00  0.00    -0.010 C 
ATOM     14  C   LIG A   1      -9.091  -4.222 128.026  0.00  0.00    +0.008 C 
ATOM     15  C   LIG A   1      -8.662  -3.188 125.800  0.00  0.00    +0.008 C 
ENDBRANCH   8  13
TORSDOF 1
ENDMDL
MODEL 6
REMARK VINA RESULT:      -5.9      8.734     10.850
REMARK  Name = NuBBE_2335
REMARK  4 active torsions:
REMARK  status: ('A' for Active; 'I' for Inactive)
REMARK    1  A    between atoms: C_1  and  C_2
REMARK    2  A    between atoms: C_10  and  C_12
REMARK    3  A    between atoms: C_12  and  C_13
REMARK    4  A    between atoms: C_12  and  C_14
REMARK                            x       y       z     vdW  Elec       q    Type
REMARK                         _______ _______ _______ _____ _____    ______ ____
ROOT
ATOM      1  C   LIG A   1      -6.087   6.918 130.934  0.00  0.00    +0.008 C 
ATOM      2  C   LIG A   1      -7.207   6.527 131.902  0.00  0.00    -0.007 C 
ATOM      3  C   LIG A   1      -8.492   6.061 131.158  0.00  0.00    +0.018 C 
ATOM      4  C   LIG A   1      -9.080   7.232 130.336  0.00  0.00    +0.013 C 
ATOM      5  C   LIG A   1     -10.524   6.978 129.919  0.00  0.00    +0.035 C 
ATOM      6  C   LIG A   1      -6.684   5.464 132.882  0.00  0.00    +0.004 C 
ATOM      7  C   LIG A   1      -7.779   5.012 133.842  0.00  0.00    +0.008 C 
ATOM      8  C   LIG A   1      -8.994   4.421 133.108  0.00  0.00    +0.018 C 
ATOM      9  C   LIG A   1      -9.513   5.464 132.125  0.00  0.00    -0.063 C 
ATOM     10  C   LIG A   1     -10.812   5.819 132.121  0.00  0.00    +0.003 C 
ATOM     11  C   LIG A   1     -11.381   6.704 131.127  0.00  0.00    -0.054 C 
ATOM     12  C   LIG A   1     -12.612   7.218 131.268  0.00  0.00    +0.012 C 
ENDROOT
BRANCH   8  13
ATOM     13  C   LIG A   1      -8.712   3.050 132.412  0.00  0.00    -0.010 C 
ATOM     14  C   LIG A   1     -10.009   2.273 132.139  0.00  0.00    +0.008 C 
ATOM     15  C   LIG A   1      -7.777   2.160 133.241  0.00  0.00    +0.008 C 
ENDBRANCH   8  13
TORSDOF 1
ENDMDL
MODEL 7
REMARK VINA RESULT:      -5.9      1.354      4.655
REMARK  Name = NuBBE_2335
REMARK  4 active torsions:
REMARK  status: ('A' for Active; 'I' for Inactive)
REMARK    1  A    between atoms: C_1  and  C_2
REMARK    2  A    between atoms: C_10  and  C_12
REMARK    3  A    between atoms: C_12  and  C_13
REMARK    4  A    between atoms: C_12  and  C_14
REMARK                            x       y       z     vdW  Elec       q    Type
REMARK                         _______ _______ _______ _____ _____    ______ ____
ROOT
ATOM      1  C   LIG A   1      -7.869  -1.248 128.114  0.00  0.00    +0.008 C 
ATOM      2  C   LIG A   1      -8.308  -1.810 126.758  0.00  0.00    -0.007 C 
ATOM      3  C   LIG A   1      -8.020  -0.823 125.591  0.00  0.00    +0.018 C 
ATOM      4  C   LIG A   1      -8.859   0.464 125.768  0.00  0.00    +0.013 C 
ATOM      5  C   LIG A   1      -8.940   1.283 124.485  0.00  0.00    +0.035 C 
ATOM      6  C   LIG A   1      -7.646  -3.181 126.539  0.00  0.00    +0.004 C 
ATOM      7  C   LIG A   1      -8.022  -3.763 125.180  0.00  0.00    +0.008 C 
ATOM      8  C   LIG A   1      -7.609  -2.847 124.017  0.00  0.00    +0.018 C 
ATOM      9  C   LIG A   1      -8.251  -1.481 124.232  0.00  0.00    -0.063 C 
ATOM     10  C   LIG A   1      -8.973  -0.899 123.256  0.00  0.00    +0.003 C 
ATOM     11  C   LIG A   1      -9.492   0.448 123.360  0.00  0.00    -0.054 C 
ATOM     12  C   LIG A   1     -10.388   0.924 122.482  0.00  0.00    +0.012 C 
ENDROOT
BRANCH   8  13
ATOM     13  C   LIG A   1      -6.063  -2.741 123.808  0.00  0.00    -0.010 C 
ATOM     14  C   LIG A   1      -5.715  -2.130 122.442  0.00  0.00    +0.008 C 
ATOM     15  C   LIG A   1      -5.368  -4.103 123.922  0.00  0.00    +0.008 C 
ENDBRANCH   8  13
TORSDOF 1
ENDMDL
MODEL 8
REMARK VINA RESULT:      -5.6      1.825      2.986
REMARK  Name = NuBBE_2335
REMARK  4 active torsions:
REMARK  status: ('A' for Active; 'I' for Inactive)
REMARK    1  A    between atoms: C_1  and  C_2
REMARK    2  A    between atoms: C_10  and  C_12
REMARK    3  A    between atoms: C_12  and  C_13
REMARK    4  A    between atoms: C_12  and  C_14
REMARK                            x       y       z     vdW  Elec       q    Type
REMARK                         _______ _______ _______ _____ _____    ______ ____
ROOT
ATOM      1  C   LIG A   1      -6.862   2.035 124.632  0.00  0.00    +0.008 C 
ATOM      2  C   LIG A   1      -6.471   0.556 124.559  0.00  0.00    -0.007 C 
ATOM      3  C   LIG A   1      -6.807  -0.206 125.873  0.00  0.00    +0.018 C 
ATOM      4  C   LIG A   1      -5.967   0.360 127.042  0.00  0.00    +0.013 C 
ATOM      5  C   LIG A   1      -5.938  -0.579 128.241  0.00  0.00    +0.035 C 
ATOM      6  C   LIG A   1      -7.135  -0.084 123.328  0.00  0.00    +0.004 C 
ATOM      7  C   LIG A   1      -6.807  -1.571 123.237  0.00  0.00    +0.008 C 
ATOM      8  C   LIG A   1      -7.268  -2.349 124.480  0.00  0.00    +0.018 C 
ATOM      9  C   LIG A   1      -6.624  -1.714 125.708  0.00  0.00    -0.063 C 
ATOM     10  C   LIG A   1      -5.941  -2.465 126.592  0.00  0.00    +0.003 C 
ATOM     11  C   LIG A   1      -5.424  -1.936 127.837  0.00  0.00    -0.054 C 
ATOM     12  C   LIG A   1      -4.564  -2.636 128.592  0.00  0.00    +0.012 C 
ENDROOT
BRANCH   8  13
ATOM     13  C   LIG A   1      -8.820  -2.459 124.624  0.00  0.00    -0.010 C 
ATOM     14  C   LIG A   1      -9.223  -3.110 125.956  0.00  0.00    +0.008 C 
ATOM     15  C   LIG A   1      -9.454  -3.259 123.480  0.00  0.00    +0.008 C 
ENDBRANCH   8  13
TORSDOF 1
ENDMDL
MODEL 9
REMARK VINA RESULT:      -5.6      8.939     10.885
REMARK  Name = NuBBE_2335
REMARK  4 active torsions:
REMARK  status: ('A' for Active; 'I' for Inactive)
REMARK    1  A    between atoms: C_1  and  C_2
REMARK    2  A    between atoms: C_10  and  C_12
REMARK    3  A    between atoms: C_12  and  C_13
REMARK    4  A    between atoms: C_12  and  C_14
REMARK                            x       y       z     vdW  Elec       q    Type
REMARK                         _______ _______ _______ _____ _____    ______ ____
ROOT
ATOM      1  C   LIG A   1      -3.609   2.796 133.294  0.00  0.00    +0.008 C 
ATOM      2  C   LIG A   1      -2.743   3.645 132.358  0.00  0.00    -0.007 C 
ATOM      3  C   LIG A   1      -3.527   4.116 131.100  0.00  0.00    +0.018 C 
ATOM      4  C   LIG A   1      -3.939   2.895 130.245  0.00  0.00    +0.013 C 
ATOM      5  C   LIG A   1      -4.340   3.288 128.829  0.00  0.00    +0.035 C 
ATOM      6  C   LIG A   1      -2.147   4.823 133.147  0.00  0.00    +0.004 C 
ATOM      7  C   LIG A   1      -1.308   5.722 132.245  0.00  0.00    +0.008 C 
ATOM      8  C   LIG A   1      -2.123   6.301 131.077  0.00  0.00    +0.018 C 
ATOM      9  C   LIG A   1      -2.729   5.141 130.295  0.00  0.00    -0.063 C 
ATOM     10  C   LIG A   1      -2.565   5.050 128.962  0.00  0.00    +0.003 C 
ATOM     11  C   LIG A   1      -3.225   4.045 128.155  0.00  0.00    -0.054 C 
ATOM     12  C   LIG A   1      -2.878   3.832 126.877  0.00  0.00    +0.012 C 
ENDROOT
BRANCH   8  13
ATOM     13  C   LIG A   1      -3.205   7.344 131.509  0.00  0.00    -0.010 C 
ATOM     14  C   LIG A   1      -3.849   8.032 130.296  0.00  0.00    +0.008 C 
ATOM     15  C   LIG A   1      -2.631   8.425 132.433  0.00  0.00    +0.008 C 
ENDBRANCH   8  13
TORSDOF 1
ENDMDL
