MODEL 1
REMARK VINA RESULT:      -8.1      0.000      0.000
REMARK  Name = NuBBE_1412
REMARK  6 active torsions:
REMARK  status: ('A' for Active; 'I' for Inactive)
REMARK    1  A    between atoms: C_5  and  O_6
REMARK    2  A    between atoms: O_6  and  C_7
REMARK    3  A    between atoms: C_8  and  O_9
REMARK    4  A    between atoms: O_9  and  C_10
REMARK    5  A    between atoms: C_22  and  C_23
REMARK    6  A    between atoms: C_23  and  C_24
REMARK                            x       y       z     vdW  Elec       q    Type
REMARK                         _______ _______ _______ _____ _____    ______ ____
ROOT
ATOM      1  O   LIG A   1      -4.980  -2.339 128.710  0.00  0.00    -0.287 OA
ATOM      2  C   LIG A   1      -5.994  -2.265 129.396  0.00  0.00    +0.221 C 
ATOM      3  C   LIG A   1      -6.024  -2.852 130.743  0.00  0.00    +0.067 A 
ATOM      4  C   LIG A   1      -5.056  -3.790 131.103  0.00  0.00    +0.064 A 
ATOM      5  C   LIG A   1      -5.148  -4.445 132.332  0.00  0.00    +0.162 A 
ATOM      6  C   LIG A   1      -6.215  -4.136 133.201  0.00  0.00    +0.165 A 
ATOM      7  C   LIG A   1      -7.151  -3.157 132.842  0.00  0.00    +0.095 A 
ATOM      8  C   LIG A   1      -7.061  -2.516 131.607  0.00  0.00    +0.135 A 
ATOM      9  O   LIG A   1      -8.048  -1.615 131.316  0.00  0.00    -0.486 OA
ATOM     10  C   LIG A   1      -7.863  -0.860 130.111  0.00  0.00    +0.293 C 
ATOM     11  C   LIG A   1      -7.294  -1.655 128.941  0.00  0.00    +0.267 C 
ATOM     12  O   LIG A   1      -7.050  -0.759 127.824  0.00  0.00    -0.465 OA
ATOM     13  C   LIG A   1      -8.261  -2.733 128.436  0.00  0.00    +0.221 C 
ATOM     14  C   LIG A   1      -8.394  -2.519 127.033  0.00  0.00    +0.064 A 
ATOM     15  C   LIG A   1      -7.661  -1.374 126.759  0.00  0.00    +0.140 A 
ATOM     16  C   LIG A   1      -7.612  -0.973 125.440  0.00  0.00    +0.040 A 
ATOM     17  C   LIG A   1      -6.950   0.122 124.723  0.00  0.00    +0.091 C 
ATOM     18  C   LIG A   1      -7.765   0.094 123.406  0.00  0.00    +0.203 C 
ATOM     19  O   LIG A   1      -8.328  -1.255 123.275  0.00  0.00    -0.484 OA
ATOM     20  C   LIG A   1      -8.371  -1.761 124.570  0.00  0.00    +0.128 A 
ATOM     21  C   LIG A   1      -9.093  -2.912 124.840  0.00  0.00    +0.047 A 
ATOM     22  C   LIG A   1      -9.105  -3.320 126.152  0.00  0.00    +0.019 A 
ATOM     23  O   LIG A   1      -8.759  -3.607 129.143  0.00  0.00    -0.287 OA
ENDROOT
BRANCH  18  24
ATOM     24  C   LIG A   1      -8.916   1.089 123.252  0.00  0.00    -0.040 C 
ATOM     25  C   LIG A   1     -10.107   0.558 122.497  0.00  0.00    +0.042 C 
ATOM     26  C   LIG A   1      -8.934   2.346 123.731  0.00  0.00    +0.011 C 
ENDBRANCH  18  24
BRANCH   5  27
ATOM     27  O   LIG A   1      -4.273  -5.418 132.745  0.00  0.00    -0.491 OA
ATOM     28  C   LIG A   1      -3.057  -4.980 133.344  0.00  0.00    +0.277 C 
ENDBRANCH   5  27
BRANCH   6  29
ATOM     29  O   LIG A   1      -6.254  -4.808 134.398  0.00  0.00    -0.491 OA
ATOM     30  C   LIG A   1      -7.469  -4.698 135.131  0.00  0.00    +0.277 C 
ENDBRANCH   6  29
TORSDOF 3
ENDMDL
MODEL 2
REMARK VINA RESULT:      -8.0      3.926      7.726
REMARK  Name = NuBBE_1412
REMARK  6 active torsions:
REMARK  status: ('A' for Active; 'I' for Inactive)
REMARK    1  A    between atoms: C_5  and  O_6
REMARK    2  A    between atoms: O_6  and  C_7
REMARK    3  A    between atoms: C_8  and  O_9
REMARK    4  A    between atoms: O_9  and  C_10
REMARK    5  A    between atoms: C_22  and  C_23
REMARK    6  A    between atoms: C_23  and  C_24
REMARK                            x       y       z     vdW  Elec       q    Type
REMARK                         _______ _______ _______ _____ _____    ______ ____
ROOT
ATOM      1  O   LIG A   1      -9.269   0.935 126.218  0.00  0.00    -0.287 OA
ATOM      2  C   LIG A   1      -8.139   0.569 126.527  0.00  0.00    +0.221 C 
ATOM      3  C   LIG A   1      -7.504  -0.554 125.823  0.00  0.00    +0.067 A 
ATOM      4  C   LIG A   1      -8.293  -1.426 125.071  0.00  0.00    +0.064 A 
ATOM      5  C   LIG A   1      -7.720  -2.564 124.503  0.00  0.00    +0.162 A 
ATOM      6  C   LIG A   1      -6.344  -2.809 124.685  0.00  0.00    +0.165 A 
ATOM      7  C   LIG A   1      -5.558  -1.897 125.404  0.00  0.00    +0.095 A 
ATOM      8  C   LIG A   1      -6.139  -0.769 125.980  0.00  0.00    +0.135 A 
ATOM      9  O   LIG A   1      -5.309   0.037 126.710  0.00  0.00    -0.486 OA
ATOM     10  C   LIG A   1      -5.886   1.265 127.173  0.00  0.00    +0.293 C 
ATOM     11  C   LIG A   1      -7.328   1.151 127.655  0.00  0.00    +0.267 C 
ATOM     12  O   LIG A   1      -7.830   2.472 127.988  0.00  0.00    -0.465 OA
ATOM     13  C   LIG A   1      -7.460   0.298 128.923  0.00  0.00    +0.221 C 
ATOM     14  C   LIG A   1      -8.177   1.094 129.862  0.00  0.00    +0.064 A 
ATOM     15  C   LIG A   1      -8.361   2.323 129.247  0.00  0.00    +0.140 A 
ATOM     16  C   LIG A   1      -9.067   3.272 129.957  0.00  0.00    +0.040 A 
ATOM     17  C   LIG A   1      -9.506   4.644 129.685  0.00  0.00    +0.091 C 
ATOM     18  C   LIG A   1      -9.822   5.103 131.129  0.00  0.00    +0.203 C 
ATOM     19  O   LIG A   1     -10.091   3.894 131.918  0.00  0.00    -0.484 OA
ATOM     20  C   LIG A   1      -9.447   2.864 131.240  0.00  0.00    +0.128 A 
ATOM     21  C   LIG A   1      -9.276   1.633 131.851  0.00  0.00    +0.047 A 
ATOM     22  C   LIG A   1      -8.601   0.687 131.118  0.00  0.00    +0.019 A 
ATOM     23  O   LIG A   1      -7.043  -0.853 129.033  0.00  0.00    -0.287 OA
ENDROOT
BRANCH  18  24
ATOM     24  C   LIG A   1      -8.760   5.910 131.876  0.00  0.00    -0.040 C 
ATOM     25  C   LIG A   1      -7.988   6.879 131.015  0.00  0.00    +0.042 C 
ATOM     26  C   LIG A   1      -8.486   5.820 133.190  0.00  0.00    +0.011 C 
ENDBRANCH  18  24
BRANCH   5  27
ATOM     27  O   LIG A   1      -8.428  -3.502 123.794  0.00  0.00    -0.491 OA
ATOM     28  C   LIG A   1      -9.694  -3.100 123.278  0.00  0.00    +0.277 C 
ENDBRANCH   5  27
BRANCH   6  29
ATOM     29  O   LIG A   1      -5.833  -3.942 124.101  0.00  0.00    -0.491 OA
ATOM     30  C   LIG A   1      -4.495  -3.843 123.622  0.00  0.00    +0.277 C 
ENDBRANCH   6  29
TORSDOF 3
ENDMDL
MODEL 3
REMARK VINA RESULT:      -7.9      5.040      8.816
REMARK  Name = NuBBE_1412
REMARK  6 active torsions:
REMARK  status: ('A' for Active; 'I' for Inactive)
REMARK    1  A    between atoms: C_5  and  O_6
REMARK    2  A    between atoms: O_6  and  C_7
REMARK    3  A    between atoms: C_8  and  O_9
REMARK    4  A    between atoms: O_9  and  C_10
REMARK    5  A    between atoms: C_22  and  C_23
REMARK    6  A    between atoms: C_23  and  C_24
REMARK                            x       y       z     vdW  Elec       q    Type
REMARK                         _______ _______ _______ _____ _____    ______ ____
ROOT
ATOM      1  O   LIG A   1     -10.282   2.092 131.236  0.00  0.00    -0.287 OA
ATOM      2  C   LIG A   1      -9.436   2.806 130.708  0.00  0.00    +0.221 C 
ATOM      3  C   LIG A   1      -9.711   4.229 130.466  0.00  0.00    +0.067 A 
ATOM      4  C   LIG A   1     -11.029   4.687 130.495  0.00  0.00    +0.064 A 
ATOM      5  C   LIG A   1     -11.313   6.007 130.144  0.00  0.00    +0.162 A 
ATOM      6  C   LIG A   1     -10.258   6.866 129.778  0.00  0.00    +0.165 A 
ATOM      7  C   LIG A   1      -8.935   6.402 129.800  0.00  0.00    +0.095 A 
ATOM      8  C   LIG A   1      -8.659   5.079 130.138  0.00  0.00    +0.135 A 
ATOM      9  O   LIG A   1      -7.347   4.696 130.080  0.00  0.00    -0.486 OA
ATOM     10  C   LIG A   1      -7.063   3.379 130.569  0.00  0.00    +0.293 C 
ATOM     11  C   LIG A   1      -8.100   2.324 130.204  0.00  0.00    +0.267 C 
ATOM     12  O   LIG A   1      -7.758   1.068 130.848  0.00  0.00    -0.465 OA
ATOM     13  C   LIG A   1      -8.150   2.045 128.697  0.00  0.00    +0.221 C 
ATOM     14  C   LIG A   1      -8.010   0.634 128.551  0.00  0.00    +0.064 A 
ATOM     15  C   LIG A   1      -7.799   0.146 129.831  0.00  0.00    +0.140 A 
ATOM     16  C   LIG A   1      -7.661  -1.221 129.957  0.00  0.00    +0.040 A 
ATOM     17  C   LIG A   1      -7.463  -2.135 131.086  0.00  0.00    +0.091 C 
ATOM     18  C   LIG A   1      -6.977  -3.389 130.319  0.00  0.00    +0.203 C 
ATOM     19  O   LIG A   1      -7.479  -3.276 128.944  0.00  0.00    -0.484 OA
ATOM     20  C   LIG A   1      -7.695  -1.916 128.744  0.00  0.00    +0.128 A 
ATOM     21  C   LIG A   1      -7.918  -1.432 127.466  0.00  0.00    +0.047 A 
ATOM     22  C   LIG A   1      -8.088  -0.072 127.360  0.00  0.00    +0.019 A 
ATOM     23  O   LIG A   1      -8.320   2.906 127.835  0.00  0.00    -0.287 OA
ENDROOT
BRANCH  18  24
ATOM     24  C   LIG A   1      -5.471  -3.643 130.238  0.00  0.00    -0.040 C 
ATOM     25  C   LIG A   1      -4.894  -4.374 131.423  0.00  0.00    +0.042 C 
ATOM     26  C   LIG A   1      -4.669  -3.278 129.222  0.00  0.00    +0.011 C 
ENDBRANCH  18  24
BRANCH   5  27
ATOM     27  O   LIG A   1     -12.582   6.527 130.094  0.00  0.00    -0.491 OA
ATOM     28  C   LIG A   1     -13.025   7.260 131.232  0.00  0.00    +0.277 C 
ENDBRANCH   5  27
BRANCH   6  29
ATOM     29  O   LIG A   1     -10.595   8.156 129.446  0.00  0.00    -0.491 OA
ATOM     30  C   LIG A   1     -10.557   8.467 128.057  0.00  0.00    +0.277 C 
ENDBRANCH   6  29
TORSDOF 3
ENDMDL
MODEL 4
REMARK VINA RESULT:      -7.7      1.797      8.679
REMARK  Name = NuBBE_1412
REMARK  6 active torsions:
REMARK  status: ('A' for Active; 'I' for Inactive)
REMARK    1  A    between atoms: C_5  and  O_6
REMARK    2  A    between atoms: O_6  and  C_7
REMARK    3  A    between atoms: C_8  and  O_9
REMARK    4  A    between atoms: O_9  and  C_10
REMARK    5  A    between atoms: C_22  and  C_23
REMARK    6  A    between atoms: C_23  and  C_24
REMARK                            x       y       z     vdW  Elec       q    Type
REMARK                         _______ _______ _______ _____ _____    ______ ____
ROOT
ATOM      1  O   LIG A   1      -8.873  -3.328 129.286  0.00  0.00    -0.287 OA
ATOM      2  C   LIG A   1      -7.826  -2.759 128.998  0.00  0.00    +0.221 C 
ATOM      3  C   LIG A   1      -7.472  -2.523 127.591  0.00  0.00    +0.067 A 
ATOM      4  C   LIG A   1      -8.123  -3.245 126.590  0.00  0.00    +0.064 A 
ATOM      5  C   LIG A   1      -7.708  -3.120 125.263  0.00  0.00    +0.162 A 
ATOM      6  C   LIG A   1      -6.643  -2.251 124.952  0.00  0.00    +0.165 A 
ATOM      7  C   LIG A   1      -6.032  -1.498 125.965  0.00  0.00    +0.095 A 
ATOM      8  C   LIG A   1      -6.442  -1.637 127.289  0.00  0.00    +0.135 A 
ATOM      9  O   LIG A   1      -5.755  -0.907 128.219  0.00  0.00    -0.486 OA
ATOM     10  C   LIG A   1      -6.279  -0.948 129.552  0.00  0.00    +0.293 C 
ATOM     11  C   LIG A   1      -6.788  -2.315 129.996  0.00  0.00    +0.267 C 
ATOM     12  O   LIG A   1      -7.392  -2.200 131.312  0.00  0.00    -0.465 OA
ATOM     13  C   LIG A   1      -5.664  -3.351 130.118  0.00  0.00    +0.221 C 
ATOM     14  C   LIG A   1      -5.777  -3.906 131.426  0.00  0.00    +0.064 A 
ATOM     15  C   LIG A   1      -6.798  -3.200 132.044  0.00  0.00    +0.140 A 
ATOM     16  C   LIG A   1      -7.122  -3.578 133.330  0.00  0.00    +0.040 A 
ATOM     17  C   LIG A   1      -8.122  -3.141 134.310  0.00  0.00    +0.091 C 
ATOM     18  C   LIG A   1      -7.510  -3.757 135.592  0.00  0.00    +0.203 C 
ATOM     19  O   LIG A   1      -6.656  -4.874 135.169  0.00  0.00    -0.484 OA
ATOM     20  C   LIG A   1      -6.317  -4.596 133.850  0.00  0.00    +0.128 A 
ATOM     21  C   LIG A   1      -5.305  -5.312 133.230  0.00  0.00    +0.047 A 
ATOM     22  C   LIG A   1      -5.017  -4.947 131.936  0.00  0.00    +0.019 A 
ATOM     23  O   LIG A   1      -4.876  -3.632 129.217  0.00  0.00    -0.287 OA
ENDROOT
BRANCH  18  24
ATOM     24  C   LIG A   1      -6.670  -2.852 136.493  0.00  0.00    -0.040 C 
ATOM     25  C   LIG A   1      -6.262  -1.544 135.864  0.00  0.00    +0.042 C 
ATOM     26  C   LIG A   1      -6.294  -3.133 137.754  0.00  0.00    +0.011 C 
ENDBRANCH  18  24
BRANCH   5  27
ATOM     27  O   LIG A   1      -8.255  -3.829 124.224  0.00  0.00    -0.491 OA
ATOM     28  C   LIG A   1      -9.479  -3.342 123.683  0.00  0.00    +0.277 C 
ENDBRANCH   5  27
BRANCH   6  29
ATOM     29  O   LIG A   1      -6.280  -2.164 123.630  0.00  0.00    -0.491 OA
ATOM     30  C   LIG A   1      -6.641  -0.958 122.966  0.00  0.00    +0.277 C 
ENDBRANCH   6  29
TORSDOF 3
ENDMDL
MODEL 5
REMARK VINA RESULT:      -7.7      5.551      7.962
REMARK  Name = NuBBE_1412
REMARK  6 active torsions:
REMARK  status: ('A' for Active; 'I' for Inactive)
REMARK    1  A    between atoms: C_5  and  O_6
REMARK    2  A    between atoms: O_6  and  C_7
REMARK    3  A    between atoms: C_8  and  O_9
REMARK    4  A    between atoms: O_9  and  C_10
REMARK    5  A    between atoms: C_22  and  C_23
REMARK    6  A    between atoms: C_23  and  C_24
REMARK                            x       y       z     vdW  Elec       q    Type
REMARK                         _______ _______ _______ _____ _____    ______ ____
ROOT
ATOM      1  O   LIG A   1      -5.552   2.244 129.208  0.00  0.00    -0.287 OA
ATOM      2  C   LIG A   1      -4.837   2.963 128.517  0.00  0.00    +0.221 C 
ATOM      3  C   LIG A   1      -4.385   4.267 129.022  0.00  0.00    +0.067 A 
ATOM      4  C   LIG A   1      -5.043   4.847 130.107  0.00  0.00    +0.064 A 
ATOM      5  C   LIG A   1      -4.704   6.138 130.514  0.00  0.00    +0.162 A 
ATOM      6  C   LIG A   1      -3.688   6.833 129.829  0.00  0.00    +0.165 A 
ATOM      7  C   LIG A   1      -3.006   6.216 128.770  0.00  0.00    +0.095 A 
ATOM      8  C   LIG A   1      -3.358   4.932 128.360  0.00  0.00    +0.135 A 
ATOM      9  O   LIG A   1      -2.679   4.429 127.284  0.00  0.00    -0.486 OA
ATOM     10  C   LIG A   1      -2.949   3.058 126.966  0.00  0.00    +0.293 C 
ATOM     11  C   LIG A   1      -4.410   2.646 127.107  0.00  0.00    +0.267 C 
ATOM     12  O   LIG A   1      -4.532   1.218 126.868  0.00  0.00    -0.465 OA
ATOM     13  C   LIG A   1      -5.319   3.341 126.087  0.00  0.00    +0.221 C 
ATOM     14  C   LIG A   1      -6.046   2.304 125.433  0.00  0.00    +0.064 A 
ATOM     15  C   LIG A   1      -5.544   1.117 125.944  0.00  0.00    +0.140 A 
ATOM     16  C   LIG A   1      -6.117  -0.048 125.478  0.00  0.00    +0.040 A 
ATOM     17  C   LIG A   1      -5.923  -1.474 125.763  0.00  0.00    +0.091 C 
ATOM     18  C   LIG A   1      -6.625  -2.079 124.522  0.00  0.00    +0.203 C 
ATOM     19  O   LIG A   1      -7.575  -1.075 124.030  0.00  0.00    -0.484 OA
ATOM     20  C   LIG A   1      -7.096   0.144 124.499  0.00  0.00    +0.128 A 
ATOM     21  C   LIG A   1      -7.608   1.329 123.997  0.00  0.00    +0.047 A 
ATOM     22  C   LIG A   1      -7.051   2.482 124.495  0.00  0.00    +0.019 A 
ATOM     23  O   LIG A   1      -5.393   4.559 125.938  0.00  0.00    -0.287 OA
ENDROOT
BRANCH  18  24
ATOM     24  C   LIG A   1      -5.753  -2.504 123.340  0.00  0.00    -0.040 C 
ATOM     25  C   LIG A   1      -4.626  -3.440 123.695  0.00  0.00    +0.042 C 
ATOM     26  C   LIG A   1      -5.924  -2.119 122.062  0.00  0.00    +0.011 C 
ENDBRANCH  18  24
BRANCH   5  27
ATOM     27  O   LIG A   1      -5.332   6.805 131.536  0.00  0.00    -0.491 OA
ATOM     28  C   LIG A   1      -6.649   6.379 131.872  0.00  0.00    +0.277 C 
ENDBRANCH   5  27
BRANCH   6  29
ATOM     29  O   LIG A   1      -3.393   8.099 130.275  0.00  0.00    -0.491 OA
ATOM     30  C   LIG A   1      -3.917   9.168 129.493  0.00  0.00    +0.277 C 
ENDBRANCH   6  29
TORSDOF 3
ENDMDL
MODEL 6
REMARK VINA RESULT:      -7.6      1.881      2.303
REMARK  Name = NuBBE_1412
REMARK  6 active torsions:
REMARK  status: ('A' for Active; 'I' for Inactive)
REMARK    1  A    between atoms: C_5  and  O_6
REMARK    2  A    between atoms: O_6  and  C_7
REMARK    3  A    between atoms: C_8  and  O_9
REMARK    4  A    between atoms: O_9  and  C_10
REMARK    5  A    between atoms: C_22  and  C_23
REMARK    6  A    between atoms: C_23  and  C_24
REMARK                            x       y       z     vdW  Elec       q    Type
REMARK                         _______ _______ _______ _____ _____    ______ ____
ROOT
ATOM      1  O   LIG A   1      -3.833  -3.634 129.233  0.00  0.00    -0.287 OA
ATOM      2  C   LIG A   1      -4.479  -2.859 129.930  0.00  0.00    +0.221 C 
ATOM      3  C   LIG A   1      -4.300  -2.847 131.389  0.00  0.00    +0.067 A 
ATOM      4  C   LIG A   1      -3.685  -3.934 132.013  0.00  0.00    +0.064 A 
ATOM      5  C   LIG A   1      -3.623  -3.990 133.406  0.00  0.00    +0.162 A 
ATOM      6  C   LIG A   1      -4.171  -2.935 134.164  0.00  0.00    +0.165 A 
ATOM      7  C   LIG A   1      -4.742  -1.829 133.519  0.00  0.00    +0.095 A 
ATOM      8  C   LIG A   1      -4.814  -1.786 132.128  0.00  0.00    +0.135 A 
ATOM      9  O   LIG A   1      -5.436  -0.696 131.584  0.00  0.00    -0.486 OA
ATOM     10  C   LIG A   1      -5.374  -0.594 130.156  0.00  0.00    +0.293 C 
ATOM     11  C   LIG A   1      -5.534  -1.916 129.414  0.00  0.00    +0.267 C 
ATOM     12  O   LIG A   1      -5.340  -1.696 127.991  0.00  0.00    -0.465 OA
ATOM     13  C   LIG A   1      -6.936  -2.517 129.578  0.00  0.00    +0.221 C 
ATOM     14  C   LIG A   1      -7.413  -2.775 128.260  0.00  0.00    +0.064 A 
ATOM     15  C   LIG A   1      -6.436  -2.285 127.407  0.00  0.00    +0.140 A 
ATOM     16  C   LIG A   1      -6.657  -2.447 126.055  0.00  0.00    +0.040 A 
ATOM     17  C   LIG A   1      -5.899  -2.120 124.843  0.00  0.00    +0.091 C 
ATOM     18  C   LIG A   1      -7.034  -2.225 123.795  0.00  0.00    +0.203 C 
ATOM     19  O   LIG A   1      -8.065  -3.102 124.362  0.00  0.00    -0.484 OA
ATOM     20  C   LIG A   1      -7.884  -3.037 125.739  0.00  0.00    +0.128 A 
ATOM     21  C   LIG A   1      -8.856  -3.539 126.590  0.00  0.00    +0.047 A 
ATOM     22  C   LIG A   1      -8.606  -3.402 127.935  0.00  0.00    +0.019 A 
ATOM     23  O   LIG A   1      -7.473  -2.744 130.660  0.00  0.00    -0.287 OA
ENDROOT
BRANCH  18  24
ATOM     24  C   LIG A   1      -7.724  -0.935 123.350  0.00  0.00    -0.040 C 
ATOM     25  C   LIG A   1      -9.133  -1.117 122.848  0.00  0.00    +0.042 C 
ATOM     26  C   LIG A   1      -7.180   0.296 123.383  0.00  0.00    +0.011 C 
ENDBRANCH  18  24
BRANCH   5  27
ATOM     27  O   LIG A   1      -3.085  -5.042 134.103  0.00  0.00    -0.491 OA
ATOM     28  C   LIG A   1      -3.798  -6.274 134.064  0.00  0.00    +0.277 C 
ENDBRANCH   5  27
BRANCH   6  29
ATOM     29  O   LIG A   1      -4.078  -3.041 135.530  0.00  0.00    -0.491 OA
ATOM     30  C   LIG A   1      -3.251  -2.075 136.172  0.00  0.00    +0.277 C 
ENDBRANCH   6  29
TORSDOF 3
ENDMDL
MODEL 7
REMARK VINA RESULT:      -7.6      4.904      8.292
REMARK  Name = NuBBE_1412
REMARK  6 active torsions:
REMARK  status: ('A' for Active; 'I' for Inactive)
REMARK    1  A    between atoms: C_5  and  O_6
REMARK    2  A    between atoms: O_6  and  C_7
REMARK    3  A    between atoms: C_8  and  O_9
REMARK    4  A    between atoms: O_9  and  C_10
REMARK    5  A    between atoms: C_22  and  C_23
REMARK    6  A    between atoms: C_23  and  C_24
REMARK                            x       y       z     vdW  Elec       q    Type
REMARK                         _______ _______ _______ _____ _____    ______ ____
ROOT
ATOM      1  O   LIG A   1      -5.198  -0.329 128.206  0.00  0.00    -0.287 OA
ATOM      2  C   LIG A   1      -5.985   0.244 127.461  0.00  0.00    +0.221 C 
ATOM      3  C   LIG A   1      -6.653  -0.491 126.378  0.00  0.00    +0.067 A 
ATOM      4  C   LIG A   1      -6.139  -1.721 125.966  0.00  0.00    +0.064 A 
ATOM      5  C   LIG A   1      -6.689  -2.367 124.858  0.00  0.00    +0.162 A 
ATOM      6  C   LIG A   1      -7.771  -1.772 124.178  0.00  0.00    +0.165 A 
ATOM      7  C   LIG A   1      -8.305  -0.559 124.636  0.00  0.00    +0.095 A 
ATOM      8  C   LIG A   1      -7.742   0.088 125.734  0.00  0.00    +0.135 A 
ATOM      9  O   LIG A   1      -8.290   1.293 126.078  0.00  0.00    -0.486 OA
ATOM     10  C   LIG A   1      -7.800   1.875 127.292  0.00  0.00    +0.293 C 
ATOM     11  C   LIG A   1      -6.300   1.716 127.515  0.00  0.00    +0.267 C 
ATOM     12  O   LIG A   1      -5.949   2.244 128.822  0.00  0.00    -0.465 OA
ATOM     13  C   LIG A   1      -5.467   2.495 126.490  0.00  0.00    +0.221 C 
ATOM     14  C   LIG A   1      -4.563   3.299 127.243  0.00  0.00    +0.064 A 
ATOM     15  C   LIG A   1      -4.897   3.091 128.573  0.00  0.00    +0.140 A 
ATOM     16  C   LIG A   1      -4.132   3.750 129.513  0.00  0.00    +0.040 A 
ATOM     17  C   LIG A   1      -4.116   3.790 130.979  0.00  0.00    +0.091 C 
ATOM     18  C   LIG A   1      -3.278   5.075 131.190  0.00  0.00    +0.203 C 
ATOM     19  O   LIG A   1      -2.474   5.271 129.977  0.00  0.00    -0.484 OA
ATOM     20  C   LIG A   1      -3.155   4.591 128.973  0.00  0.00    +0.128 A 
ATOM     21  C   LIG A   1      -2.811   4.790 127.646  0.00  0.00    +0.047 A 
ATOM     22  C   LIG A   1      -3.559   4.101 126.722  0.00  0.00    +0.019 A 
ATOM     23  O   LIG A   1      -5.576   2.376 125.271  0.00  0.00    -0.287 OA
ENDROOT
BRANCH  18  24
ATOM     24  C   LIG A   1      -4.024   6.383 131.461  0.00  0.00    -0.040 C 
ATOM     25  C   LIG A   1      -3.172   7.622 131.366  0.00  0.00    +0.042 C 
ATOM     26  C   LIG A   1      -5.332   6.491 131.758  0.00  0.00    +0.011 C 
ENDBRANCH  18  24
BRANCH   5  27
ATOM     27  O   LIG A   1      -6.214  -3.551 124.352  0.00  0.00    -0.491 OA
ATOM     28  C   LIG A   1      -4.885  -3.548 123.839  0.00  0.00    +0.277 C 
ENDBRANCH   5  27
BRANCH   6  29
ATOM     29  O   LIG A   1      -8.274  -2.453 123.098  0.00  0.00    -0.491 OA
ATOM     30  C   LIG A   1      -9.489  -3.161 123.323  0.00  0.00    +0.277 C 
ENDBRANCH   6  29
TORSDOF 3
ENDMDL
MODEL 8
REMARK VINA RESULT:      -7.4      6.078     10.230
REMARK  Name = NuBBE_1412
REMARK  6 active torsions:
REMARK  status: ('A' for Active; 'I' for Inactive)
REMARK    1  A    between atoms: C_5  and  O_6
REMARK    2  A    between atoms: O_6  and  C_7
REMARK    3  A    between atoms: C_8  and  O_9
REMARK    4  A    between atoms: O_9  and  C_10
REMARK    5  A    between atoms: C_22  and  C_23
REMARK    6  A    between atoms: C_23  and  C_24
REMARK                            x       y       z     vdW  Elec       q    Type
REMARK                         _______ _______ _______ _____ _____    ______ ____
ROOT
ATOM      1  O   LIG A   1      -5.815   5.491 125.741  0.00  0.00    -0.287 OA
ATOM      2  C   LIG A   1      -5.738   4.306 126.051  0.00  0.00    +0.221 C 
ATOM      3  C   LIG A   1      -6.372   3.277 125.214  0.00  0.00    +0.067 A 
ATOM      4  C   LIG A   1      -7.349   3.651 124.290  0.00  0.00    +0.064 A 
ATOM      5  C   LIG A   1      -8.044   2.671 123.582  0.00  0.00    +0.162 A 
ATOM      6  C   LIG A   1      -7.738   1.312 123.801  0.00  0.00    +0.165 A 
ATOM      7  C   LIG A   1      -6.720   0.958 124.698  0.00  0.00    +0.095 A 
ATOM      8  C   LIG A   1      -6.039   1.941 125.413  0.00  0.00    +0.135 A 
ATOM      9  O   LIG A   1      -5.101   1.503 126.307  0.00  0.00    -0.486 OA
ATOM     10  C   LIG A   1      -4.309   2.525 126.926  0.00  0.00    +0.293 C 
ATOM     11  C   LIG A   1      -5.077   3.788 127.301  0.00  0.00    +0.267 C 
ATOM     12  O   LIG A   1      -4.148   4.782 127.812  0.00  0.00    -0.465 OA
ATOM     13  C   LIG A   1      -6.109   3.543 128.408  0.00  0.00    +0.221 C 
ATOM     14  C   LIG A   1      -5.842   4.510 129.420  0.00  0.00    +0.064 A 
ATOM     15  C   LIG A   1      -4.709   5.188 128.999  0.00  0.00    +0.140 A 
ATOM     16  C   LIG A   1      -4.262   6.210 129.810  0.00  0.00    +0.040 A 
ATOM     17  C   LIG A   1      -3.160   7.176 129.734  0.00  0.00    +0.091 C 
ATOM     18  C   LIG A   1      -3.119   7.632 131.213  0.00  0.00    +0.203 C 
ATOM     19  O   LIG A   1      -4.446   7.372 131.783  0.00  0.00    -0.484 OA
ATOM     20  C   LIG A   1      -4.997   6.374 130.987  0.00  0.00    +0.128 A 
ATOM     21  C   LIG A   1      -6.137   5.706 131.404  0.00  0.00    +0.047 A 
ATOM     22  C   LIG A   1      -6.591   4.713 130.569  0.00  0.00    +0.019 A 
ATOM     23  O   LIG A   1      -6.994   2.690 128.358  0.00  0.00    -0.287 OA
ENDROOT
BRANCH  18  24
ATOM     24  C   LIG A   1      -2.088   6.982 132.137  0.00  0.00    -0.040 C 
ATOM     25  C   LIG A   1      -2.459   6.994 133.598  0.00  0.00    +0.042 C 
ATOM     26  C   LIG A   1      -0.929   6.421 131.747  0.00  0.00    +0.011 C 
ENDBRANCH  18  24
BRANCH   5  27
ATOM     27  O   LIG A   1      -9.054   2.944 122.694  0.00  0.00    -0.491 OA
ATOM     28  C   LIG A   1      -8.672   3.424 121.409  0.00  0.00    +0.277 C 
ENDBRANCH   5  27
BRANCH   6  29
ATOM     29  O   LIG A   1      -8.451   0.391 123.073  0.00  0.00    -0.491 OA
ATOM     30  C   LIG A   1      -8.761  -0.824 123.748  0.00  0.00    +0.277 C 
ENDBRANCH   6  29
TORSDOF 3
ENDMDL
MODEL 9
REMARK VINA RESULT:      -7.4      9.651     12.020
REMARK  Name = NuBBE_1412
REMARK  6 active torsions:
REMARK  status: ('A' for Active; 'I' for Inactive)
REMARK    1  A    between atoms: C_5  and  O_6
REMARK    2  A    between atoms: O_6  and  C_7
REMARK    3  A    between atoms: C_8  and  O_9
REMARK    4  A    between atoms: O_9  and  C_10
REMARK    5  A    between atoms: C_22  and  C_23
REMARK    6  A    between atoms: C_23  and  C_24
REMARK                            x       y       z     vdW  Elec       q    Type
REMARK                         _______ _______ _______ _____ _____    ______ ____
ROOT
ATOM      1  O   LIG A   1      -5.638   6.660 132.205  0.00  0.00    -0.287 OA
ATOM      2  C   LIG A   1      -5.126   6.297 131.151  0.00  0.00    +0.221 C 
ATOM      3  C   LIG A   1      -5.719   5.197 130.378  0.00  0.00    +0.067 A 
ATOM      4  C   LIG A   1      -6.628   4.336 130.996  0.00  0.00    +0.064 A 
ATOM      5  C   LIG A   1      -7.100   3.217 130.310  0.00  0.00    +0.162 A 
ATOM      6  C   LIG A   1      -6.661   2.980 128.991  0.00  0.00    +0.165 A 
ATOM      7  C   LIG A   1      -5.785   3.881 128.370  0.00  0.00    +0.095 A 
ATOM      8  C   LIG A   1      -5.306   4.989 129.066  0.00  0.00    +0.135 A 
ATOM      9  O   LIG A   1      -4.413   5.785 128.402  0.00  0.00    -0.486 OA
ATOM     10  C   LIG A   1      -4.042   6.996 129.074  0.00  0.00    +0.293 C 
ATOM     11  C   LIG A   1      -3.850   6.858 130.580  0.00  0.00    +0.267 C 
ATOM     12  O   LIG A   1      -3.590   8.166 131.154  0.00  0.00    -0.465 OA
ATOM     13  C   LIG A   1      -2.650   5.974 130.941  0.00  0.00    +0.221 C 
ATOM     14  C   LIG A   1      -1.849   6.741 131.836  0.00  0.00    +0.064 A 
ATOM     15  C   LIG A   1      -2.461   7.982 131.914  0.00  0.00    +0.140 A 
ATOM     16  C   LIG A   1      -1.879   8.907 132.756  0.00  0.00    +0.040 A 
ATOM     17  C   LIG A   1      -2.200  10.282 133.153  0.00  0.00    +0.091 C 
ATOM     18  C   LIG A   1      -0.834  10.703 133.747  0.00  0.00    +0.203 C 
ATOM     19  O   LIG A   1      -0.139   9.473 134.146  0.00  0.00    -0.484 OA
ATOM     20  C   LIG A   1      -0.703   8.466 133.371  0.00  0.00    +0.128 A 
ATOM     21  C   LIG A   1      -0.097   7.222 133.304  0.00  0.00    +0.047 A 
ATOM     22  C   LIG A   1      -0.708   6.299 132.488  0.00  0.00    +0.019 A 
ATOM     23  O   LIG A   1      -2.487   4.824 130.538  0.00  0.00    -0.287 OA
ENDROOT
BRANCH  18  24
ATOM     24  C   LIG A   1       0.121  11.501 132.858  0.00  0.00    -0.040 C 
ATOM     25  C   LIG A   1      -0.552  12.508 131.961  0.00  0.00    +0.042 C 
ATOM     26  C   LIG A   1       1.459  11.372 132.832  0.00  0.00    +0.011 C 
ENDBRANCH  18  24
BRANCH   5  27
ATOM     27  O   LIG A   1      -7.953   2.291 130.856  0.00  0.00    -0.491 OA
ATOM     28  C   LIG A   1      -9.282   2.721 131.131  0.00  0.00    +0.277 C 
ENDBRANCH   5  27
BRANCH   6  29
ATOM     29  O   LIG A   1      -7.161   1.866 128.363  0.00  0.00    -0.491 OA
ATOM     30  C   LIG A   1      -8.081   2.112 127.304  0.00  0.00    +0.277 C 
ENDBRANCH   6  29
TORSDOF 3
ENDMDL
