MODEL 1
REMARK VINA RESULT:      -6.8      0.000      0.000
REMARK  Name = NuBBE_1927
REMARK  4 active torsions:
REMARK  status: ('A' for Active; 'I' for Inactive)
REMARK    1  A    between atoms: C_1  and  C_2
REMARK    2  A    between atoms: C_5  and  C_6
REMARK    3  A    between atoms: C_11  and  C_13
REMARK    4  A    between atoms: C_13  and  C_14
REMARK                            x       y       z     vdW  Elec       q    Type
REMARK                         _______ _______ _______ _____ _____    ______ ____
ROOT
ATOM      1  C   LIG A   1      -5.619  -3.201 124.813  0.00  0.00    +0.012 C 
ATOM      2  C   LIG A   1      -6.490  -1.929 124.992  0.00  0.00    -0.025 C 
ATOM      3  C   LIG A   1      -8.023  -2.229 124.944  0.00  0.00    +0.021 C 
ATOM      4  C   LIG A   1      -8.486  -2.657 123.554  0.00  0.00    -0.073 C 
ATOM      5  C   LIG A   1      -9.773  -3.425 123.432  0.00  0.00    +0.039 C 
ATOM      6  C   LIG A   1      -7.797  -2.295 122.454  0.00  0.00    -0.027 C 
ATOM      7  C   LIG A   1      -6.536  -1.479 122.470  0.00  0.00    +0.028 C 
ATOM      8  C   LIG A   1      -6.167  -0.933 123.853  0.00  0.00    +0.011 C 
ATOM      9  C   LIG A   1      -8.436  -3.158 126.105  0.00  0.00    +0.016 C 
ATOM     10  C   LIG A   1      -8.071  -2.533 127.468  0.00  0.00    +0.015 C 
ATOM     11  C   LIG A   1      -6.589  -2.133 127.551  0.00  0.00    +0.008 C 
ATOM     12  C   LIG A   1      -6.155  -1.278 126.357  0.00  0.00    +0.008 C 
ENDROOT
BRANCH  10  13
ATOM     13  C   LIG A   1      -8.496  -3.417 128.636  0.00  0.00    -0.077 C 
ATOM     14  C   LIG A   1      -7.787  -3.260 129.954  0.00  0.00    +0.038 C 
ATOM     15  C   LIG A   1      -9.480  -4.323 128.493  0.00  0.00    +0.007 C 
ENDBRANCH  10  13
TORSDOF 1
ENDMDL
MODEL 2
REMARK VINA RESULT:      -6.5      0.817      4.812
REMARK  Name = NuBBE_1927
REMARK  4 active torsions:
REMARK  status: ('A' for Active; 'I' for Inactive)
REMARK    1  A    between atoms: C_1  and  C_2
REMARK    2  A    between atoms: C_5  and  C_6
REMARK    3  A    between atoms: C_11  and  C_13
REMARK    4  A    between atoms: C_13  and  C_14
REMARK                            x       y       z     vdW  Elec       q    Type
REMARK                         _______ _______ _______ _____ _____    ______ ____
ROOT
ATOM      1  C   LIG A   1      -7.400  -0.696 127.613  0.00  0.00    +0.012 C 
ATOM      2  C   LIG A   1      -6.703  -2.068 127.412  0.00  0.00    -0.025 C 
ATOM      3  C   LIG A   1      -7.716  -3.249 127.260  0.00  0.00    +0.021 C 
ATOM      4  C   LIG A   1      -8.470  -3.536 128.556  0.00  0.00    -0.073 C 
ATOM      5  C   LIG A   1      -9.776  -4.276 128.476  0.00  0.00    +0.039 C 
ATOM      6  C   LIG A   1      -7.945  -3.199 129.750  0.00  0.00    -0.027 C 
ATOM      7  C   LIG A   1      -6.622  -2.513 129.935  0.00  0.00    +0.028 C 
ATOM      8  C   LIG A   1      -5.812  -2.365 128.642  0.00  0.00    +0.011 C 
ATOM      9  C   LIG A   1      -8.590  -3.062 126.002  0.00  0.00    +0.016 C 
ATOM     10  C   LIG A   1      -7.717  -2.959 124.734  0.00  0.00    +0.015 C 
ATOM     11  C   LIG A   1      -6.638  -1.870 124.853  0.00  0.00    +0.008 C 
ATOM     12  C   LIG A   1      -5.822  -2.004 126.141  0.00  0.00    +0.008 C 
ENDROOT
BRANCH  10  13
ATOM     13  C   LIG A   1      -8.558  -2.804 123.471  0.00  0.00    -0.077 C 
ATOM     14  C   LIG A   1      -8.050  -1.908 122.373  0.00  0.00    +0.038 C 
ATOM     15  C   LIG A   1      -9.730  -3.448 123.339  0.00  0.00    +0.007 C 
ENDBRANCH  10  13
TORSDOF 1
ENDMDL
MODEL 3
REMARK VINA RESULT:      -6.4      1.499      3.247
REMARK  Name = NuBBE_1927
REMARK  4 active torsions:
REMARK  status: ('A' for Active; 'I' for Inactive)
REMARK    1  A    between atoms: C_1  and  C_2
REMARK    2  A    between atoms: C_5  and  C_6
REMARK    3  A    between atoms: C_11  and  C_13
REMARK    4  A    between atoms: C_13  and  C_14
REMARK                            x       y       z     vdW  Elec       q    Type
REMARK                         _______ _______ _______ _____ _____    ______ ____
ROOT
ATOM      1  C   LIG A   1      -8.930  -1.110 125.814  0.00  0.00    +0.012 C 
ATOM      2  C   LIG A   1      -8.521  -2.606 125.857  0.00  0.00    -0.025 C 
ATOM      3  C   LIG A   1      -7.067  -2.856 125.342  0.00  0.00    +0.021 C 
ATOM      4  C   LIG A   1      -6.931  -2.600 123.844  0.00  0.00    -0.073 C 
ATOM      5  C   LIG A   1      -5.563  -2.324 123.284  0.00  0.00    +0.039 C 
ATOM      6  C   LIG A   1      -8.000  -2.691 123.027  0.00  0.00    -0.027 C 
ATOM      7  C   LIG A   1      -9.393  -3.020 123.483  0.00  0.00    +0.028 C 
ATOM      8  C   LIG A   1      -9.486  -3.418 124.960  0.00  0.00    +0.011 C 
ATOM      9  C   LIG A   1      -6.037  -2.138 126.241  0.00  0.00    +0.016 C 
ATOM     10  C   LIG A   1      -6.159  -2.611 127.705  0.00  0.00    +0.015 C 
ATOM     11  C   LIG A   1      -7.591  -2.474 128.248  0.00  0.00    +0.008 C 
ATOM     12  C   LIG A   1      -8.625  -3.114 127.316  0.00  0.00    +0.008 C 
ENDROOT
BRANCH  10  13
ATOM     13  C   LIG A   1      -5.132  -1.940 128.611  0.00  0.00    -0.077 C 
ATOM     14  C   LIG A   1      -4.010  -2.774 129.171  0.00  0.00    +0.038 C 
ATOM     15  C   LIG A   1      -5.225  -0.632 128.910  0.00  0.00    +0.007 C 
ENDBRANCH  10  13
TORSDOF 1
ENDMDL
MODEL 4
REMARK VINA RESULT:      -6.4      1.273      3.180
REMARK  Name = NuBBE_1927
REMARK  4 active torsions:
REMARK  status: ('A' for Active; 'I' for Inactive)
REMARK    1  A    between atoms: C_1  and  C_2
REMARK    2  A    between atoms: C_5  and  C_6
REMARK    3  A    between atoms: C_11  and  C_13
REMARK    4  A    between atoms: C_13  and  C_14
REMARK                            x       y       z     vdW  Elec       q    Type
REMARK                         _______ _______ _______ _____ _____    ______ ____
ROOT
ATOM      1  C   LIG A   1      -9.322  -1.947 125.916  0.00  0.00    +0.012 C 
ATOM      2  C   LIG A   1      -8.182  -2.988 126.076  0.00  0.00    -0.025 C 
ATOM      3  C   LIG A   1      -6.837  -2.349 126.551  0.00  0.00    +0.021 C 
ATOM      4  C   LIG A   1      -6.213  -1.453 125.485  0.00  0.00    -0.073 C 
ATOM      5  C   LIG A   1      -5.217  -0.412 125.916  0.00  0.00    +0.039 C 
ATOM      6  C   LIG A   1      -6.491  -1.636 124.179  0.00  0.00    -0.027 C 
ATOM      7  C   LIG A   1      -7.424  -2.686 123.647  0.00  0.00    +0.028 C 
ATOM      8  C   LIG A   1      -7.926  -3.669 124.711  0.00  0.00    +0.011 C 
ATOM      9  C   LIG A   1      -6.995  -1.717 127.950  0.00  0.00    +0.016 C 
ATOM     10  C   LIG A   1      -7.465  -2.766 128.980  0.00  0.00    +0.015 C 
ATOM     11  C   LIG A   1      -8.741  -3.497 128.531  0.00  0.00    +0.008 C 
ATOM     12  C   LIG A   1      -8.617  -4.055 127.110  0.00  0.00    +0.008 C 
ENDROOT
BRANCH  10  13
ATOM     13  C   LIG A   1      -7.600  -2.175 130.379  0.00  0.00    -0.077 C 
ATOM     14  C   LIG A   1      -8.042  -0.742 130.517  0.00  0.00    +0.038 C 
ATOM     15  C   LIG A   1      -7.327  -2.913 131.470  0.00  0.00    +0.007 C 
ENDBRANCH  10  13
TORSDOF 1
ENDMDL
MODEL 5
REMARK VINA RESULT:      -6.0      1.515      5.587
REMARK  Name = NuBBE_1927
REMARK  4 active torsions:
REMARK  status: ('A' for Active; 'I' for Inactive)
REMARK    1  A    between atoms: C_1  and  C_2
REMARK    2  A    between atoms: C_5  and  C_6
REMARK    3  A    between atoms: C_11  and  C_13
REMARK    4  A    between atoms: C_13  and  C_14
REMARK                            x       y       z     vdW  Elec       q    Type
REMARK                         _______ _______ _______ _____ _____    ______ ____
ROOT
ATOM      1  C   LIG A   1      -8.241  -3.470 128.044  0.00  0.00    +0.012 C 
ATOM      2  C   LIG A   1      -7.553  -2.080 128.106  0.00  0.00    -0.025 C 
ATOM      3  C   LIG A   1      -6.000  -2.161 127.949  0.00  0.00    +0.021 C 
ATOM      4  C   LIG A   1      -5.330  -2.829 129.146  0.00  0.00    -0.073 C 
ATOM      5  C   LIG A   1      -3.957  -3.413 128.966  0.00  0.00    +0.039 C 
ATOM      6  C   LIG A   1      -5.923  -2.832 130.357  0.00  0.00    -0.027 C 
ATOM      7  C   LIG A   1      -7.264  -2.222 130.649  0.00  0.00    +0.028 C 
ATOM      8  C   LIG A   1      -7.855  -1.429 129.478  0.00  0.00    +0.011 C 
ATOM      9  C   LIG A   1      -5.619  -2.729 126.565  0.00  0.00    +0.016 C 
ATOM     10  C   LIG A   1      -6.213  -1.865 125.432  0.00  0.00    +0.015 C 
ATOM     11  C   LIG A   1      -7.731  -1.671 125.577  0.00  0.00    +0.008 C 
ATOM     12  C   LIG A   1      -8.120  -1.186 126.977  0.00  0.00    +0.008 C 
ENDROOT
BRANCH  10  13
ATOM     13  C   LIG A   1      -5.827  -2.386 124.052  0.00  0.00    -0.077 C 
ATOM     14  C   LIG A   1      -6.411  -1.713 122.838  0.00  0.00    +0.038 C 
ATOM     15  C   LIG A   1      -4.986  -3.427 123.917  0.00  0.00    +0.007 C 
ENDBRANCH  10  13
TORSDOF 1
ENDMDL
MODEL 6
REMARK VINA RESULT:      -6.0      9.022     11.568
REMARK  Name = NuBBE_1927
REMARK  4 active torsions:
REMARK  status: ('A' for Active; 'I' for Inactive)
REMARK    1  A    between atoms: C_1  and  C_2
REMARK    2  A    between atoms: C_5  and  C_6
REMARK    3  A    between atoms: C_11  and  C_13
REMARK    4  A    between atoms: C_13  and  C_14
REMARK                            x       y       z     vdW  Elec       q    Type
REMARK                         _______ _______ _______ _____ _____    ______ ____
ROOT
ATOM      1  C   LIG A   1      -4.927   6.724 130.774  0.00  0.00    +0.012 C 
ATOM      2  C   LIG A   1      -3.462   7.133 130.464  0.00  0.00    -0.025 C 
ATOM      3  C   LIG A   1      -2.445   5.968 130.685  0.00  0.00    +0.021 C 
ATOM      4  C   LIG A   1      -2.298   5.599 132.159  0.00  0.00    -0.073 C 
ATOM      5  C   LIG A   1      -1.762   4.238 132.507  0.00  0.00    +0.039 C 
ATOM      6  C   LIG A   1      -2.573   6.496 133.126  0.00  0.00    -0.027 C 
ATOM      7  C   LIG A   1      -3.055   7.896 132.876  0.00  0.00    +0.028 C 
ATOM      8  C   LIG A   1      -3.056   8.299 131.397  0.00  0.00    +0.011 C 
ATOM      9  C   LIG A   1      -2.739   4.794 129.726  0.00  0.00    +0.016 C 
ATOM     10  C   LIG A   1      -2.687   5.258 128.256  0.00  0.00    +0.015 C 
ATOM     11  C   LIG A   1      -3.603   6.464 127.988  0.00  0.00    +0.008 C 
ATOM     12  C   LIG A   1      -3.371   7.598 128.990  0.00  0.00    +0.008 C 
ENDROOT
BRANCH  10  13
ATOM     13  C   LIG A   1      -2.945   4.111 127.284  0.00  0.00    -0.077 C 
ATOM     14  C   LIG A   1      -4.311   3.985 126.663  0.00  0.00    +0.038 C 
ATOM     15  C   LIG A   1      -1.976   3.226 126.988  0.00  0.00    +0.007 C 
ENDBRANCH  10  13
TORSDOF 1
ENDMDL
MODEL 7
REMARK VINA RESULT:      -6.0      1.572      5.075
REMARK  Name = NuBBE_1927
REMARK  4 active torsions:
REMARK  status: ('A' for Active; 'I' for Inactive)
REMARK    1  A    between atoms: C_1  and  C_2
REMARK    2  A    between atoms: C_5  and  C_6
REMARK    3  A    between atoms: C_11  and  C_13
REMARK    4  A    between atoms: C_13  and  C_14
REMARK                            x       y       z     vdW  Elec       q    Type
REMARK                         _______ _______ _______ _____ _____    ______ ____
ROOT
ATOM      1  C   LIG A   1      -7.909   0.225 127.339  0.00  0.00    +0.012 C 
ATOM      2  C   LIG A   1      -6.706  -0.607 127.859  0.00  0.00    -0.025 C 
ATOM      3  C   LIG A   1      -6.876  -2.141 127.615  0.00  0.00    +0.021 C 
ATOM      4  C   LIG A   1      -7.988  -2.744 128.469  0.00  0.00    -0.073 C 
ATOM      5  C   LIG A   1      -8.600  -4.046 128.034  0.00  0.00    +0.039 C 
ATOM      6  C   LIG A   1      -8.365  -2.162 129.624  0.00  0.00    -0.027 C 
ATOM      7  C   LIG A   1      -7.772  -0.895 130.172  0.00  0.00    +0.028 C 
ATOM      8  C   LIG A   1      -6.561  -0.384 129.384  0.00  0.00    +0.011 C 
ATOM      9  C   LIG A   1      -6.947  -2.450 126.105  0.00  0.00    +0.016 C 
ATOM     10  C   LIG A   1      -5.684  -1.945 125.378  0.00  0.00    +0.015 C 
ATOM     11  C   LIG A   1      -5.408  -0.456 125.648  0.00  0.00    +0.008 C 
ATOM     12  C   LIG A   1      -5.418  -0.130 127.145  0.00  0.00    +0.008 C 
ENDROOT
BRANCH  10  13
ATOM     13  C   LIG A   1      -5.713  -2.265 123.887  0.00  0.00    -0.077 C 
ATOM     14  C   LIG A   1      -4.790  -3.331 123.360  0.00  0.00    +0.038 C 
ATOM     15  C   LIG A   1      -6.541  -1.607 123.056  0.00  0.00    +0.007 C 
ENDBRANCH  10  13
TORSDOF 1
ENDMDL
MODEL 8
REMARK VINA RESULT:      -5.9      1.809      5.204
REMARK  Name = NuBBE_1927
REMARK  4 active torsions:
REMARK  status: ('A' for Active; 'I' for Inactive)
REMARK    1  A    between atoms: C_1  and  C_2
REMARK    2  A    between atoms: C_5  and  C_6
REMARK    3  A    between atoms: C_11  and  C_13
REMARK    4  A    between atoms: C_13  and  C_14
REMARK                            x       y       z     vdW  Elec       q    Type
REMARK                         _______ _______ _______ _____ _____    ______ ____
ROOT
ATOM      1  C   LIG A   1      -6.257  -2.898 128.995  0.00  0.00    +0.012 C 
ATOM      2  C   LIG A   1      -7.691  -2.306 128.958  0.00  0.00    -0.025 C 
ATOM      3  C   LIG A   1      -7.847  -1.149 127.919  0.00  0.00    +0.021 C 
ATOM      4  C   LIG A   1      -7.068   0.100 128.323  0.00  0.00    -0.073 C 
ATOM      5  C   LIG A   1      -6.713   1.099 127.257  0.00  0.00    +0.039 C 
ATOM      6  C   LIG A   1      -6.767   0.340 129.614  0.00  0.00    -0.027 C 
ATOM      7  C   LIG A   1      -7.131  -0.567 130.755  0.00  0.00    +0.028 C 
ATOM      8  C   LIG A   1      -8.037  -1.737 130.355  0.00  0.00    +0.011 C 
ATOM      9  C   LIG A   1      -7.594  -1.663 126.486  0.00  0.00    +0.016 C 
ATOM     10  C   LIG A   1      -8.562  -2.812 126.134  0.00  0.00    +0.015 C 
ATOM     11  C   LIG A   1      -8.524  -3.949 127.168  0.00  0.00    +0.008 C 
ATOM     12  C   LIG A   1      -8.691  -3.433 128.600  0.00  0.00    +0.008 C 
ENDROOT
BRANCH  10  13
ATOM     13  C   LIG A   1      -8.356  -3.320 124.710  0.00  0.00    -0.077 C 
ATOM     14  C   LIG A   1      -9.527  -3.309 123.764  0.00  0.00    +0.038 C 
ATOM     15  C   LIG A   1      -7.156  -3.773 124.307  0.00  0.00    +0.007 C 
ENDBRANCH  10  13
TORSDOF 1
ENDMDL
MODEL 9
REMARK VINA RESULT:      -5.9      3.001      5.208
REMARK  Name = NuBBE_1927
REMARK  4 active torsions:
REMARK  status: ('A' for Active; 'I' for Inactive)
REMARK    1  A    between atoms: C_1  and  C_2
REMARK    2  A    between atoms: C_5  and  C_6
REMARK    3  A    between atoms: C_11  and  C_13
REMARK    4  A    between atoms: C_13  and  C_14
REMARK                            x       y       z     vdW  Elec       q    Type
REMARK                         _______ _______ _______ _____ _____    ______ ____
ROOT
ATOM      1  C   LIG A   1      -9.186   0.787 125.700  0.00  0.00    +0.012 C 
ATOM      2  C   LIG A   1      -8.425   1.169 124.403  0.00  0.00    -0.025 C 
ATOM      3  C   LIG A   1      -6.874   1.041 124.547  0.00  0.00    +0.021 C 
ATOM      4  C   LIG A   1      -6.292   2.083 125.498  0.00  0.00    -0.073 C 
ATOM      5  C   LIG A   1      -4.947   1.819 126.116  0.00  0.00    +0.039 C 
ATOM      6  C   LIG A   1      -6.933   3.247 125.725  0.00  0.00    -0.027 C 
ATOM      7  C   LIG A   1      -8.249   3.627 125.108  0.00  0.00    +0.028 C 
ATOM      8  C   LIG A   1      -8.746   2.640 124.045  0.00  0.00    +0.011 C 
ATOM      9  C   LIG A   1      -6.469  -0.422 124.826  0.00  0.00    +0.016 C 
ATOM     10  C   LIG A   1      -6.966  -1.355 123.703  0.00  0.00    +0.015 C 
ATOM     11  C   LIG A   1      -8.476  -1.215 123.449  0.00  0.00    +0.008 C 
ATOM     12  C   LIG A   1      -8.894   0.245 123.253  0.00  0.00    +0.008 C 
ENDROOT
BRANCH  10  13
ATOM     13  C   LIG A   1      -6.553  -2.805 123.938  0.00  0.00    -0.077 C 
ATOM     14  C   LIG A   1      -5.137  -3.211 123.626  0.00  0.00    +0.038 C 
ATOM     15  C   LIG A   1      -7.434  -3.706 124.408  0.00  0.00    +0.007 C 
ENDBRANCH  10  13
TORSDOF 1
ENDMDL
