MODEL 1
REMARK VINA RESULT:      -7.0      0.000      0.000
REMARK  Name = NuBBE_408
REMARK  9 active torsions:
REMARK  status: ('A' for Active; 'I' for Inactive)
REMARK    1  A    between atoms: C_2  and  C_9
REMARK    2  A    between atoms: N_3  and  C_5
REMARK    3  A    between atoms: C_5  and  C_6
REMARK    4  A    between atoms: C_6  and  C_7
REMARK    5  A    between atoms: C_6  and  C_8
REMARK    6  A    between atoms: C_10  and  C_11
REMARK    7  A    between atoms: C_12  and  C_13
REMARK    8  A    between atoms: C_13  and  C_14
REMARK    9  A    between atoms: C_14  and  C_15
REMARK                            x       y       z     vdW  Elec       q    Type
REMARK                         _______ _______ _______ _____ _____    ______ ____
ROOT
ATOM      1  C   LIG A   1      -9.940   1.256 124.593  0.00  0.00    -0.004 C 
ATOM      2  C   LIG A   1      -8.984   2.117 124.968  0.00  0.00    -0.026 C 
ENDROOT
BRANCH   1   4
ATOM      3  C   LIG A   1     -10.076   0.012 122.461  0.00  0.00    +0.067 C 
ATOM      4  C   LIG A   1     -10.402   1.051 123.240  0.00  0.00    +0.005 C 
BRANCH   3   6
ATOM      5  O   LIG A   1      -9.633  -2.214 123.236  0.00  0.00    -0.271 OA
ATOM      6  C   LIG A   1      -9.207  -1.117 122.882  0.00  0.00    +0.237 C 
ATOM      7  N   LIG A   1      -7.879  -0.811 122.760  0.00  0.00    -0.312 N 
ATOM      8  H   LIG A   1      -7.607   0.116 122.463  0.00  0.00    +0.149 HD
BRANCH   7   9
ATOM      9  C   LIG A   1      -6.871  -1.861 122.691  0.00  0.00    +0.107 C 
BRANCH   9  10
ATOM     10  C   LIG A   1      -6.049  -1.960 123.988  0.00  0.00    +0.000 C 
ATOM     11  C   LIG A   1      -6.219  -0.726 124.881  0.00  0.00    +0.009 C 
ATOM     12  C   LIG A   1      -6.448  -3.219 124.759  0.00  0.00    +0.009 C 
ENDBRANCH   9  10
ENDBRANCH   7   9
ENDBRANCH   3   6
ENDBRANCH   1   4
BRANCH   2  13
ATOM     13  C   LIG A   1      -8.260   3.131 124.116  0.00  0.00    +0.032 C 
BRANCH  13  14
ATOM     14  C   LIG A   1      -6.858   2.696 123.665  0.00  0.00    +0.039 C 
BRANCH  14  15
ATOM     15  C   LIG A   1      -6.323   3.503 122.494  0.00  0.00    -0.043 A 
ATOM     16  C   LIG A   1      -5.108   4.225 122.586  0.00  0.00    +0.007 A 
ATOM     17  C   LIG A   1      -4.634   4.993 121.508  0.00  0.00    +0.050 A 
ATOM     18  C   LIG A   1      -5.385   5.018 120.351  0.00  0.00    +0.166 A 
ATOM     19  C   LIG A   1      -6.559   4.315 120.252  0.00  0.00    +0.167 A 
ATOM     20  O   LIG A   1      -7.160   4.464 119.041  0.00  0.00    -0.453 OA
ATOM     21  C   LIG A   1      -6.223   5.336 118.381  0.00  0.00    +0.466 C 
ATOM     22  O   LIG A   1      -5.097   5.702 119.210  0.00  0.00    -0.453 OA
ATOM     23  C   LIG A   1      -7.051   3.555 121.294  0.00  0.00    +0.053 A 
ENDBRANCH  14  15
ENDBRANCH  13  14
ENDBRANCH   2  13
TORSDOF 7
ENDMDL
MODEL 2
REMARK VINA RESULT:      -6.9      3.458      8.083
REMARK  Name = NuBBE_408
REMARK  9 active torsions:
REMARK  status: ('A' for Active; 'I' for Inactive)
REMARK    1  A    between atoms: C_2  and  C_9
REMARK    2  A    between atoms: N_3  and  C_5
REMARK    3  A    between atoms: C_5  and  C_6
REMARK    4  A    between atoms: C_6  and  C_7
REMARK    5  A    between atoms: C_6  and  C_8
REMARK    6  A    between atoms: C_10  and  C_11
REMARK    7  A    between atoms: C_12  and  C_13
REMARK    8  A    between atoms: C_13  and  C_14
REMARK    9  A    between atoms: C_14  and  C_15
REMARK                            x       y       z     vdW  Elec       q    Type
REMARK                         _______ _______ _______ _____ _____    ______ ____
ROOT
ATOM      1  C   LIG A   1      -8.388  -2.158 122.640  0.00  0.00    -0.004 C 
ATOM      2  C   LIG A   1      -9.213  -2.974 123.311  0.00  0.00    -0.026 C 
ENDROOT
BRANCH   1   4
ATOM      3  C   LIG A   1      -6.561  -0.759 123.542  0.00  0.00    +0.067 C 
ATOM      4  C   LIG A   1      -7.011  -1.889 122.984  0.00  0.00    +0.005 C 
BRANCH   3   6
ATOM      5  O   LIG A   1      -8.072   0.438 124.968  0.00  0.00    -0.271 OA
ATOM      6  C   LIG A   1      -7.419   0.390 123.929  0.00  0.00    +0.237 C 
ATOM      7  N   LIG A   1      -7.336   1.414 123.025  0.00  0.00    -0.312 N 
ATOM      8  H   LIG A   1      -6.777   1.298 122.191  0.00  0.00    +0.149 HD
BRANCH   7   9
ATOM      9  C   LIG A   1      -7.723   2.770 123.391  0.00  0.00    +0.107 C 
BRANCH   9  10
ATOM     10  C   LIG A   1      -6.580   3.776 123.173  0.00  0.00    +0.000 C 
ATOM     11  C   LIG A   1      -5.558   3.754 124.316  0.00  0.00    +0.009 C 
ATOM     12  C   LIG A   1      -5.880   3.486 121.845  0.00  0.00    +0.009 C 
ENDBRANCH   9  10
ENDBRANCH   7   9
ENDBRANCH   3   6
ENDBRANCH   1   4
BRANCH   2  13
ATOM     13  C   LIG A   1      -8.953  -3.696 124.611  0.00  0.00    +0.032 C 
BRANCH  13  14
ATOM     14  C   LIG A   1      -9.428  -2.941 125.861  0.00  0.00    +0.039 C 
BRANCH  14  15
ATOM     15  C   LIG A   1      -8.419  -2.961 126.998  0.00  0.00    -0.043 A 
ATOM     16  C   LIG A   1      -8.707  -3.594 128.232  0.00  0.00    +0.007 A 
ATOM     17  C   LIG A   1      -7.780  -3.583 129.290  0.00  0.00    +0.050 A 
ATOM     18  C   LIG A   1      -6.575  -2.943 129.088  0.00  0.00    +0.166 A 
ATOM     19  C   LIG A   1      -6.287  -2.335 127.892  0.00  0.00    +0.167 A 
ATOM     20  O   LIG A   1      -5.056  -1.755 127.881  0.00  0.00    -0.453 OA
ATOM     21  C   LIG A   1      -4.596  -2.075 129.208  0.00  0.00    +0.466 C 
ATOM     22  O   LIG A   1      -5.559  -2.822 129.985  0.00  0.00    -0.453 OA
ATOM     23  C   LIG A   1      -7.177  -2.326 126.838  0.00  0.00    +0.053 A 
ENDBRANCH  14  15
ENDBRANCH  13  14
ENDBRANCH   2  13
TORSDOF 7
ENDMDL
MODEL 3
REMARK VINA RESULT:      -6.9      8.195     10.464
REMARK  Name = NuBBE_408
REMARK  9 active torsions:
REMARK  status: ('A' for Active; 'I' for Inactive)
REMARK    1  A    between atoms: C_2  and  C_9
REMARK    2  A    between atoms: N_3  and  C_5
REMARK    3  A    between atoms: C_5  and  C_6
REMARK    4  A    between atoms: C_6  and  C_7
REMARK    5  A    between atoms: C_6  and  C_8
REMARK    6  A    between atoms: C_10  and  C_11
REMARK    7  A    between atoms: C_12  and  C_13
REMARK    8  A    between atoms: C_13  and  C_14
REMARK    9  A    between atoms: C_14  and  C_15
REMARK                            x       y       z     vdW  Elec       q    Type
REMARK                         _______ _______ _______ _____ _____    ______ ____
ROOT
ATOM      1  C   LIG A   1      -4.708   6.795 131.073  0.00  0.00    -0.004 C 
ATOM      2  C   LIG A   1      -5.910   6.438 131.546  0.00  0.00    -0.026 C 
ENDROOT
BRANCH   1   4
ATOM      3  C   LIG A   1      -3.544   7.913 129.201  0.00  0.00    +0.067 C 
ATOM      4  C   LIG A   1      -4.450   7.905 130.186  0.00  0.00    +0.005 C 
BRANCH   3   6
ATOM      5  O   LIG A   1      -1.495   6.668 129.163  0.00  0.00    -0.271 OA
ATOM      6  C   LIG A   1      -2.678   6.760 128.843  0.00  0.00    +0.237 C 
ATOM      7  N   LIG A   1      -3.374   5.787 128.179  0.00  0.00    -0.312 N 
ATOM      8  H   LIG A   1      -4.347   5.938 127.951  0.00  0.00    +0.149 HD
BRANCH   7   9
ATOM      9  C   LIG A   1      -2.873   4.421 128.114  0.00  0.00    +0.107 C 
BRANCH   9  10
ATOM     10  C   LIG A   1      -2.751   3.917 126.666  0.00  0.00    +0.000 C 
ATOM     11  C   LIG A   1      -1.616   2.901 126.496  0.00  0.00    +0.009 C 
ATOM     12  C   LIG A   1      -4.075   3.297 126.219  0.00  0.00    +0.009 C 
ENDBRANCH   9  10
ENDBRANCH   7   9
ENDBRANCH   3   6
ENDBRANCH   1   4
BRANCH   2  13
ATOM     13  C   LIG A   1      -7.258   7.017 131.189  0.00  0.00    +0.032 C 
BRANCH  13  14
ATOM     14  C   LIG A   1      -8.449   6.111 131.539  0.00  0.00    +0.039 C 
BRANCH  14  15
ATOM     15  C   LIG A   1      -9.779   6.637 131.025  0.00  0.00    -0.043 A 
ATOM     16  C   LIG A   1     -10.993   6.370 131.703  0.00  0.00    +0.007 A 
ATOM     17  C   LIG A   1     -12.223   6.836 131.205  0.00  0.00    +0.050 A 
ATOM     18  C   LIG A   1     -12.212   7.570 130.037  0.00  0.00    +0.166 A 
ATOM     19  C   LIG A   1     -11.039   7.839 129.379  0.00  0.00    +0.167 A 
ATOM     20  O   LIG A   1     -11.227   8.570 128.248  0.00  0.00    -0.453 OA
ATOM     21  C   LIG A   1     -12.657   8.740 128.271  0.00  0.00    +0.466 C 
ATOM     22  O   LIG A   1     -13.293   8.098 129.400  0.00  0.00    -0.453 OA
ATOM     23  C   LIG A   1      -9.817   7.393 129.842  0.00  0.00    +0.053 A 
ENDBRANCH  14  15
ENDBRANCH  13  14
ENDBRANCH   2  13
TORSDOF 7
ENDMDL
MODEL 4
REMARK VINA RESULT:      -6.7      4.172      8.102
REMARK  Name = NuBBE_408
REMARK  9 active torsions:
REMARK  status: ('A' for Active; 'I' for Inactive)
REMARK    1  A    between atoms: C_2  and  C_9
REMARK    2  A    between atoms: N_3  and  C_5
REMARK    3  A    between atoms: C_5  and  C_6
REMARK    4  A    between atoms: C_6  and  C_7
REMARK    5  A    between atoms: C_6  and  C_8
REMARK    6  A    between atoms: C_10  and  C_11
REMARK    7  A    between atoms: C_12  and  C_13
REMARK    8  A    between atoms: C_13  and  C_14
REMARK    9  A    between atoms: C_14  and  C_15
REMARK                            x       y       z     vdW  Elec       q    Type
REMARK                         _______ _______ _______ _____ _____    ______ ____
ROOT
ATOM      1  C   LIG A   1      -8.507  -2.179 122.639  0.00  0.00    -0.004 C 
ATOM      2  C   LIG A   1      -9.155  -3.085 123.384  0.00  0.00    -0.026 C 
ENDROOT
BRANCH   1   4
ATOM      3  C   LIG A   1      -6.897  -0.526 123.525  0.00  0.00    +0.067 C 
ATOM      4  C   LIG A   1      -7.179  -1.674 122.898  0.00  0.00    +0.005 C 
BRANCH   3   6
ATOM      5  O   LIG A   1      -8.717   1.031 123.398  0.00  0.00    -0.271 OA
ATOM      6  C   LIG A   1      -7.915   0.401 124.084  0.00  0.00    +0.237 C 
ATOM      7  N   LIG A   1      -7.896   0.413 125.452  0.00  0.00    -0.312 N 
ATOM      8  H   LIG A   1      -7.203  -0.133 125.945  0.00  0.00    +0.149 HD
BRANCH   7   9
ATOM      9  C   LIG A   1      -9.045   0.884 126.213  0.00  0.00    +0.107 C 
BRANCH   9  10
ATOM     10  C   LIG A   1      -8.627   1.629 127.492  0.00  0.00    +0.000 C 
ATOM     11  C   LIG A   1      -8.025   0.690 128.543  0.00  0.00    +0.009 C 
ATOM     12  C   LIG A   1      -7.624   2.731 127.145  0.00  0.00    +0.009 C 
ENDBRANCH   9  10
ENDBRANCH   7   9
ENDBRANCH   3   6
ENDBRANCH   1   4
BRANCH   2  13
ATOM     13  C   LIG A   1      -8.720  -3.694 124.695  0.00  0.00    +0.032 C 
BRANCH  13  14
ATOM     14  C   LIG A   1      -9.260  -2.974 125.939  0.00  0.00    +0.039 C 
BRANCH  14  15
ATOM     15  C   LIG A   1      -8.289  -2.976 127.107  0.00  0.00    -0.043 A 
ATOM     16  C   LIG A   1      -8.652  -3.498 128.372  0.00  0.00    +0.007 A 
ATOM     17  C   LIG A   1      -7.757  -3.470 129.457  0.00  0.00    +0.050 A 
ATOM     18  C   LIG A   1      -6.508  -2.923 129.250  0.00  0.00    +0.166 A 
ATOM     19  C   LIG A   1      -6.146  -2.421 128.025  0.00  0.00    +0.167 A 
ATOM     20  O   LIG A   1      -4.881  -1.922 128.015  0.00  0.00    -0.453 OA
ATOM     21  C   LIG A   1      -4.480  -2.175 129.376  0.00  0.00    +0.466 C 
ATOM     22  O   LIG A   1      -5.512  -2.801 130.171  0.00  0.00    -0.453 OA
ATOM     23  C   LIG A   1      -7.003  -2.433 126.944  0.00  0.00    +0.053 A 
ENDBRANCH  14  15
ENDBRANCH  13  14
ENDBRANCH   2  13
TORSDOF 7
ENDMDL
MODEL 5
REMARK VINA RESULT:      -6.6      8.250     10.229
REMARK  Name = NuBBE_408
REMARK  9 active torsions:
REMARK  status: ('A' for Active; 'I' for Inactive)
REMARK    1  A    between atoms: C_2  and  C_9
REMARK    2  A    between atoms: N_3  and  C_5
REMARK    3  A    between atoms: C_5  and  C_6
REMARK    4  A    between atoms: C_6  and  C_7
REMARK    5  A    between atoms: C_6  and  C_8
REMARK    6  A    between atoms: C_10  and  C_11
REMARK    7  A    between atoms: C_12  and  C_13
REMARK    8  A    between atoms: C_13  and  C_14
REMARK    9  A    between atoms: C_14  and  C_15
REMARK                            x       y       z     vdW  Elec       q    Type
REMARK                         _______ _______ _______ _____ _____    ______ ____
ROOT
ATOM      1  C   LIG A   1      -8.316   6.864 131.027  0.00  0.00    -0.004 C 
ATOM      2  C   LIG A   1      -6.979   6.953 131.008  0.00  0.00    -0.026 C 
ENDROOT
BRANCH   1   4
ATOM      3  C   LIG A   1     -10.355   5.768 131.892  0.00  0.00    +0.067 C 
ATOM      4  C   LIG A   1      -9.099   6.203 132.045  0.00  0.00    +0.005 C 
BRANCH   3   6
ATOM      5  O   LIG A   1     -11.246   4.955 129.820  0.00  0.00    -0.271 OA
ATOM      6  C   LIG A   1     -11.135   5.870 130.632  0.00  0.00    +0.237 C 
ATOM      7  N   LIG A   1     -11.770   7.077 130.522  0.00  0.00    -0.312 N 
ATOM      8  H   LIG A   1     -11.627   7.781 131.233  0.00  0.00    +0.149 HD
BRANCH   7   9
ATOM      9  C   LIG A   1     -12.907   7.247 129.627  0.00  0.00    +0.107 C 
BRANCH   9  10
ATOM     10  C   LIG A   1     -12.735   8.460 128.697  0.00  0.00    +0.000 C 
ATOM     11  C   LIG A   1     -13.047   9.785 129.403  0.00  0.00    +0.009 C 
ATOM     12  C   LIG A   1     -11.310   8.491 128.143  0.00  0.00    +0.009 C 
ENDBRANCH   9  10
ENDBRANCH   7   9
ENDBRANCH   3   6
ENDBRANCH   1   4
BRANCH   2  13
ATOM     13  C   LIG A   1      -5.990   6.307 131.949  0.00  0.00    +0.032 C 
BRANCH  13  14
ATOM     14  C   LIG A   1      -4.539   6.775 131.763  0.00  0.00    +0.039 C 
BRANCH  14  15
ATOM     15  C   LIG A   1      -3.859   6.167 130.547  0.00  0.00    -0.043 A 
ATOM     16  C   LIG A   1      -3.032   6.940 129.697  0.00  0.00    +0.007 A 
ATOM     17  C   LIG A   1      -2.430   6.377 128.558  0.00  0.00    +0.050 A 
ATOM     18  C   LIG A   1      -2.663   5.043 128.295  0.00  0.00    +0.166 A 
ATOM     19  C   LIG A   1      -3.458   4.286 129.119  0.00  0.00    +0.167 A 
ATOM     20  O   LIG A   1      -3.574   2.998 128.698  0.00  0.00    -0.453 OA
ATOM     21  C   LIG A   1      -2.751   3.026 127.516  0.00  0.00    +0.466 C 
ATOM     22  O   LIG A   1      -2.177   4.324 127.246  0.00  0.00    -0.453 OA
ATOM     23  C   LIG A   1      -4.064   4.811 130.242  0.00  0.00    +0.053 A 
ENDBRANCH  14  15
ENDBRANCH  13  14
ENDBRANCH   2  13
TORSDOF 7
ENDMDL
MODEL 6
REMARK VINA RESULT:      -6.6      4.347      8.667
REMARK  Name = NuBBE_408
REMARK  9 active torsions:
REMARK  status: ('A' for Active; 'I' for Inactive)
REMARK    1  A    between atoms: C_2  and  C_9
REMARK    2  A    between atoms: N_3  and  C_5
REMARK    3  A    between atoms: C_5  and  C_6
REMARK    4  A    between atoms: C_6  and  C_7
REMARK    5  A    between atoms: C_6  and  C_8
REMARK    6  A    between atoms: C_10  and  C_11
REMARK    7  A    between atoms: C_12  and  C_13
REMARK    8  A    between atoms: C_13  and  C_14
REMARK    9  A    between atoms: C_14  and  C_15
REMARK                            x       y       z     vdW  Elec       q    Type
REMARK                         _______ _______ _______ _____ _____    ______ ____
ROOT
ATOM      1  C   LIG A   1      -8.379  -3.695 124.060  0.00  0.00    -0.004 C 
ATOM      2  C   LIG A   1      -9.364  -3.222 124.836  0.00  0.00    -0.026 C 
ENDROOT
BRANCH   1   4
ATOM      3  C   LIG A   1      -6.048  -2.879 124.151  0.00  0.00    +0.067 C 
ATOM      4  C   LIG A   1      -6.988  -3.789 124.433  0.00  0.00    +0.005 C 
BRANCH   3   6
ATOM      5  O   LIG A   1      -6.233  -1.482 122.211  0.00  0.00    -0.271 OA
ATOM      6  C   LIG A   1      -6.299  -1.604 123.432  0.00  0.00    +0.237 C 
ATOM      7  N   LIG A   1      -6.682  -0.604 124.285  0.00  0.00    -0.312 N 
ATOM      8  H   LIG A   1      -6.712  -0.783 125.279  0.00  0.00    +0.149 HD
BRANCH   7   9
ATOM      9  C   LIG A   1      -7.385   0.572 123.792  0.00  0.00    +0.107 C 
BRANCH   9  10
ATOM     10  C   LIG A   1      -8.898   0.499 124.064  0.00  0.00    +0.000 C 
ATOM     11  C   LIG A   1      -9.490   1.863 124.434  0.00  0.00    +0.009 C 
ATOM     12  C   LIG A   1      -9.617  -0.066 122.838  0.00  0.00    +0.009 C 
ENDBRANCH   9  10
ENDBRANCH   7   9
ENDBRANCH   3   6
ENDBRANCH   1   4
BRANCH   2  13
ATOM     13  C   LIG A   1      -9.248  -2.585 126.200  0.00  0.00    +0.032 C 
BRANCH  13  14
ATOM     14  C   LIG A   1      -8.942  -3.572 127.337  0.00  0.00    +0.039 C 
BRANCH  14  15
ATOM     15  C   LIG A   1      -7.883  -3.069 128.304  0.00  0.00    -0.043 A 
ATOM     16  C   LIG A   1      -6.712  -2.418 127.848  0.00  0.00    +0.007 A 
ATOM     17  C   LIG A   1      -5.723  -1.981 128.748  0.00  0.00    +0.050 A 
ATOM     18  C   LIG A   1      -5.931  -2.201 130.094  0.00  0.00    +0.166 A 
ATOM     19  C   LIG A   1      -7.068  -2.824 130.544  0.00  0.00    +0.167 A 
ATOM     20  O   LIG A   1      -7.095  -2.954 131.897  0.00  0.00    -0.453 OA
ATOM     21  C   LIG A   1      -5.845  -2.331 132.252  0.00  0.00    +0.466 C 
ATOM     22  O   LIG A   1      -5.095  -1.858 131.111  0.00  0.00    -0.453 OA
ATOM     23  C   LIG A   1      -8.054  -3.266 129.685  0.00  0.00    +0.053 A 
ENDBRANCH  14  15
ENDBRANCH  13  14
ENDBRANCH   2  13
TORSDOF 7
ENDMDL
MODEL 7
REMARK VINA RESULT:      -6.6      1.738      2.560
REMARK  Name = NuBBE_408
REMARK  9 active torsions:
REMARK  status: ('A' for Active; 'I' for Inactive)
REMARK    1  A    between atoms: C_2  and  C_9
REMARK    2  A    between atoms: N_3  and  C_5
REMARK    3  A    between atoms: C_5  and  C_6
REMARK    4  A    between atoms: C_6  and  C_7
REMARK    5  A    between atoms: C_6  and  C_8
REMARK    6  A    between atoms: C_10  and  C_11
REMARK    7  A    between atoms: C_12  and  C_13
REMARK    8  A    between atoms: C_13  and  C_14
REMARK    9  A    between atoms: C_14  and  C_15
REMARK                            x       y       z     vdW  Elec       q    Type
REMARK                         _______ _______ _______ _____ _____    ______ ____
ROOT
ATOM      1  C   LIG A   1      -8.279   1.173 126.768  0.00  0.00    -0.004 C 
ATOM      2  C   LIG A   1      -7.416   2.196 126.708  0.00  0.00    -0.026 C 
ENDROOT
BRANCH   1   4
ATOM      3  C   LIG A   1      -9.102  -0.507 125.153  0.00  0.00    +0.067 C 
ATOM      4  C   LIG A   1      -9.120   0.721 125.685  0.00  0.00    +0.005 C 
BRANCH   3   6
ATOM      5  O   LIG A   1      -8.614  -2.540 126.328  0.00  0.00    -0.271 OA
ATOM      6  C   LIG A   1      -8.227  -1.614 125.618  0.00  0.00    +0.237 C 
ATOM      7  N   LIG A   1      -6.963  -1.516 125.102  0.00  0.00    -0.312 N 
ATOM      8  H   LIG A   1      -6.722  -0.723 124.525  0.00  0.00    +0.149 HD
BRANCH   7   9
ATOM      9  C   LIG A   1      -6.082  -2.675 125.055  0.00  0.00    +0.107 C 
BRANCH   9  10
ATOM     10  C   LIG A   1      -5.152  -2.645 123.829  0.00  0.00    +0.000 C 
ATOM     11  C   LIG A   1      -4.464  -3.992 123.587  0.00  0.00    +0.009 C 
ATOM     12  C   LIG A   1      -5.945  -2.235 122.587  0.00  0.00    +0.009 C 
ENDBRANCH   9  10
ENDBRANCH   7   9
ENDBRANCH   3   6
ENDBRANCH   1   4
BRANCH   2  13
ATOM     13  C   LIG A   1      -7.202   3.168 125.573  0.00  0.00    +0.032 C 
BRANCH  13  14
ATOM     14  C   LIG A   1      -6.403   2.596 124.392  0.00  0.00    +0.039 C 
BRANCH  14  15
ATOM     15  C   LIG A   1      -6.905   3.069 123.037  0.00  0.00    -0.043 A 
ATOM     16  C   LIG A   1      -8.269   2.959 122.674  0.00  0.00    +0.007 A 
ATOM     17  C   LIG A   1      -8.721   3.372 121.407  0.00  0.00    +0.050 A 
ATOM     18  C   LIG A   1      -7.795   3.896 120.529  0.00  0.00    +0.166 A 
ATOM     19  C   LIG A   1      -6.473   4.013 120.878  0.00  0.00    +0.167 A 
ATOM     20  O   LIG A   1      -5.713   4.547 119.885  0.00  0.00    -0.453 OA
ATOM     21  C   LIG A   1      -6.711   4.763 118.869  0.00  0.00    +0.466 C 
ATOM     22  O   LIG A   1      -8.036   4.343 119.266  0.00  0.00    -0.453 OA
ATOM     23  C   LIG A   1      -6.000   3.614 122.111  0.00  0.00    +0.053 A 
ENDBRANCH  14  15
ENDBRANCH  13  14
ENDBRANCH   2  13
TORSDOF 7
ENDMDL
MODEL 8
REMARK VINA RESULT:      -6.6      6.165     10.461
REMARK  Name = NuBBE_408
REMARK  9 active torsions:
REMARK  status: ('A' for Active; 'I' for Inactive)
REMARK    1  A    between atoms: C_2  and  C_9
REMARK    2  A    between atoms: N_3  and  C_5
REMARK    3  A    between atoms: C_5  and  C_6
REMARK    4  A    between atoms: C_6  and  C_7
REMARK    5  A    between atoms: C_6  and  C_8
REMARK    6  A    between atoms: C_10  and  C_11
REMARK    7  A    between atoms: C_12  and  C_13
REMARK    8  A    between atoms: C_13  and  C_14
REMARK    9  A    between atoms: C_14  and  C_15
REMARK                            x       y       z     vdW  Elec       q    Type
REMARK                         _______ _______ _______ _____ _____    ______ ____
ROOT
ATOM      1  C   LIG A   1      -7.651  -1.847 128.299  0.00  0.00    -0.004 C 
ATOM      2  C   LIG A   1      -6.344  -1.557 128.237  0.00  0.00    -0.026 C 
ENDROOT
BRANCH   1   4
ATOM      3  C   LIG A   1      -8.841  -3.783 127.326  0.00  0.00    +0.067 C 
ATOM      4  C   LIG A   1      -8.215  -3.176 128.342  0.00  0.00    +0.005 C 
BRANCH   3   6
ATOM      5  O   LIG A   1      -9.887  -2.356 125.708  0.00  0.00    -0.271 OA
ATOM      6  C   LIG A   1      -9.027  -3.191 125.976  0.00  0.00    +0.237 C 
ATOM      7  N   LIG A   1      -8.081  -3.634 125.091  0.00  0.00    -0.312 N 
ATOM      8  H   LIG A   1      -7.406  -4.324 125.389  0.00  0.00    +0.149 HD
BRANCH   7   9
ATOM      9  C   LIG A   1      -7.792  -2.892 123.872  0.00  0.00    +0.107 C 
BRANCH   9  10
ATOM     10  C   LIG A   1      -6.357  -2.338 123.858  0.00  0.00    +0.000 C 
ATOM     11  C   LIG A   1      -6.229  -1.032 124.651  0.00  0.00    +0.009 C 
ATOM     12  C   LIG A   1      -5.392  -3.384 124.420  0.00  0.00    +0.009 C 
ENDBRANCH   9  10
ENDBRANCH   7   9
ENDBRANCH   3   6
ENDBRANCH   1   4
BRANCH   2  13
ATOM     13  C   LIG A   1      -5.186  -2.512 128.083  0.00  0.00    +0.032 C 
BRANCH  13  14
ATOM     14  C   LIG A   1      -4.124  -2.405 129.188  0.00  0.00    +0.039 C 
BRANCH  14  15
ATOM     15  C   LIG A   1      -4.395  -3.313 130.376  0.00  0.00    -0.043 A 
ATOM     16  C   LIG A   1      -5.288  -4.409 130.283  0.00  0.00    +0.007 A 
ATOM     17  C   LIG A   1      -5.555  -5.227 131.395  0.00  0.00    +0.050 A 
ATOM     18  C   LIG A   1      -4.916  -4.936 132.582  0.00  0.00    +0.166 A 
ATOM     19  C   LIG A   1      -4.044  -3.880 132.677  0.00  0.00    +0.167 A 
ATOM     20  O   LIG A   1      -3.515  -3.748 133.923  0.00  0.00    -0.453 OA
ATOM     21  C   LIG A   1      -4.147  -4.849 134.603  0.00  0.00    +0.466 C 
ATOM     22  O   LIG A   1      -5.047  -5.603 133.761  0.00  0.00    -0.453 OA
ATOM     23  C   LIG A   1      -3.764  -3.058 131.605  0.00  0.00    +0.053 A 
ENDBRANCH  14  15
ENDBRANCH  13  14
ENDBRANCH   2  13
TORSDOF 7
ENDMDL
MODEL 9
REMARK VINA RESULT:      -6.6      3.783      7.001
REMARK  Name = NuBBE_408
REMARK  9 active torsions:
REMARK  status: ('A' for Active; 'I' for Inactive)
REMARK    1  A    between atoms: C_2  and  C_9
REMARK    2  A    between atoms: N_3  and  C_5
REMARK    3  A    between atoms: C_5  and  C_6
REMARK    4  A    between atoms: C_6  and  C_7
REMARK    5  A    between atoms: C_6  and  C_8
REMARK    6  A    between atoms: C_10  and  C_11
REMARK    7  A    between atoms: C_12  and  C_13
REMARK    8  A    between atoms: C_13  and  C_14
REMARK    9  A    between atoms: C_14  and  C_15
REMARK                            x       y       z     vdW  Elec       q    Type
REMARK                         _______ _______ _______ _____ _____    ______ ____
ROOT
ATOM      1  C   LIG A   1      -7.603  -0.577 129.189  0.00  0.00    -0.004 C 
ATOM      2  C   LIG A   1      -8.094  -1.819 129.299  0.00  0.00    -0.026 C 
ENDROOT
BRANCH   1   4
ATOM      3  C   LIG A   1      -6.747   0.591 127.186  0.00  0.00    +0.067 C 
ATOM      4  C   LIG A   1      -6.564  -0.162 128.277  0.00  0.00    +0.005 C 
BRANCH   3   6
ATOM      5  O   LIG A   1      -8.488   2.239 127.122  0.00  0.00    -0.271 OA
ATOM      6  C   LIG A   1      -8.057   1.148 126.758  0.00  0.00    +0.237 C 
ATOM      7  N   LIG A   1      -8.687   0.334 125.856  0.00  0.00    -0.312 N 
ATOM      8  H   LIG A   1      -8.267  -0.551 125.607  0.00  0.00    +0.149 HD
BRANCH   7   9
ATOM      9  C   LIG A   1      -9.734   0.849 124.986  0.00  0.00    +0.107 C 
BRANCH   9  10
ATOM     10  C   LIG A   1      -9.243   1.043 123.541  0.00  0.00    +0.000 C 
ATOM     11  C   LIG A   1     -10.252   0.529 122.508  0.00  0.00    +0.009 C 
ATOM     12  C   LIG A   1      -8.949   2.522 123.288  0.00  0.00    +0.009 C 
ENDBRANCH   9  10
ENDBRANCH   7   9
ENDBRANCH   3   6
ENDBRANCH   1   4
BRANCH   2  13
ATOM     13  C   LIG A   1      -7.617  -3.072 128.603  0.00  0.00    +0.032 C 
BRANCH  13  14
ATOM     14  C   LIG A   1      -8.634  -3.679 127.625  0.00  0.00    +0.039 C 
BRANCH  14  15
ATOM     15  C   LIG A   1      -8.425  -3.237 126.186  0.00  0.00    -0.043 A 
ATOM     16  C   LIG A   1      -9.492  -3.216 125.256  0.00  0.00    +0.007 A 
ATOM     17  C   LIG A   1      -9.285  -2.833 123.918  0.00  0.00    +0.050 A 
ATOM     18  C   LIG A   1      -8.009  -2.470 123.539  0.00  0.00    +0.166 A 
ATOM     19  C   LIG A   1      -6.972  -2.481 124.437  0.00  0.00    +0.167 A 
ATOM     20  O   LIG A   1      -5.792  -2.098 123.881  0.00  0.00    -0.453 OA
ATOM     21  C   LIG A   1      -6.205  -1.833 122.527  0.00  0.00    +0.466 C 
ATOM     22  O   LIG A   1      -7.612  -2.078 122.298  0.00  0.00    -0.453 OA
ATOM     23  C   LIG A   1      -7.144  -2.855 125.755  0.00  0.00    +0.053 A 
ENDBRANCH  14  15
ENDBRANCH  13  14
ENDBRANCH   2  13
TORSDOF 7
ENDMDL
