MODEL 1
REMARK VINA RESULT:      -7.4      0.000      0.000
REMARK  Name = NuBBE_2025
REMARK  8 active torsions:
REMARK  status: ('A' for Active; 'I' for Inactive)
REMARK    1  A    between atoms: C_4  and  O_5
REMARK    2  A    between atoms: C_6  and  O_7
REMARK    3  A    between atoms: O_7  and  C_8
REMARK    4  A    between atoms: C_9  and  O_10
REMARK    5  A    between atoms: C_15  and  C_16
REMARK    6  A    between atoms: C_18  and  O_19
REMARK    7  A    between atoms: C_20  and  O_21
REMARK    8  A    between atoms: O_21  and  C_22
REMARK                            x       y       z     vdW  Elec       q    Type
REMARK                         _______ _______ _______ _____ _____    ______ ____
ROOT
ATOM      1  O   LIG A   1     -10.093   4.158 129.567  0.00  0.00    -0.286 OA
ATOM      2  C   LIG A   1      -9.844   4.413 130.735  0.00  0.00    +0.204 A 
ATOM      3  C   LIG A   1      -9.061   3.440 131.523  0.00  0.00    +0.110 A 
ATOM      4  C   LIG A   1      -8.581   2.252 130.934  0.00  0.00    +0.177 A 
ATOM      5  C   LIG A   1      -7.774   1.386 131.683  0.00  0.00    +0.204 A 
ATOM      6  C   LIG A   1      -7.496   1.727 133.017  0.00  0.00    +0.166 A 
ATOM      7  C   LIG A   1      -7.994   2.883 133.610  0.00  0.00    +0.096 A 
ATOM      8  C   LIG A   1      -8.778   3.743 132.851  0.00  0.00    +0.146 A 
ATOM      9  O   LIG A   1      -9.224   4.882 133.469  0.00  0.00    -0.462 OA
ATOM     10  C   LIG A   1      -9.937   5.784 132.711  0.00  0.00    +0.208 A 
ATOM     11  C   LIG A   1     -10.273   5.675 131.415  0.00  0.00    +0.065 A 
ENDROOT
BRANCH  11  12
ATOM     12  C   LIG A   1     -11.040   6.737 130.720  0.00  0.00    -0.008 A 
ATOM     13  C   LIG A   1     -10.515   7.351 129.576  0.00  0.00    +0.058 A 
ATOM     14  C   LIG A   1     -11.193   8.377 128.911  0.00  0.00    +0.159 A 
ATOM     15  C   LIG A   1     -12.440   8.809 129.362  0.00  0.00    +0.161 A 
ATOM     16  C   LIG A   1     -12.992   8.186 130.486  0.00  0.00    +0.050 A 
ATOM     17  C   LIG A   1     -12.295   7.180 131.171  0.00  0.00    +0.012 A 
BRANCH  14  18
ATOM     18  O   LIG A   1     -10.604   8.911 127.800  0.00  0.00    -0.503 OA
ATOM     19  H   LIG A   1     -10.245   8.195 127.252  0.00  0.00    +0.292 HD
ENDBRANCH  14  18
BRANCH  15  20
ATOM     20  O   LIG A   1     -13.236   9.766 128.794  0.00  0.00    -0.491 OA
ATOM     21  C   LIG A   1     -13.572  10.879 129.618  0.00  0.00    +0.277 C 
ENDBRANCH  15  20
ENDBRANCH  11  12
BRANCH   4  22
ATOM     22  O   LIG A   1      -8.892   1.944 129.634  0.00  0.00    -0.503 OA
ATOM     23  H   LIG A   1      -8.789   0.973 129.501  0.00  0.00    +0.292 HD
ENDBRANCH   4  22
BRANCH   5  24
ATOM     24  O   LIG A   1      -7.184   0.213 131.286  0.00  0.00    -0.488 OA
ATOM     25  C   LIG A   1      -8.001  -0.950 131.205  0.00  0.00    +0.277 C 
ENDBRANCH   5  24
BRANCH   6  26
ATOM     26  O   LIG A   1      -6.696   0.919 133.781  0.00  0.00    -0.503 OA
ATOM     27  H   LIG A   1      -7.031   0.012 133.628  0.00  0.00    +0.292 HD
ENDBRANCH   6  26
TORSDOF 6
ENDMDL
MODEL 2
REMARK VINA RESULT:      -7.3      1.220      2.432
REMARK  Name = NuBBE_2025
REMARK  8 active torsions:
REMARK  status: ('A' for Active; 'I' for Inactive)
REMARK    1  A    between atoms: C_4  and  O_5
REMARK    2  A    between atoms: C_6  and  O_7
REMARK    3  A    between atoms: O_7  and  C_8
REMARK    4  A    between atoms: C_9  and  O_10
REMARK    5  A    between atoms: C_15  and  C_16
REMARK    6  A    between atoms: C_18  and  O_19
REMARK    7  A    between atoms: C_20  and  O_21
REMARK    8  A    between atoms: O_21  and  C_22
REMARK                            x       y       z     vdW  Elec       q    Type
REMARK                         _______ _______ _______ _____ _____    ______ ____
ROOT
ATOM      1  O   LIG A   1      -9.149   6.463 132.372  0.00  0.00    -0.286 OA
ATOM      2  C   LIG A   1      -9.582   5.444 131.857  0.00  0.00    +0.204 A 
ATOM      3  C   LIG A   1      -8.970   4.150 132.220  0.00  0.00    +0.110 A 
ATOM      4  C   LIG A   1      -7.927   4.083 133.166  0.00  0.00    +0.177 A 
ATOM      5  C   LIG A   1      -7.420   2.836 133.550  0.00  0.00    +0.204 A 
ATOM      6  C   LIG A   1      -7.959   1.687 132.946  0.00  0.00    +0.166 A 
ATOM      7  C   LIG A   1      -8.966   1.752 131.989  0.00  0.00    +0.096 A 
ATOM      8  C   LIG A   1      -9.474   2.995 131.630  0.00  0.00    +0.146 A 
ATOM      9  O   LIG A   1     -10.483   3.007 130.704  0.00  0.00    -0.462 OA
ATOM     10  C   LIG A   1     -11.051   4.223 130.393  0.00  0.00    +0.208 A 
ATOM     11  C   LIG A   1     -10.718   5.428 130.885  0.00  0.00    +0.065 A 
ENDROOT
BRANCH  11  12
ATOM     12  C   LIG A   1     -11.429   6.661 130.464  0.00  0.00    -0.008 A 
ATOM     13  C   LIG A   1     -11.045   7.329 129.295  0.00  0.00    +0.058 A 
ATOM     14  C   LIG A   1     -11.669   8.509 128.880  0.00  0.00    +0.159 A 
ATOM     15  C   LIG A   1     -12.723   9.049 129.618  0.00  0.00    +0.161 A 
ATOM     16  C   LIG A   1     -13.137   8.378 130.772  0.00  0.00    +0.050 A 
ATOM     17  C   LIG A   1     -12.488   7.212 131.204  0.00  0.00    +0.012 A 
BRANCH  14  18
ATOM     18  O   LIG A   1     -11.230   9.088 127.723  0.00  0.00    -0.503 OA
ATOM     19  H   LIG A   1     -11.272  10.053 127.810  0.00  0.00    +0.292 HD
ENDBRANCH  14  18
BRANCH  15  20
ATOM     20  O   LIG A   1     -13.453  10.166 129.316  0.00  0.00    -0.491 OA
ATOM     21  C   LIG A   1     -13.513  11.173 130.322  0.00  0.00    +0.277 C 
ENDBRANCH  15  20
ENDBRANCH  11  12
BRANCH   4  22
ATOM     22  O   LIG A   1      -7.413   5.229 133.718  0.00  0.00    -0.503 OA
ATOM     23  H   LIG A   1      -6.758   4.985 134.412  0.00  0.00    +0.292 HD
ENDBRANCH   4  22
BRANCH   5  24
ATOM     24  O   LIG A   1      -6.443   2.558 134.473  0.00  0.00    -0.488 OA
ATOM     25  C   LIG A   1      -5.087   2.736 134.080  0.00  0.00    +0.277 C 
ENDBRANCH   5  24
BRANCH   6  26
ATOM     26  O   LIG A   1      -7.506   0.445 133.305  0.00  0.00    -0.503 OA
ATOM     27  H   LIG A   1      -8.263   0.019 133.755  0.00  0.00    +0.292 HD
ENDBRANCH   6  26
TORSDOF 6
ENDMDL
MODEL 3
REMARK VINA RESULT:      -6.9      8.982     11.372
REMARK  Name = NuBBE_2025
REMARK  8 active torsions:
REMARK  status: ('A' for Active; 'I' for Inactive)
REMARK    1  A    between atoms: C_4  and  O_5
REMARK    2  A    between atoms: C_6  and  O_7
REMARK    3  A    between atoms: O_7  and  C_8
REMARK    4  A    between atoms: C_9  and  O_10
REMARK    5  A    between atoms: C_15  and  C_16
REMARK    6  A    between atoms: C_18  and  O_19
REMARK    7  A    between atoms: C_20  and  O_21
REMARK    8  A    between atoms: O_21  and  C_22
REMARK                            x       y       z     vdW  Elec       q    Type
REMARK                         _______ _______ _______ _____ _____    ______ ____
ROOT
ATOM      1  O   LIG A   1      -5.667  -2.112 128.138  0.00  0.00    -0.286 OA
ATOM      2  C   LIG A   1      -6.776  -2.614 128.029  0.00  0.00    +0.204 A 
ATOM      3  C   LIG A   1      -7.511  -2.442 126.759  0.00  0.00    +0.110 A 
ATOM      4  C   LIG A   1      -6.936  -1.740 125.680  0.00  0.00    +0.177 A 
ATOM      5  C   LIG A   1      -7.623  -1.662 124.462  0.00  0.00    +0.204 A 
ATOM      6  C   LIG A   1      -8.887  -2.269 124.374  0.00  0.00    +0.166 A 
ATOM      7  C   LIG A   1      -9.470  -2.934 125.447  0.00  0.00    +0.096 A 
ATOM      8  C   LIG A   1      -8.770  -3.021 126.644  0.00  0.00    +0.146 A 
ATOM      9  O   LIG A   1      -9.373  -3.709 127.664  0.00  0.00    -0.462 OA
ATOM     10  C   LIG A   1      -8.662  -3.872 128.833  0.00  0.00    +0.208 A 
ATOM     11  C   LIG A   1      -7.429  -3.415 129.109  0.00  0.00    +0.065 A 
ENDROOT
BRANCH  11  12
ATOM     12  C   LIG A   1      -6.779  -3.677 130.416  0.00  0.00    -0.008 A 
ATOM     13  C   LIG A   1      -7.151  -2.939 131.547  0.00  0.00    +0.058 A 
ATOM     14  C   LIG A   1      -6.541  -3.135 132.789  0.00  0.00    +0.159 A 
ATOM     15  C   LIG A   1      -5.547  -4.102 132.945  0.00  0.00    +0.161 A 
ATOM     16  C   LIG A   1      -5.186  -4.867 131.833  0.00  0.00    +0.050 A 
ATOM     17  C   LIG A   1      -5.775  -4.646 130.580  0.00  0.00    +0.012 A 
BRANCH  14  18
ATOM     18  O   LIG A   1      -6.974  -2.371 133.837  0.00  0.00    -0.503 OA
ATOM     19  H   LIG A   1      -7.461  -1.605 133.495  0.00  0.00    +0.292 HD
ENDBRANCH  14  18
BRANCH  15  20
ATOM     20  O   LIG A   1      -4.894  -4.434 134.101  0.00  0.00    -0.491 OA
ATOM     21  C   LIG A   1      -5.232  -5.693 134.677  0.00  0.00    +0.277 C 
ENDBRANCH  15  20
ENDBRANCH  11  12
BRANCH   4  22
ATOM     22  O   LIG A   1      -5.708  -1.143 125.812  0.00  0.00    -0.503 OA
ATOM     23  H   LIG A   1      -5.010  -1.838 125.791  0.00  0.00    +0.292 HD
ENDBRANCH   4  22
BRANCH   5  24
ATOM     24  O   LIG A   1      -7.223  -1.065 123.293  0.00  0.00    -0.488 OA
ATOM     25  C   LIG A   1      -6.303  -1.768 122.466  0.00  0.00    +0.277 C 
ENDBRANCH   5  24
BRANCH   6  26
ATOM     26  O   LIG A   1      -9.586  -2.232 123.196  0.00  0.00    -0.503 OA
ATOM     27  H   LIG A   1     -10.442  -1.817 123.421  0.00  0.00    +0.292 HD
ENDBRANCH   6  26
TORSDOF 6
ENDMDL
MODEL 4
REMARK VINA RESULT:      -6.9      7.212      9.184
REMARK  Name = NuBBE_2025
REMARK  8 active torsions:
REMARK  status: ('A' for Active; 'I' for Inactive)
REMARK    1  A    between atoms: C_4  and  O_5
REMARK    2  A    between atoms: C_6  and  O_7
REMARK    3  A    between atoms: O_7  and  C_8
REMARK    4  A    between atoms: C_9  and  O_10
REMARK    5  A    between atoms: C_15  and  C_16
REMARK    6  A    between atoms: C_18  and  O_19
REMARK    7  A    between atoms: C_20  and  O_21
REMARK    8  A    between atoms: O_21  and  C_22
REMARK                            x       y       z     vdW  Elec       q    Type
REMARK                         _______ _______ _______ _____ _____    ______ ____
ROOT
ATOM      1  O   LIG A   1      -5.936   0.852 126.294  0.00  0.00    -0.286 OA
ATOM      2  C   LIG A   1      -6.464   1.637 125.522  0.00  0.00    +0.204 A 
ATOM      3  C   LIG A   1      -7.546   1.150 124.643  0.00  0.00    +0.110 A 
ATOM      4  C   LIG A   1      -7.987  -0.188 124.712  0.00  0.00    +0.177 A 
ATOM      5  C   LIG A   1      -9.068  -0.601 123.923  0.00  0.00    +0.204 A 
ATOM      6  C   LIG A   1      -9.658   0.340 123.062  0.00  0.00    +0.166 A 
ATOM      7  C   LIG A   1      -9.205   1.651 122.969  0.00  0.00    +0.096 A 
ATOM      8  C   LIG A   1      -8.143   2.054 123.771  0.00  0.00    +0.146 A 
ATOM      9  O   LIG A   1      -7.749   3.362 123.664  0.00  0.00    -0.462 OA
ATOM     10  C   LIG A   1      -6.750   3.800 124.506  0.00  0.00    +0.208 A 
ATOM     11  C   LIG A   1      -6.087   3.081 125.428  0.00  0.00    +0.065 A 
ENDROOT
BRANCH  11  12
ATOM     12  C   LIG A   1      -5.034   3.692 126.276  0.00  0.00    -0.008 A 
ATOM     13  C   LIG A   1      -3.685   3.403 126.040  0.00  0.00    +0.058 A 
ATOM     14  C   LIG A   1      -2.665   3.933 126.836  0.00  0.00    +0.159 A 
ATOM     15  C   LIG A   1      -2.967   4.796 127.889  0.00  0.00    +0.161 A 
ATOM     16  C   LIG A   1      -4.308   5.118 128.120  0.00  0.00    +0.050 A 
ATOM     17  C   LIG A   1      -5.331   4.558 127.341  0.00  0.00    +0.012 A 
BRANCH  14  18
ATOM     18  O   LIG A   1      -1.377   3.599 126.524  0.00  0.00    -0.503 OA
ATOM     19  H   LIG A   1      -1.294   2.632 126.502  0.00  0.00    +0.292 HD
ENDBRANCH  14  18
BRANCH  15  20
ATOM     20  O   LIG A   1      -2.080   5.422 128.721  0.00  0.00    -0.491 OA
ATOM     21  C   LIG A   1      -2.078   6.847 128.686  0.00  0.00    +0.277 C 
ENDBRANCH  15  20
ENDBRANCH  11  12
BRANCH   4  22
ATOM     22  O   LIG A   1      -7.371  -1.082 125.550  0.00  0.00    -0.503 OA
ATOM     23  H   LIG A   1      -6.838  -1.712 125.012  0.00  0.00    +0.292 HD
ENDBRANCH   4  22
BRANCH   5  24
ATOM     24  O   LIG A   1      -9.665  -1.835 123.873  0.00  0.00    -0.488 OA
ATOM     25  C   LIG A   1      -8.963  -2.889 123.223  0.00  0.00    +0.277 C 
ENDBRANCH   5  24
BRANCH   6  26
ATOM     26  O   LIG A   1     -10.729  -0.016 122.286  0.00  0.00    -0.503 OA
ATOM     27  H   LIG A   1     -10.998   0.807 121.831  0.00  0.00    +0.292 HD
ENDBRANCH   6  26
TORSDOF 6
ENDMDL
MODEL 5
REMARK VINA RESULT:      -6.8      4.072      4.714
REMARK  Name = NuBBE_2025
REMARK  8 active torsions:
REMARK  status: ('A' for Active; 'I' for Inactive)
REMARK    1  A    between atoms: C_4  and  O_5
REMARK    2  A    between atoms: C_6  and  O_7
REMARK    3  A    between atoms: O_7  and  C_8
REMARK    4  A    between atoms: C_9  and  O_10
REMARK    5  A    between atoms: C_15  and  C_16
REMARK    6  A    between atoms: C_18  and  O_19
REMARK    7  A    between atoms: C_20  and  O_21
REMARK    8  A    between atoms: O_21  and  C_22
REMARK                            x       y       z     vdW  Elec       q    Type
REMARK                         _______ _______ _______ _____ _____    ______ ____
ROOT
ATOM      1  O   LIG A   1      -6.742   7.542 130.426  0.00  0.00    -0.286 OA
ATOM      2  C   LIG A   1      -6.896   6.777 131.365  0.00  0.00    +0.204 A 
ATOM      3  C   LIG A   1      -5.707   6.325 132.116  0.00  0.00    +0.110 A 
ATOM      4  C   LIG A   1      -4.419   6.791 131.779  0.00  0.00    +0.177 A 
ATOM      5  C   LIG A   1      -3.320   6.408 132.558  0.00  0.00    +0.204 A 
ATOM      6  C   LIG A   1      -3.545   5.541 133.640  0.00  0.00    +0.166 A 
ATOM      7  C   LIG A   1      -4.809   5.056 133.956  0.00  0.00    +0.096 A 
ATOM      8  C   LIG A   1      -5.895   5.458 133.187  0.00  0.00    +0.146 A 
ATOM      9  O   LIG A   1      -7.124   4.976 133.552  0.00  0.00    -0.462 OA
ATOM     10  C   LIG A   1      -8.221   5.424 132.849  0.00  0.00    +0.208 A 
ATOM     11  C   LIG A   1      -8.233   6.282 131.815  0.00  0.00    +0.065 A 
ENDROOT
BRANCH  11  12
ATOM     12  C   LIG A   1      -9.500   6.685 131.157  0.00  0.00    -0.008 A 
ATOM     13  C   LIG A   1      -9.471   7.403 129.956  0.00  0.00    +0.058 A 
ATOM     14  C   LIG A   1     -10.641   7.829 129.321  0.00  0.00    +0.159 A 
ATOM     15  C   LIG A   1     -11.890   7.525 129.862  0.00  0.00    +0.161 A 
ATOM     16  C   LIG A   1     -11.937   6.783 131.046  0.00  0.00    +0.050 A 
ATOM     17  C   LIG A   1     -10.761   6.386 131.699  0.00  0.00    +0.012 A 
BRANCH  14  18
ATOM     18  O   LIG A   1     -10.513   8.519 128.148  0.00  0.00    -0.503 OA
ATOM     19  H   LIG A   1     -10.821   7.964 127.414  0.00  0.00    +0.292 HD
ENDBRANCH  14  18
BRANCH  15  20
ATOM     20  O   LIG A   1     -13.115   7.834 129.336  0.00  0.00    -0.491 OA
ATOM     21  C   LIG A   1     -13.604   6.963 128.320  0.00  0.00    +0.277 C 
ENDBRANCH  15  20
ENDBRANCH  11  12
BRANCH   4  22
ATOM     22  O   LIG A   1      -4.238   7.620 130.701  0.00  0.00    -0.503 OA
ATOM     23  H   LIG A   1      -4.076   7.071 129.898  0.00  0.00    +0.292 HD
ENDBRANCH   4  22
BRANCH   5  24
ATOM     24  O   LIG A   1      -2.006   6.778 132.419  0.00  0.00    -0.488 OA
ATOM     25  C   LIG A   1      -1.629   8.076 132.863  0.00  0.00    +0.277 C 
ENDBRANCH   5  24
BRANCH   6  26
ATOM     26  O   LIG A   1      -2.502   5.156 134.440  0.00  0.00    -0.503 OA
ATOM     27  H   LIG A   1      -2.774   5.397 135.348  0.00  0.00    +0.292 HD
ENDBRANCH   6  26
TORSDOF 6
ENDMDL
MODEL 6
REMARK VINA RESULT:      -6.7      8.820     11.083
REMARK  Name = NuBBE_2025
REMARK  8 active torsions:
REMARK  status: ('A' for Active; 'I' for Inactive)
REMARK    1  A    between atoms: C_4  and  O_5
REMARK    2  A    between atoms: C_6  and  O_7
REMARK    3  A    between atoms: O_7  and  C_8
REMARK    4  A    between atoms: C_9  and  O_10
REMARK    5  A    between atoms: C_15  and  C_16
REMARK    6  A    between atoms: C_18  and  O_19
REMARK    7  A    between atoms: C_20  and  O_21
REMARK    8  A    between atoms: O_21  and  C_22
REMARK                            x       y       z     vdW  Elec       q    Type
REMARK                         _______ _______ _______ _____ _____    ______ ____
ROOT
ATOM      1  O   LIG A   1      -8.632  -3.565 128.811  0.00  0.00    -0.286 OA
ATOM      2  C   LIG A   1      -7.585  -3.041 128.462  0.00  0.00    +0.204 A 
ATOM      3  C   LIG A   1      -7.462  -2.554 127.073  0.00  0.00    +0.110 A 
ATOM      4  C   LIG A   1      -8.542  -2.660 126.172  0.00  0.00    +0.177 A 
ATOM      5  C   LIG A   1      -8.424  -2.118 124.886  0.00  0.00    +0.204 A 
ATOM      6  C   LIG A   1      -7.209  -1.508 124.532  0.00  0.00    +0.166 A 
ATOM      7  C   LIG A   1      -6.133  -1.429 125.409  0.00  0.00    +0.096 A 
ATOM      8  C   LIG A   1      -6.268  -1.954 126.689  0.00  0.00    +0.146 A 
ATOM      9  O   LIG A   1      -5.190  -1.830 127.526  0.00  0.00    -0.462 OA
ATOM     10  C   LIG A   1      -5.332  -2.275 128.822  0.00  0.00    +0.208 A 
ATOM     11  C   LIG A   1      -6.416  -2.845 129.374  0.00  0.00    +0.065 A 
ENDROOT
BRANCH  11  12
ATOM     12  C   LIG A   1      -6.429  -3.269 130.796  0.00  0.00    -0.008 A 
ATOM     13  C   LIG A   1      -7.194  -2.563 131.733  0.00  0.00    +0.058 A 
ATOM     14  C   LIG A   1      -7.209  -2.911 133.087  0.00  0.00    +0.159 A 
ATOM     15  C   LIG A   1      -6.470  -4.002 133.544  0.00  0.00    +0.161 A 
ATOM     16  C   LIG A   1      -5.725  -4.735 132.617  0.00  0.00    +0.050 A 
ATOM     17  C   LIG A   1      -5.685  -4.364 131.265  0.00  0.00    +0.012 A 
BRANCH  14  18
ATOM     18  O   LIG A   1      -7.990  -2.166 133.925  0.00  0.00    -0.503 OA
ATOM     19  H   LIG A   1      -7.718  -1.236 133.875  0.00  0.00    +0.292 HD
ENDBRANCH  14  18
BRANCH  15  20
ATOM     20  O   LIG A   1      -6.421  -4.486 134.824  0.00  0.00    -0.491 OA
ATOM     21  C   LIG A   1      -6.366  -5.903 134.961  0.00  0.00    +0.277 C 
ENDBRANCH  15  20
ENDBRANCH  11  12
BRANCH   4  22
ATOM     22  O   LIG A   1      -9.705  -3.283 126.548  0.00  0.00    -0.503 OA
ATOM     23  H   LIG A   1     -10.051  -3.802 125.786  0.00  0.00    +0.292 HD
ENDBRANCH   4  22
BRANCH   5  24
ATOM     24  O   LIG A   1      -9.362  -2.085 123.885  0.00  0.00    -0.488 OA
ATOM     25  C   LIG A   1      -9.647  -3.300 123.199  0.00  0.00    +0.277 C 
ENDBRANCH   5  24
BRANCH   6  26
ATOM     26  O   LIG A   1      -7.057  -0.948 123.292  0.00  0.00    -0.503 OA
ATOM     27  H   LIG A   1      -7.210  -1.680 122.662  0.00  0.00    +0.292 HD
ENDBRANCH   6  26
TORSDOF 6
ENDMDL
MODEL 7
REMARK VINA RESULT:      -6.5      4.152      8.225
REMARK  Name = NuBBE_2025
REMARK  8 active torsions:
REMARK  status: ('A' for Active; 'I' for Inactive)
REMARK    1  A    between atoms: C_4  and  O_5
REMARK    2  A    between atoms: C_6  and  O_7
REMARK    3  A    between atoms: O_7  and  C_8
REMARK    4  A    between atoms: C_9  and  O_10
REMARK    5  A    between atoms: C_15  and  C_16
REMARK    6  A    between atoms: C_18  and  O_19
REMARK    7  A    between atoms: C_20  and  O_21
REMARK    8  A    between atoms: O_21  and  C_22
REMARK                            x       y       z     vdW  Elec       q    Type
REMARK                         _______ _______ _______ _____ _____    ______ ____
ROOT
ATOM      1  O   LIG A   1      -8.540   2.593 127.549  0.00  0.00    -0.286 OA
ATOM      2  C   LIG A   1      -8.391   1.815 128.479  0.00  0.00    +0.204 A 
ATOM      3  C   LIG A   1      -8.718   2.272 129.845  0.00  0.00    +0.110 A 
ATOM      4  C   LIG A   1      -9.223   3.568 130.073  0.00  0.00    +0.177 A 
ATOM      5  C   LIG A   1      -9.600   3.946 131.368  0.00  0.00    +0.204 A 
ATOM      6  C   LIG A   1      -9.429   3.015 132.406  0.00  0.00    +0.166 A 
ATOM      7  C   LIG A   1      -8.902   1.746 132.189  0.00  0.00    +0.096 A 
ATOM      8  C   LIG A   1      -8.550   1.377 130.896  0.00  0.00    +0.146 A 
ATOM      9  O   LIG A   1      -8.060   0.108 130.727  0.00  0.00    -0.462 OA
ATOM     10  C   LIG A   1      -7.778  -0.303 129.443  0.00  0.00    +0.208 A 
ATOM     11  C   LIG A   1      -7.910   0.409 128.311  0.00  0.00    +0.065 A 
ENDROOT
BRANCH  11  12
ATOM     12  C   LIG A   1      -7.576  -0.170 126.987  0.00  0.00    -0.008 A 
ATOM     13  C   LIG A   1      -8.583  -0.722 126.186  0.00  0.00    +0.058 A 
ATOM     14  C   LIG A   1      -8.304  -1.305 124.946  0.00  0.00    +0.159 A 
ATOM     15  C   LIG A   1      -6.999  -1.333 124.455  0.00  0.00    +0.161 A 
ATOM     16  C   LIG A   1      -5.986  -0.760 125.229  0.00  0.00    +0.050 A 
ATOM     17  C   LIG A   1      -6.263  -0.205 126.487  0.00  0.00    +0.012 A 
BRANCH  14  18
ATOM     18  O   LIG A   1      -9.354  -1.813 124.233  0.00  0.00    -0.503 OA
ATOM     19  H   LIG A   1      -9.911  -2.349 124.820  0.00  0.00    +0.292 HD
ENDBRANCH  14  18
BRANCH  15  20
ATOM     20  O   LIG A   1      -6.583  -1.827 123.249  0.00  0.00    -0.491 OA
ATOM     21  C   LIG A   1      -5.469  -2.715 123.281  0.00  0.00    +0.277 C 
ENDBRANCH  15  20
ENDBRANCH  11  12
BRANCH   4  22
ATOM     22  O   LIG A   1      -9.355   4.457 129.036  0.00  0.00    -0.503 OA
ATOM     23  H   LIG A   1      -9.754   3.992 128.264  0.00  0.00    +0.292 HD
ENDBRANCH   4  22
BRANCH   5  24
ATOM     24  O   LIG A   1     -10.141   5.135 131.787  0.00  0.00    -0.488 OA
ATOM     25  C   LIG A   1      -9.284   6.269 131.855  0.00  0.00    +0.277 C 
ENDBRANCH   5  24
BRANCH   6  26
ATOM     26  O   LIG A   1      -9.801   3.335 133.684  0.00  0.00    -0.503 OA
ATOM     27  H   LIG A   1     -10.229   2.528 134.035  0.00  0.00    +0.292 HD
ENDBRANCH   6  26
TORSDOF 6
ENDMDL
MODEL 8
REMARK VINA RESULT:      -6.3      2.806      7.766
REMARK  Name = NuBBE_2025
REMARK  8 active torsions:
REMARK  status: ('A' for Active; 'I' for Inactive)
REMARK    1  A    between atoms: C_4  and  O_5
REMARK    2  A    between atoms: C_6  and  O_7
REMARK    3  A    between atoms: O_7  and  C_8
REMARK    4  A    between atoms: C_9  and  O_10
REMARK    5  A    between atoms: C_15  and  C_16
REMARK    6  A    between atoms: C_18  and  O_19
REMARK    7  A    between atoms: C_20  and  O_21
REMARK    8  A    between atoms: O_21  and  C_22
REMARK                            x       y       z     vdW  Elec       q    Type
REMARK                         _______ _______ _______ _____ _____    ______ ____
ROOT
ATOM      1  O   LIG A   1     -10.599   6.652 132.514  0.00  0.00    -0.286 OA
ATOM      2  C   LIG A   1      -9.970   6.371 131.505  0.00  0.00    +0.204 A 
ATOM      3  C   LIG A   1     -10.564   6.678 130.189  0.00  0.00    +0.110 A 
ATOM      4  C   LIG A   1     -11.821   7.311 130.092  0.00  0.00    +0.177 A 
ATOM      5  C   LIG A   1     -12.324   7.661 128.833  0.00  0.00    +0.204 A 
ATOM      6  C   LIG A   1     -11.558   7.336 127.700  0.00  0.00    +0.166 A 
ATOM      7  C   LIG A   1     -10.333   6.684 127.791  0.00  0.00    +0.096 A 
ATOM      8  C   LIG A   1      -9.836   6.358 129.047  0.00  0.00    +0.146 A 
ATOM      9  O   LIG A   1      -8.614   5.741 129.088  0.00  0.00    -0.462 OA
ATOM     10  C   LIG A   1      -8.070   5.480 130.327  0.00  0.00    +0.208 A 
ATOM     11  C   LIG A   1      -8.611   5.747 131.527  0.00  0.00    +0.065 A 
ENDROOT
BRANCH  11  12
ATOM     12  C   LIG A   1      -7.901   5.418 132.788  0.00  0.00    -0.008 A 
ATOM     13  C   LIG A   1      -6.646   5.979 133.055  0.00  0.00    +0.058 A 
ATOM     14  C   LIG A   1      -5.932   5.670 134.216  0.00  0.00    +0.159 A 
ATOM     15  C   LIG A   1      -6.467   4.799 135.166  0.00  0.00    +0.161 A 
ATOM     16  C   LIG A   1      -7.731   4.253 134.927  0.00  0.00    +0.050 A 
ATOM     17  C   LIG A   1      -8.432   4.539 133.746  0.00  0.00    +0.012 A 
BRANCH  14  18
ATOM     18  O   LIG A   1      -4.717   6.271 134.394  0.00  0.00    -0.503 OA
ATOM     19  H   LIG A   1      -4.827   7.058 134.951  0.00  0.00    +0.292 HD
ENDBRANCH  14  18
BRANCH  15  20
ATOM     20  O   LIG A   1      -5.907   4.438 136.361  0.00  0.00    -0.491 OA
ATOM     21  C   LIG A   1      -5.037   3.311 136.336  0.00  0.00    +0.277 C 
ENDBRANCH  15  20
ENDBRANCH  11  12
BRANCH   4  22
ATOM     22  O   LIG A   1     -12.548   7.592 131.221  0.00  0.00    -0.503 OA
ATOM     23  H   LIG A   1     -13.299   8.182 130.980  0.00  0.00    +0.292 HD
ENDBRANCH   4  22
BRANCH   5  24
ATOM     24  O   LIG A   1     -13.495   8.308 128.532  0.00  0.00    -0.488 OA
ATOM     25  C   LIG A   1     -13.545   9.718 128.722  0.00  0.00    +0.277 C 
ENDBRANCH   5  24
BRANCH   6  26
ATOM     26  O   LIG A   1     -12.003   7.677 126.450  0.00  0.00    -0.503 OA
ATOM     27  H   LIG A   1     -11.439   8.426 126.175  0.00  0.00    +0.292 HD
ENDBRANCH   6  26
TORSDOF 6
ENDMDL
MODEL 9
REMARK VINA RESULT:      -6.3      2.398      3.498
REMARK  Name = NuBBE_2025
REMARK  8 active torsions:
REMARK  status: ('A' for Active; 'I' for Inactive)
REMARK    1  A    between atoms: C_4  and  O_5
REMARK    2  A    between atoms: C_6  and  O_7
REMARK    3  A    between atoms: O_7  and  C_8
REMARK    4  A    between atoms: C_9  and  O_10
REMARK    5  A    between atoms: C_15  and  C_16
REMARK    6  A    between atoms: C_18  and  O_19
REMARK    7  A    between atoms: C_20  and  O_21
REMARK    8  A    between atoms: O_21  and  C_22
REMARK                            x       y       z     vdW  Elec       q    Type
REMARK                         _______ _______ _______ _____ _____    ______ ____
ROOT
ATOM      1  O   LIG A   1      -9.534   6.565 133.341  0.00  0.00    -0.286 OA
ATOM      2  C   LIG A   1      -8.815   6.009 132.525  0.00  0.00    +0.204 A 
ATOM      3  C   LIG A   1      -7.661   5.228 133.011  0.00  0.00    +0.110 A 
ATOM      4  C   LIG A   1      -7.407   5.095 134.392  0.00  0.00    +0.177 A 
ATOM      5  C   LIG A   1      -6.352   4.283 134.826  0.00  0.00    +0.204 A 
ATOM      6  C   LIG A   1      -5.561   3.647 133.853  0.00  0.00    +0.166 A 
ATOM      7  C   LIG A   1      -5.790   3.801 132.490  0.00  0.00    +0.096 A 
ATOM      8  C   LIG A   1      -6.851   4.595 132.072  0.00  0.00    +0.146 A 
ATOM      9  O   LIG A   1      -7.054   4.696 130.721  0.00  0.00    -0.462 OA
ATOM     10  C   LIG A   1      -8.147   5.415 130.290  0.00  0.00    +0.208 A 
ATOM     11  C   LIG A   1      -9.050   6.060 131.049  0.00  0.00    +0.065 A 
ENDROOT
BRANCH  11  12
ATOM     12  C   LIG A   1     -10.190   6.791 130.443  0.00  0.00    -0.008 A 
ATOM     13  C   LIG A   1     -10.021   7.485 129.239  0.00  0.00    +0.058 A 
ATOM     14  C   LIG A   1     -11.062   8.211 128.653  0.00  0.00    +0.159 A 
ATOM     15  C   LIG A   1     -12.323   8.245 129.248  0.00  0.00    +0.161 A 
ATOM     16  C   LIG A   1     -12.517   7.533 130.435  0.00  0.00    +0.050 A 
ATOM     17  C   LIG A   1     -11.462   6.833 131.039  0.00  0.00    +0.012 A 
BRANCH  14  18
ATOM     18  O   LIG A   1     -10.804   8.852 127.474  0.00  0.00    -0.503 OA
ATOM     19  H   LIG A   1     -10.242   8.288 126.918  0.00  0.00    +0.292 HD
ENDBRANCH  14  18
BRANCH  15  20
ATOM     20  O   LIG A   1     -13.442   8.873 128.772  0.00  0.00    -0.491 OA
ATOM     21  C   LIG A   1     -13.571  10.257 129.084  0.00  0.00    +0.277 C 
ENDBRANCH  15  20
ENDBRANCH  11  12
BRANCH   4  22
ATOM     22  O   LIG A   1      -8.189   5.749 135.310  0.00  0.00    -0.503 OA
ATOM     23  H   LIG A   1      -8.171   6.715 135.117  0.00  0.00    +0.292 HD
ENDBRANCH   4  22
BRANCH   5  24
ATOM     24  O   LIG A   1      -5.968   3.997 136.112  0.00  0.00    -0.488 OA
ATOM     25  C   LIG A   1      -5.224   4.982 136.819  0.00  0.00    +0.277 C 
ENDBRANCH   5  24
BRANCH   6  26
ATOM     26  O   LIG A   1      -4.531   2.829 134.233  0.00  0.00    -0.503 OA
ATOM     27  H   LIG A   1      -3.815   3.434 134.514  0.00  0.00    +0.292 HD
ENDBRANCH   6  26
TORSDOF 6
ENDMDL
