MODEL 1
REMARK VINA RESULT:      -7.1      0.000      0.000
REMARK  Name = NuBBE_2383
REMARK  12 active torsions:
REMARK  status: ('A' for Active; 'I' for Inactive)
REMARK    1  A    between atoms: C_1  and  C_25
REMARK    2  A    between atoms: C_1  and  C_26
REMARK    3  A    between atoms: C_3  and  C_4
REMARK    4  A    between atoms: C_4  and  O_5
REMARK    5  A    between atoms: C_4  and  O_6
REMARK    6  A    between atoms: C_8  and  O_20
REMARK    7  A    between atoms: C_9  and  O_10
REMARK    8  A    between atoms: O_10  and  C_11
REMARK    9  A    between atoms: C_12  and  C_17
REMARK   10  A    between atoms: C_17  and  C_18
REMARK   11  A    between atoms: C_17  and  C_19
REMARK   12  A    between atoms: O_20  and  C_21
REMARK                            x       y       z     vdW  Elec       q    Type
REMARK                         _______ _______ _______ _____ _____    ______ ____
ROOT
ATOM      1  C   LIG A   1      -8.370  -2.850 126.122  0.00  0.00    -0.031 C 
ATOM      2  C   LIG A   1      -7.673  -1.510 126.593  0.00  0.00    +0.013 C 
ATOM      3  C   LIG A   1      -7.751  -0.306 125.527  0.00  0.00    +0.075 C 
ATOM      4  C   LIG A   1      -6.563   0.731 125.650  0.00  0.00    +0.015 A 
ATOM      5  C   LIG A   1      -6.479   1.910 124.831  0.00  0.00    +0.166 A 
ATOM      6  C   LIG A   1      -5.591   2.970 125.182  0.00  0.00    +0.165 A 
ATOM      7  C   LIG A   1      -4.586   2.774 126.141  0.00  0.00    +0.001 A 
ATOM      8  C   LIG A   1      -4.616   1.570 126.871  0.00  0.00    +0.011 A 
ATOM      9  C   LIG A   1      -5.606   0.590 126.652  0.00  0.00    -0.039 A 
ATOM     10  C   LIG A   1      -5.594  -0.553 127.627  0.00  0.00    +0.036 C 
ATOM     11  C   LIG A   1      -6.220  -1.787 127.030  0.00  0.00    +0.010 C 
ATOM     12  C   LIG A   1      -7.807  -0.909 124.083  0.00  0.00    +0.019 C 
ATOM     13  C   LIG A   1      -7.164  -2.285 123.911  0.00  0.00    +0.002 C 
ATOM     14  C   LIG A   1      -7.666  -3.377 124.857  0.00  0.00    +0.007 C 
ATOM     15  C   LIG A   1      -8.303  -3.933 127.233  0.00  0.00    +0.011 C 
ATOM     16  C   LIG A   1      -9.883  -2.707 125.830  0.00  0.00    +0.011 C 
ENDROOT
BRANCH   7  17
ATOM     17  C   LIG A   1      -3.501   3.803 126.470  0.00  0.00    +0.017 C 
ATOM     18  C   LIG A   1      -2.091   3.204 126.706  0.00  0.00    +0.012 C 
ATOM     19  C   LIG A   1      -3.862   4.646 127.699  0.00  0.00    +0.012 C 
ENDBRANCH   7  17
BRANCH   6  20
ATOM     20  O   LIG A   1      -5.659   4.235 124.630  0.00  0.00    -0.491 OA
ATOM     21  C   LIG A   1      -6.646   5.128 125.162  0.00  0.00    +0.277 C 
ENDBRANCH   6  20
BRANCH   5  22
ATOM     22  O   LIG A   1      -7.358   1.965 123.775  0.00  0.00    -0.491 OA
ATOM     23  C   LIG A   1      -6.864   2.336 122.484  0.00  0.00    +0.277 C 
ENDBRANCH   5  22
BRANCH   3  24
ATOM     24  C   LIG A   1      -9.108   0.468 125.873  0.00  0.00    +0.356 C 
BRANCH  24  25
ATOM     25  O   LIG A   1      -9.970   0.770 124.802  0.00  0.00    -0.507 OA
ATOM     26  H   LIG A   1     -10.066   1.738 124.809  0.00  0.00    +0.287 HD
ENDBRANCH  24  25
BRANCH  24  27
ATOM     27  O   LIG A   1      -8.870   1.674 126.582  0.00  0.00    -0.507 OA
ATOM     28  H   LIG A   1      -9.353   1.565 127.417  0.00  0.00    +0.287 HD
ENDBRANCH  24  27
ENDBRANCH   3  24
TORSDOF 6
ENDMDL
MODEL 2
REMARK VINA RESULT:      -7.1      2.650      4.862
REMARK  Name = NuBBE_2383
REMARK  12 active torsions:
REMARK  status: ('A' for Active; 'I' for Inactive)
REMARK    1  A    between atoms: C_1  and  C_25
REMARK    2  A    between atoms: C_1  and  C_26
REMARK    3  A    between atoms: C_3  and  C_4
REMARK    4  A    between atoms: C_4  and  O_5
REMARK    5  A    between atoms: C_4  and  O_6
REMARK    6  A    between atoms: C_8  and  O_20
REMARK    7  A    between atoms: C_9  and  O_10
REMARK    8  A    between atoms: O_10  and  C_11
REMARK    9  A    between atoms: C_12  and  C_17
REMARK   10  A    between atoms: C_17  and  C_18
REMARK   11  A    between atoms: C_17  and  C_19
REMARK   12  A    between atoms: O_20  and  C_21
REMARK                            x       y       z     vdW  Elec       q    Type
REMARK                         _______ _______ _______ _____ _____    ______ ____
ROOT
ATOM      1  C   LIG A   1      -8.756  -2.204 123.781  0.00  0.00    -0.031 C 
ATOM      2  C   LIG A   1      -8.871  -2.113 125.356  0.00  0.00    +0.013 C 
ATOM      3  C   LIG A   1      -8.041  -0.903 126.019  0.00  0.00    +0.075 C 
ATOM      4  C   LIG A   1      -7.597  -1.180 127.512  0.00  0.00    +0.015 A 
ATOM      5  C   LIG A   1      -6.897  -0.203 128.303  0.00  0.00    +0.166 A 
ATOM      6  C   LIG A   1      -6.802  -0.355 129.718  0.00  0.00    +0.165 A 
ATOM      7  C   LIG A   1      -7.119  -1.578 130.329  0.00  0.00    +0.001 A 
ATOM      8  C   LIG A   1      -7.713  -2.568 129.523  0.00  0.00    +0.011 A 
ATOM      9  C   LIG A   1      -7.977  -2.356 128.154  0.00  0.00    -0.039 A 
ATOM     10  C   LIG A   1      -8.765  -3.445 127.483  0.00  0.00    +0.036 C 
ATOM     11  C   LIG A   1      -8.509  -3.468 125.999  0.00  0.00    +0.010 C 
ATOM     12  C   LIG A   1      -6.795  -0.593 125.124  0.00  0.00    +0.019 C 
ATOM     13  C   LIG A   1      -6.264  -1.760 124.292  0.00  0.00    +0.002 C 
ATOM     14  C   LIG A   1      -7.286  -2.452 123.388  0.00  0.00    +0.007 C 
ATOM     15  C   LIG A   1      -9.636  -3.354 123.223  0.00  0.00    +0.011 C 
ATOM     16  C   LIG A   1      -9.268  -0.947 123.037  0.00  0.00    +0.011 C 
ENDROOT
BRANCH   7  17
ATOM     17  C   LIG A   1      -6.905  -1.876 131.816  0.00  0.00    +0.017 C 
ATOM     18  C   LIG A   1      -6.588  -3.358 132.140  0.00  0.00    +0.012 C 
ATOM     19  C   LIG A   1      -8.110  -1.458 132.665  0.00  0.00    +0.012 C 
ENDBRANCH   7  17
BRANCH   6  20
ATOM     20  O   LIG A   1      -6.414   0.661 130.569  0.00  0.00    -0.491 OA
ATOM     21  C   LIG A   1      -7.370   1.697 130.829  0.00  0.00    +0.277 C 
ENDBRANCH   6  20
BRANCH   5  22
ATOM     22  O   LIG A   1      -6.428   0.892 127.617  0.00  0.00    -0.491 OA
ATOM     23  C   LIG A   1      -5.034   1.208 127.691  0.00  0.00    +0.277 C 
ENDBRANCH   5  22
BRANCH   3  24
ATOM     24  C   LIG A   1      -9.053   0.335 126.036  0.00  0.00    +0.356 C 
BRANCH  24  25
ATOM     25  O   LIG A   1     -10.375   0.094 125.613  0.00  0.00    -0.507 OA
ATOM     26  H   LIG A   1     -10.762  -0.489 126.289  0.00  0.00    +0.287 HD
ENDBRANCH  24  25
BRANCH  24  27
ATOM     27  O   LIG A   1      -8.562   1.438 125.291  0.00  0.00    -0.507 OA
ATOM     28  H   LIG A   1      -9.352   1.966 125.089  0.00  0.00    +0.287 HD
ENDBRANCH  24  27
ENDBRANCH   3  24
TORSDOF 6
ENDMDL
MODEL 3
REMARK VINA RESULT:      -6.9      3.329      5.142
REMARK  Name = NuBBE_2383
REMARK  12 active torsions:
REMARK  status: ('A' for Active; 'I' for Inactive)
REMARK    1  A    between atoms: C_1  and  C_25
REMARK    2  A    between atoms: C_1  and  C_26
REMARK    3  A    between atoms: C_3  and  C_4
REMARK    4  A    between atoms: C_4  and  O_5
REMARK    5  A    between atoms: C_4  and  O_6
REMARK    6  A    between atoms: C_8  and  O_20
REMARK    7  A    between atoms: C_9  and  O_10
REMARK    8  A    between atoms: O_10  and  C_11
REMARK    9  A    between atoms: C_12  and  C_17
REMARK   10  A    between atoms: C_17  and  C_18
REMARK   11  A    between atoms: C_17  and  C_19
REMARK   12  A    between atoms: O_20  and  C_21
REMARK                            x       y       z     vdW  Elec       q    Type
REMARK                         _______ _______ _______ _____ _____    ______ ____
ROOT
ATOM      1  C   LIG A   1      -7.809  -2.429 124.233  0.00  0.00    -0.031 C 
ATOM      2  C   LIG A   1      -7.636  -1.162 125.166  0.00  0.00    +0.013 C 
ATOM      3  C   LIG A   1      -7.268  -1.503 126.696  0.00  0.00    +0.075 C 
ATOM      4  C   LIG A   1      -7.743  -0.400 127.725  0.00  0.00    +0.015 A 
ATOM      5  C   LIG A   1      -7.461  -0.486 129.133  0.00  0.00    +0.166 A 
ATOM      6  C   LIG A   1      -7.613   0.660 129.969  0.00  0.00    +0.165 A 
ATOM      7  C   LIG A   1      -8.308   1.791 129.515  0.00  0.00    +0.001 A 
ATOM      8  C   LIG A   1      -8.671   1.822 128.155  0.00  0.00    +0.011 A 
ATOM      9  C   LIG A   1      -8.361   0.764 127.275  0.00  0.00    -0.039 A 
ATOM     10  C   LIG A   1      -8.667   1.030 125.829  0.00  0.00    +0.036 C 
ATOM     11  C   LIG A   1      -8.880  -0.255 125.071  0.00  0.00    +0.010 C 
ATOM     12  C   LIG A   1      -7.877  -2.898 127.065  0.00  0.00    +0.019 C 
ATOM     13  C   LIG A   1      -9.117  -3.315 126.275  0.00  0.00    +0.002 C 
ATOM     14  C   LIG A   1      -8.975  -3.293 124.753  0.00  0.00    +0.007 C 
ATOM     15  C   LIG A   1      -8.098  -2.006 122.767  0.00  0.00    +0.011 C 
ATOM     16  C   LIG A   1      -6.542  -3.310 124.125  0.00  0.00    +0.011 C 
ENDROOT
BRANCH   7  17
ATOM     17  C   LIG A   1      -8.646   3.000 130.391  0.00  0.00    +0.017 C 
ATOM     18  C   LIG A   1     -10.152   3.362 130.440  0.00  0.00    +0.012 C 
ATOM     19  C   LIG A   1      -7.877   4.254 129.962  0.00  0.00    +0.012 C 
ENDBRANCH   7  17
BRANCH   6  20
ATOM     20  O   LIG A   1      -7.093   0.745 131.247  0.00  0.00    -0.491 OA
ATOM     21  C   LIG A   1      -5.691   1.019 131.365  0.00  0.00    +0.277 C 
ENDBRANCH   6  20
BRANCH   5  22
ATOM     22  O   LIG A   1      -6.963  -1.692 129.568  0.00  0.00    -0.491 OA
ATOM     23  C   LIG A   1      -7.705  -2.433 130.541  0.00  0.00    +0.277 C 
ENDBRANCH   5  22
BRANCH   3  24
ATOM     24  C   LIG A   1      -5.670  -1.550 126.737  0.00  0.00    +0.356 C 
BRANCH  24  25
ATOM     25  O   LIG A   1      -5.074  -2.389 127.699  0.00  0.00    -0.507 OA
ATOM     26  H   LIG A   1      -5.503  -3.255 127.591  0.00  0.00    +0.287 HD
ENDBRANCH  24  25
BRANCH  24  27
ATOM     27  O   LIG A   1      -5.101  -0.259 126.886  0.00  0.00    -0.507 OA
ATOM     28  H   LIG A   1      -5.697   0.201 127.499  0.00  0.00    +0.287 HD
ENDBRANCH  24  27
ENDBRANCH   3  24
TORSDOF 6
ENDMDL
MODEL 4
REMARK VINA RESULT:      -6.6      3.021      5.813
REMARK  Name = NuBBE_2383
REMARK  12 active torsions:
REMARK  status: ('A' for Active; 'I' for Inactive)
REMARK    1  A    between atoms: C_1  and  C_25
REMARK    2  A    between atoms: C_1  and  C_26
REMARK    3  A    between atoms: C_3  and  C_4
REMARK    4  A    between atoms: C_4  and  O_5
REMARK    5  A    between atoms: C_4  and  O_6
REMARK    6  A    between atoms: C_8  and  O_20
REMARK    7  A    between atoms: C_9  and  O_10
REMARK    8  A    between atoms: O_10  and  C_11
REMARK    9  A    between atoms: C_12  and  C_17
REMARK   10  A    between atoms: C_17  and  C_18
REMARK   11  A    between atoms: C_17  and  C_19
REMARK   12  A    between atoms: O_20  and  C_21
REMARK                            x       y       z     vdW  Elec       q    Type
REMARK                         _______ _______ _______ _____ _____    ______ ____
ROOT
ATOM      1  C   LIG A   1      -7.003  -1.890 131.659  0.00  0.00    -0.031 C 
ATOM      2  C   LIG A   1      -6.991  -2.229 130.114  0.00  0.00    +0.013 C 
ATOM      3  C   LIG A   1      -6.796  -0.952 129.151  0.00  0.00    +0.075 C 
ATOM      4  C   LIG A   1      -7.431  -1.136 127.715  0.00  0.00    +0.015 A 
ATOM      5  C   LIG A   1      -7.316  -0.137 126.686  0.00  0.00    +0.166 A 
ATOM      6  C   LIG A   1      -7.610  -0.463 125.328  0.00  0.00    +0.165 A 
ATOM      7  C   LIG A   1      -8.287  -1.649 125.008  0.00  0.00    +0.001 A 
ATOM      8  C   LIG A   1      -8.486  -2.581 126.045  0.00  0.00    +0.011 A 
ATOM      9  C   LIG A   1      -8.033  -2.341 127.359  0.00  0.00    -0.039 A 
ATOM     10  C   LIG A   1      -8.174  -3.502 128.301  0.00  0.00    +0.036 C 
ATOM     11  C   LIG A   1      -8.247  -3.039 129.733  0.00  0.00    +0.010 C 
ATOM     12  C   LIG A   1      -7.392   0.312 129.858  0.00  0.00    +0.019 C 
ATOM     13  C   LIG A   1      -8.512   0.047 130.864  0.00  0.00    +0.002 C 
ATOM     14  C   LIG A   1      -8.189  -0.957 131.970  0.00  0.00    +0.007 C 
ATOM     15  C   LIG A   1      -7.129  -3.182 132.511  0.00  0.00    +0.011 C 
ATOM     16  C   LIG A   1      -5.700  -1.231 132.171  0.00  0.00    +0.011 C 
ENDROOT
BRANCH   7  17
ATOM     17  C   LIG A   1      -8.774  -2.007 123.600  0.00  0.00    +0.017 C 
ATOM     18  C   LIG A   1      -9.633  -3.294 123.520  0.00  0.00    +0.012 C 
ATOM     19  C   LIG A   1      -7.612  -2.158 122.612  0.00  0.00    +0.012 C 
ENDBRANCH   7  17
BRANCH   6  20
ATOM     20  O   LIG A   1      -7.251   0.334 124.259  0.00  0.00    -0.491 OA
ATOM     21  C   LIG A   1      -8.199   1.320 123.830  0.00  0.00    +0.277 C 
ENDBRANCH   6  20
BRANCH   5  22
ATOM     22  O   LIG A   1      -6.830   1.083 127.093  0.00  0.00    -0.491 OA
ATOM     23  C   LIG A   1      -7.725   2.198 127.149  0.00  0.00    +0.277 C 
ENDBRANCH   5  22
BRANCH   3  24
ATOM     24  C   LIG A   1      -5.213  -0.809 128.967  0.00  0.00    +0.356 C 
BRANCH  24  25
ATOM     25  O   LIG A   1      -4.711   0.475 128.679  0.00  0.00    -0.507 OA
ATOM     26  H   LIG A   1      -4.547   0.482 127.720  0.00  0.00    +0.287 HD
ENDBRANCH  24  25
BRANCH  24  27
ATOM     27  O   LIG A   1      -4.707  -1.695 127.982  0.00  0.00    -0.507 OA
ATOM     28  H   LIG A   1      -5.485  -2.187 127.673  0.00  0.00    +0.287 HD
ENDBRANCH  24  27
ENDBRANCH   3  24
TORSDOF 6
ENDMDL
MODEL 5
REMARK VINA RESULT:      -6.3      3.731      5.758
REMARK  Name = NuBBE_2383
REMARK  12 active torsions:
REMARK  status: ('A' for Active; 'I' for Inactive)
REMARK    1  A    between atoms: C_1  and  C_25
REMARK    2  A    between atoms: C_1  and  C_26
REMARK    3  A    between atoms: C_3  and  C_4
REMARK    4  A    between atoms: C_4  and  O_5
REMARK    5  A    between atoms: C_4  and  O_6
REMARK    6  A    between atoms: C_8  and  O_20
REMARK    7  A    between atoms: C_9  and  O_10
REMARK    8  A    between atoms: O_10  and  C_11
REMARK    9  A    between atoms: C_12  and  C_17
REMARK   10  A    between atoms: C_17  and  C_18
REMARK   11  A    between atoms: C_17  and  C_19
REMARK   12  A    between atoms: O_20  and  C_21
REMARK                            x       y       z     vdW  Elec       q    Type
REMARK                         _______ _______ _______ _____ _____    ______ ____
ROOT
ATOM      1  C   LIG A   1      -7.759  -1.235 124.601  0.00  0.00    -0.031 C 
ATOM      2  C   LIG A   1      -7.529  -0.364 125.901  0.00  0.00    +0.013 C 
ATOM      3  C   LIG A   1      -7.109  -1.209 127.206  0.00  0.00    +0.075 C 
ATOM      4  C   LIG A   1      -7.524  -0.523 128.569  0.00  0.00    +0.015 A 
ATOM      5  C   LIG A   1      -7.190  -1.086 129.850  0.00  0.00    +0.166 A 
ATOM      6  C   LIG A   1      -7.290  -0.295 131.033  0.00  0.00    +0.165 A 
ATOM      7  C   LIG A   1      -7.982   0.926 131.022  0.00  0.00    +0.001 A 
ATOM      8  C   LIG A   1      -8.396   1.422 129.771  0.00  0.00    +0.011 A 
ATOM      9  C   LIG A   1      -8.138   0.727 128.570  0.00  0.00    -0.039 A 
ATOM     10  C   LIG A   1      -8.495   1.472 127.316  0.00  0.00    +0.036 C 
ATOM     11  C   LIG A   1      -8.760   0.525 126.174  0.00  0.00    +0.010 C 
ATOM     12  C   LIG A   1      -7.727  -2.644 127.102  0.00  0.00    +0.019 C 
ATOM     13  C   LIG A   1      -9.004  -2.761 126.270  0.00  0.00    +0.002 C 
ATOM     14  C   LIG A   1      -8.919  -2.221 124.842  0.00  0.00    +0.007 C 
ATOM     15  C   LIG A   1      -8.096  -0.336 123.381  0.00  0.00    +0.011 C 
ATOM     16  C   LIG A   1      -6.513  -2.031 124.145  0.00  0.00    +0.011 C 
ENDROOT
BRANCH   7  17
ATOM     17  C   LIG A   1      -8.265   1.764 132.271  0.00  0.00    +0.017 C 
ATOM     18  C   LIG A   1      -9.730   2.252 132.405  0.00  0.00    +0.012 C 
ATOM     19  C   LIG A   1      -7.353   2.992 132.359  0.00  0.00    +0.012 C 
ENDBRANCH   7  17
BRANCH   6  20
ATOM     20  O   LIG A   1      -6.720  -0.653 132.240  0.00  0.00    -0.491 OA
ATOM     21  C   LIG A   1      -5.307  -0.461 132.378  0.00  0.00    +0.277 C 
ENDBRANCH   6  20
BRANCH   5  22
ATOM     22  O   LIG A   1      -6.697  -2.369 129.826  0.00  0.00    -0.491 OA
ATOM     23  C   LIG A   1      -7.334  -3.367 130.630  0.00  0.00    +0.277 C 
ENDBRANCH   5  22
BRANCH   3  24
ATOM     24  C   LIG A   1      -5.511  -1.273 127.162  0.00  0.00    +0.356 C 
BRANCH  24  25
ATOM     25  O   LIG A   1      -4.892  -2.374 127.787  0.00  0.00    -0.507 OA
ATOM     26  H   LIG A   1      -4.150  -2.618 127.207  0.00  0.00    +0.287 HD
ENDBRANCH  24  25
BRANCH  24  27
ATOM     27  O   LIG A   1      -4.914  -0.096 127.683  0.00  0.00    -0.507 OA
ATOM     28  H   LIG A   1      -5.566   0.603 127.514  0.00  0.00    +0.287 HD
ENDBRANCH  24  27
ENDBRANCH   3  24
TORSDOF 6
ENDMDL
MODEL 6
REMARK VINA RESULT:      -6.1      4.452      7.117
REMARK  Name = NuBBE_2383
REMARK  12 active torsions:
REMARK  status: ('A' for Active; 'I' for Inactive)
REMARK    1  A    between atoms: C_1  and  C_25
REMARK    2  A    between atoms: C_1  and  C_26
REMARK    3  A    between atoms: C_3  and  C_4
REMARK    4  A    between atoms: C_4  and  O_5
REMARK    5  A    between atoms: C_4  and  O_6
REMARK    6  A    between atoms: C_8  and  O_20
REMARK    7  A    between atoms: C_9  and  O_10
REMARK    8  A    between atoms: O_10  and  C_11
REMARK    9  A    between atoms: C_12  and  C_17
REMARK   10  A    between atoms: C_17  and  C_18
REMARK   11  A    between atoms: C_17  and  C_19
REMARK   12  A    between atoms: O_20  and  C_21
REMARK                            x       y       z     vdW  Elec       q    Type
REMARK                         _______ _______ _______ _____ _____    ______ ____
ROOT
ATOM      1  C   LIG A   1      -8.638   4.220 132.329  0.00  0.00    -0.031 C 
ATOM      2  C   LIG A   1      -8.032   2.826 131.890  0.00  0.00    +0.013 C 
ATOM      3  C   LIG A   1      -7.805   2.666 130.304  0.00  0.00    +0.075 C 
ATOM      4  C   LIG A   1      -7.862   1.167 129.802  0.00  0.00    +0.015 A 
ATOM      5  C   LIG A   1      -7.625   0.803 128.430  0.00  0.00    +0.166 A 
ATOM      6  C   LIG A   1      -7.366  -0.555 128.079  0.00  0.00    +0.165 A 
ATOM      7  C   LIG A   1      -7.622  -1.591 128.990  0.00  0.00    +0.001 A 
ATOM      8  C   LIG A   1      -7.953  -1.225 130.309  0.00  0.00    +0.011 A 
ATOM      9  C   LIG A   1      -8.034   0.125 130.710  0.00  0.00    -0.039 A 
ATOM     10  C   LIG A   1      -8.230   0.340 132.183  0.00  0.00    +0.036 C 
ATOM     11  C   LIG A   1      -8.880   1.670 132.460  0.00  0.00    +0.010 C 
ATOM     12  C   LIG A   1      -8.862   3.539 129.548  0.00  0.00    +0.019 C 
ATOM     13  C   LIG A   1     -10.171   3.795 130.296  0.00  0.00    +0.002 C 
ATOM     14  C   LIG A   1     -10.032   4.396 131.695  0.00  0.00    +0.007 C 
ATOM     15  C   LIG A   1      -8.763   4.311 133.874  0.00  0.00    +0.011 C 
ATOM     16  C   LIG A   1      -7.760   5.437 131.953  0.00  0.00    +0.011 C 
ENDROOT
BRANCH   7  17
ATOM     17  C   LIG A   1      -7.515  -3.080 128.650  0.00  0.00    +0.017 C 
ATOM     18  C   LIG A   1      -8.860  -3.760 128.288  0.00  0.00    +0.012 C 
ATOM     19  C   LIG A   1      -6.875  -3.885 129.786  0.00  0.00    +0.012 C 
ENDBRANCH   7  17
BRANCH   6  20
ATOM     20  O   LIG A   1      -6.847  -0.941 126.858  0.00  0.00    -0.491 OA
ATOM     21  C   LIG A   1      -5.442  -0.745 126.653  0.00  0.00    +0.277 C 
ENDBRANCH   6  20
BRANCH   5  22
ATOM     22  O   LIG A   1      -7.580   1.847 127.537  0.00  0.00    -0.491 OA
ATOM     23  C   LIG A   1      -8.432   1.809 126.387  0.00  0.00    +0.277 C 
ENDBRANCH   5  22
BRANCH   3  24
ATOM     24  C   LIG A   1      -6.324   3.210 130.040  0.00  0.00    +0.356 C 
BRANCH  24  25
ATOM     25  O   LIG A   1      -6.128   4.027 128.910  0.00  0.00    -0.507 OA
ATOM     26  H   LIG A   1      -5.594   3.497 128.294  0.00  0.00    +0.287 HD
ENDBRANCH  24  25
BRANCH  24  27
ATOM     27  O   LIG A   1      -5.372   2.160 129.977  0.00  0.00    -0.507 OA
ATOM     28  H   LIG A   1      -4.525   2.608 129.815  0.00  0.00    +0.287 HD
ENDBRANCH  24  27
ENDBRANCH   3  24
TORSDOF 6
ENDMDL
MODEL 7
REMARK VINA RESULT:      -6.0      2.952      5.202
REMARK  Name = NuBBE_2383
REMARK  12 active torsions:
REMARK  status: ('A' for Active; 'I' for Inactive)
REMARK    1  A    between atoms: C_1  and  C_25
REMARK    2  A    between atoms: C_1  and  C_26
REMARK    3  A    between atoms: C_3  and  C_4
REMARK    4  A    between atoms: C_4  and  O_5
REMARK    5  A    between atoms: C_4  and  O_6
REMARK    6  A    between atoms: C_8  and  O_20
REMARK    7  A    between atoms: C_9  and  O_10
REMARK    8  A    between atoms: O_10  and  C_11
REMARK    9  A    between atoms: C_12  and  C_17
REMARK   10  A    between atoms: C_17  and  C_18
REMARK   11  A    between atoms: C_17  and  C_19
REMARK   12  A    between atoms: O_20  and  C_21
REMARK                            x       y       z     vdW  Elec       q    Type
REMARK                         _______ _______ _______ _____ _____    ______ ____
ROOT
ATOM      1  C   LIG A   1      -6.297  -2.741 130.438  0.00  0.00    -0.031 C 
ATOM      2  C   LIG A   1      -6.507  -1.989 129.063  0.00  0.00    +0.013 C 
ATOM      3  C   LIG A   1      -6.641  -0.389 129.189  0.00  0.00    +0.075 C 
ATOM      4  C   LIG A   1      -7.484   0.272 128.026  0.00  0.00    +0.015 A 
ATOM      5  C   LIG A   1      -7.672   1.694 127.921  0.00  0.00    +0.166 A 
ATOM      6  C   LIG A   1      -8.151   2.271 126.707  0.00  0.00    +0.165 A 
ATOM      7  C   LIG A   1      -8.718   1.467 125.708  0.00  0.00    +0.001 A 
ATOM      8  C   LIG A   1      -8.618   0.071 125.867  0.00  0.00    +0.011 A 
ATOM      9  C   LIG A   1      -7.982  -0.508 126.985  0.00  0.00    -0.039 A 
ATOM     10  C   LIG A   1      -7.813  -1.999 126.918  0.00  0.00    +0.036 C 
ATOM     11  C   LIG A   1      -7.698  -2.598 128.295  0.00  0.00    +0.010 C 
ATOM     12  C   LIG A   1      -7.261  -0.040 130.584  0.00  0.00    +0.019 C 
ATOM     13  C   LIG A   1      -8.151  -1.117 131.205  0.00  0.00    +0.002 C 
ATOM     14  C   LIG A   1      -7.521  -2.503 131.345  0.00  0.00    +0.007 C 
ATOM     15  C   LIG A   1      -6.114  -4.267 130.217  0.00  0.00    +0.011 C 
ATOM     16  C   LIG A   1      -5.019  -2.318 131.201  0.00  0.00    +0.011 C 
ENDROOT
BRANCH   7  17
ATOM     17  C   LIG A   1      -9.389   2.013 124.444  0.00  0.00    +0.017 C 
ATOM     18  C   LIG A   1     -10.652   1.235 123.994  0.00  0.00    +0.012 C 
ATOM     19  C   LIG A   1      -8.422   2.062 123.256  0.00  0.00    +0.012 C 
ENDBRANCH   7  17
BRANCH   6  20
ATOM     20  O   LIG A   1      -8.082   3.622 126.427  0.00  0.00    -0.491 OA
ATOM     21  C   LIG A   1      -6.810   4.141 126.017  0.00  0.00    +0.277 C 
ENDBRANCH   6  20
BRANCH   5  22
ATOM     22  O   LIG A   1      -7.280   2.428 129.016  0.00  0.00    -0.491 OA
ATOM     23  C   LIG A   1      -8.252   3.233 129.691  0.00  0.00    +0.277 C 
ENDBRANCH   5  22
BRANCH   3  24
ATOM     24  C   LIG A   1      -5.144   0.163 129.077  0.00  0.00    +0.356 C 
BRANCH  24  25
ATOM     25  O   LIG A   1      -4.774   1.208 129.947  0.00  0.00    -0.507 OA
ATOM     26  H   LIG A   1      -5.246   1.995 129.624  0.00  0.00    +0.287 HD
ENDBRANCH  24  25
BRANCH  24  27
ATOM     27  O   LIG A   1      -4.821   0.572 127.758  0.00  0.00    -0.507 OA
ATOM     28  H   LIG A   1      -4.194   1.305 127.876  0.00  0.00    +0.287 HD
ENDBRANCH  24  27
ENDBRANCH   3  24
TORSDOF 6
ENDMDL
MODEL 8
REMARK VINA RESULT:      -6.0      5.352      7.862
REMARK  Name = NuBBE_2383
REMARK  12 active torsions:
REMARK  status: ('A' for Active; 'I' for Inactive)
REMARK    1  A    between atoms: C_1  and  C_25
REMARK    2  A    between atoms: C_1  and  C_26
REMARK    3  A    between atoms: C_3  and  C_4
REMARK    4  A    between atoms: C_4  and  O_5
REMARK    5  A    between atoms: C_4  and  O_6
REMARK    6  A    between atoms: C_8  and  O_20
REMARK    7  A    between atoms: C_9  and  O_10
REMARK    8  A    between atoms: O_10  and  C_11
REMARK    9  A    between atoms: C_12  and  C_17
REMARK   10  A    between atoms: C_17  and  C_18
REMARK   11  A    between atoms: C_17  and  C_19
REMARK   12  A    between atoms: O_20  and  C_21
REMARK                            x       y       z     vdW  Elec       q    Type
REMARK                         _______ _______ _______ _____ _____    ______ ____
ROOT
ATOM      1  C   LIG A   1      -5.116  -4.573 134.223  0.00  0.00    -0.031 C 
ATOM      2  C   LIG A   1      -5.189  -4.047 132.733  0.00  0.00    +0.013 C 
ATOM      3  C   LIG A   1      -5.972  -2.652 132.554  0.00  0.00    +0.075 C 
ATOM      4  C   LIG A   1      -6.623  -2.466 131.124  0.00  0.00    +0.015 A 
ATOM      5  C   LIG A   1      -7.316  -1.266 130.741  0.00  0.00    +0.166 A 
ATOM      6  C   LIG A   1      -7.601  -1.005 129.368  0.00  0.00    +0.165 A 
ATOM      7  C   LIG A   1      -7.483  -2.020 128.407  0.00  0.00    +0.001 A 
ATOM      8  C   LIG A   1      -6.893  -3.232 128.816  0.00  0.00    +0.011 A 
ATOM      9  C   LIG A   1      -6.442  -3.432 130.137  0.00  0.00    -0.039 A 
ATOM     10  C   LIG A   1      -5.688  -4.712 130.363  0.00  0.00    +0.036 C 
ATOM     11  C   LIG A   1      -5.759  -5.140 131.806  0.00  0.00    +0.010 C 
ATOM     12  C   LIG A   1      -7.062  -2.534 133.673  0.00  0.00    +0.019 C 
ATOM     13  C   LIG A   1      -7.597  -3.856 134.223  0.00  0.00    +0.002 C 
ATOM     14  C   LIG A   1      -6.543  -4.835 134.744  0.00  0.00    +0.007 C 
ATOM     15  C   LIG A   1      -4.291  -5.885 134.312  0.00  0.00    +0.011 C 
ATOM     16  C   LIG A   1      -4.396  -3.612 135.199  0.00  0.00    +0.011 C 
ENDROOT
BRANCH   7  17
ATOM     17  C   LIG A   1      -7.907  -1.871 126.943  0.00  0.00    +0.017 C 
ATOM     18  C   LIG A   1      -8.980  -2.887 126.474  0.00  0.00    +0.012 C 
ATOM     19  C   LIG A   1      -6.715  -1.973 125.986  0.00  0.00    +0.012 C 
ENDBRANCH   7  17
BRANCH   6  20
ATOM     20  O   LIG A   1      -7.990   0.233 128.892  0.00  0.00    -0.491 OA
ATOM     21  C   LIG A   1      -6.962   1.215 128.708  0.00  0.00    +0.277 C 
ENDBRANCH   6  20
BRANCH   5  22
ATOM     22  O   LIG A   1      -7.587  -0.384 131.761  0.00  0.00    -0.491 OA
ATOM     23  C   LIG A   1      -8.933   0.069 131.941  0.00  0.00    +0.277 C 
ENDBRANCH   5  22
BRANCH   3  24
ATOM     24  C   LIG A   1      -4.854  -1.521 132.728  0.00  0.00    +0.356 C 
BRANCH  24  25
ATOM     25  O   LIG A   1      -5.275  -0.264 133.205  0.00  0.00    -0.507 OA
ATOM     26  H   LIG A   1      -6.003  -0.450 133.821  0.00  0.00    +0.287 HD
ENDBRANCH  24  25
BRANCH  24  27
ATOM     27  O   LIG A   1      -4.125  -1.301 131.531  0.00  0.00    -0.507 OA
ATOM     28  H   LIG A   1      -4.806  -1.136 130.858  0.00  0.00    +0.287 HD
ENDBRANCH  24  27
ENDBRANCH   3  24
TORSDOF 6
ENDMDL
MODEL 9
REMARK VINA RESULT:      -5.8      5.181      8.986
REMARK  Name = NuBBE_2383
REMARK  12 active torsions:
REMARK  status: ('A' for Active; 'I' for Inactive)
REMARK    1  A    between atoms: C_1  and  C_25
REMARK    2  A    between atoms: C_1  and  C_26
REMARK    3  A    between atoms: C_3  and  C_4
REMARK    4  A    between atoms: C_4  and  O_5
REMARK    5  A    between atoms: C_4  and  O_6
REMARK    6  A    between atoms: C_8  and  O_20
REMARK    7  A    between atoms: C_9  and  O_10
REMARK    8  A    between atoms: O_10  and  C_11
REMARK    9  A    between atoms: C_12  and  C_17
REMARK   10  A    between atoms: C_17  and  C_18
REMARK   11  A    between atoms: C_17  and  C_19
REMARK   12  A    between atoms: O_20  and  C_21
REMARK                            x       y       z     vdW  Elec       q    Type
REMARK                         _______ _______ _______ _____ _____    ______ ____
ROOT
ATOM      1  C   LIG A   1      -3.080   6.647 129.627  0.00  0.00    -0.031 C 
ATOM      2  C   LIG A   1      -4.071   5.415 129.650  0.00  0.00    +0.013 C 
ATOM      3  C   LIG A   1      -4.994   5.323 130.966  0.00  0.00    +0.075 C 
ATOM      4  C   LIG A   1      -5.450   3.851 131.321  0.00  0.00    +0.015 A 
ATOM      5  C   LIG A   1      -6.327   3.560 132.424  0.00  0.00    +0.166 A 
ATOM      6  C   LIG A   1      -6.968   2.289 132.519  0.00  0.00    +0.165 A 
ATOM      7  C   LIG A   1      -6.544   1.212 131.726  0.00  0.00    +0.001 A 
ATOM      8  C   LIG A   1      -5.606   1.487 130.712  0.00  0.00    +0.011 A 
ATOM      9  C   LIG A   1      -5.102   2.786 130.494  0.00  0.00    -0.039 A 
ATOM     10  C   LIG A   1      -4.244   2.938 129.271  0.00  0.00    +0.036 C 
ATOM     11  C   LIG A   1      -3.297   4.102 129.408  0.00  0.00    +0.010 C 
ATOM     12  C   LIG A   1      -4.228   5.967 132.170  0.00  0.00    +0.019 C 
ATOM     13  C   LIG A   1      -2.702   5.938 132.081  0.00  0.00    +0.002 C 
ATOM     14  C   LIG A   1      -2.098   6.538 130.811  0.00  0.00    +0.007 C 
ATOM     15  C   LIG A   1      -2.277   6.693 128.299  0.00  0.00    +0.011 C 
ATOM     16  C   LIG A   1      -3.783   8.024 129.687  0.00  0.00    +0.011 C 
ENDROOT
BRANCH   7  17
ATOM     17  C   LIG A   1      -7.071  -0.219 131.867  0.00  0.00    +0.017 C 
ATOM     18  C   LIG A   1      -5.988  -1.322 131.757  0.00  0.00    +0.012 C 
ATOM     19  C   LIG A   1      -8.163  -0.532 130.838  0.00  0.00    +0.012 C 
ENDBRANCH   7  17
BRANCH   6  20
ATOM     20  O   LIG A   1      -8.031   2.033 133.363  0.00  0.00    -0.491 OA
ATOM     21  C   LIG A   1      -9.301   2.592 133.004  0.00  0.00    +0.277 C 
ENDBRANCH   6  20
BRANCH   5  22
ATOM     22  O   LIG A   1      -6.557   4.601 133.292  0.00  0.00    -0.491 OA
ATOM     23  C   LIG A   1      -6.183   4.449 134.665  0.00  0.00    +0.277 C 
ENDBRANCH   5  22
BRANCH   3  24
ATOM     24  C   LIG A   1      -6.307   6.165 130.611  0.00  0.00    +0.356 C 
BRANCH  24  25
ATOM     25  O   LIG A   1      -7.017   6.737 131.684  0.00  0.00    -0.507 OA
ATOM     26  H   LIG A   1      -7.003   7.696 131.524  0.00  0.00    +0.287 HD
ENDBRANCH  24  25
BRANCH  24  27
ATOM     27  O   LIG A   1      -7.232   5.415 129.840  0.00  0.00    -0.507 OA
ATOM     28  H   LIG A   1      -6.679   4.908 129.222  0.00  0.00    +0.287 HD
ENDBRANCH  24  27
ENDBRANCH   3  24
TORSDOF 6
ENDMDL
