MODEL 1
REMARK VINA RESULT:      -6.8      0.000      0.000
REMARK  Name = NuBBE_1946
REMARK  5 active torsions:
REMARK  status: ('A' for Active; 'I' for Inactive)
REMARK    1  A    between atoms: C_1  and  C_2
REMARK    2  A    between atoms: C_1  and  C_3
REMARK    3  A    between atoms: C_1  and  C_4
REMARK    4  A    between atoms: C_8  and  C_12
REMARK    5  A    between atoms: C_15  and  C_17
REMARK                            x       y       z     vdW  Elec       q    Type
REMARK                         _______ _______ _______ _____ _____    ______ ____
ROOT
ATOM      1  C   LIG A   1      -7.582  -1.759 126.210  0.00  0.00    -0.064 C 
ATOM      2  C   LIG A   1      -6.656  -1.836 125.223  0.00  0.00    -0.045 C 
ATOM      3  C   LIG A   1      -6.496  -0.776 124.128  0.00  0.00    +0.022 C 
ATOM      4  C   LIG A   1      -7.419   0.456 124.264  0.00  0.00    -0.006 C 
ATOM      5  C   LIG A   1      -8.766   0.061 124.866  0.00  0.00    +0.008 C 
ATOM      6  C   LIG A   1      -8.603  -0.632 126.217  0.00  0.00    +0.031 C 
ATOM      7  C   LIG A   1      -6.743   1.555 125.097  0.00  0.00    +0.008 C 
ATOM      8  C   LIG A   1      -6.671  -1.479 122.772  0.00  0.00    +0.013 C 
ATOM      9  C   LIG A   1      -5.578  -2.540 122.582  0.00  0.00    +0.031 C 
ATOM     10  C   LIG A   1      -5.228  -3.289 123.848  0.00  0.00    -0.072 C 
ATOM     11  C   LIG A   1      -5.739  -2.956 125.049  0.00  0.00    +0.003 C 
ATOM     12  C   LIG A   1      -4.277  -4.438 123.681  0.00  0.00    +0.039 C 
ENDROOT
BRANCH   1  13
ATOM     13  C   LIG A   1      -7.741  -2.780 127.341  0.00  0.00    +0.009 C 
ATOM     14  C   LIG A   1      -7.755  -2.120 128.725  0.00  0.00    +0.012 C 
ATOM     15  C   LIG A   1      -8.984  -3.654 127.146  0.00  0.00    +0.012 C 
ENDBRANCH   1  13
TORSDOF 1
ENDMDL
MODEL 2
REMARK VINA RESULT:      -6.8      1.247      4.575
REMARK  Name = NuBBE_1946
REMARK  5 active torsions:
REMARK  status: ('A' for Active; 'I' for Inactive)
REMARK    1  A    between atoms: C_1  and  C_2
REMARK    2  A    between atoms: C_1  and  C_3
REMARK    3  A    between atoms: C_1  and  C_4
REMARK    4  A    between atoms: C_8  and  C_12
REMARK    5  A    between atoms: C_15  and  C_17
REMARK                            x       y       z     vdW  Elec       q    Type
REMARK                         _______ _______ _______ _____ _____    ______ ____
ROOT
ATOM      1  C   LIG A   1      -6.730  -2.559 124.589  0.00  0.00    -0.064 C 
ATOM      2  C   LIG A   1      -7.044  -1.505 125.383  0.00  0.00    -0.045 C 
ATOM      3  C   LIG A   1      -8.317  -1.437 126.233  0.00  0.00    +0.022 C 
ATOM      4  C   LIG A   1      -9.203  -2.703 126.197  0.00  0.00    -0.006 C 
ATOM      5  C   LIG A   1      -9.141  -3.368 124.823  0.00  0.00    +0.008 C 
ATOM      6  C   LIG A   1      -7.707  -3.711 124.423  0.00  0.00    +0.031 C 
ATOM      7  C   LIG A   1      -8.799  -3.685 127.305  0.00  0.00    +0.008 C 
ATOM      8  C   LIG A   1      -9.091  -0.179 125.809  0.00  0.00    +0.013 C 
ATOM      9  C   LIG A   1      -8.255   1.077 126.088  0.00  0.00    +0.031 C 
ATOM     10  C   LIG A   1      -6.778   0.900 125.815  0.00  0.00    -0.072 C 
ATOM     11  C   LIG A   1      -6.243  -0.292 125.485  0.00  0.00    +0.003 C 
ATOM     12  C   LIG A   1      -5.943   2.142 125.927  0.00  0.00    +0.039 C 
ENDROOT
BRANCH   1  13
ATOM     13  C   LIG A   1      -5.447  -2.675 123.758  0.00  0.00    +0.009 C 
ATOM     14  C   LIG A   1      -4.837  -4.079 123.824  0.00  0.00    +0.012 C 
ATOM     15  C   LIG A   1      -5.673  -2.249 122.304  0.00  0.00    +0.012 C 
ENDBRANCH   1  13
TORSDOF 1
ENDMDL
MODEL 3
REMARK VINA RESULT:      -6.1      1.672      3.893
REMARK  Name = NuBBE_1946
REMARK  5 active torsions:
REMARK  status: ('A' for Active; 'I' for Inactive)
REMARK    1  A    between atoms: C_1  and  C_2
REMARK    2  A    between atoms: C_1  and  C_3
REMARK    3  A    between atoms: C_1  and  C_4
REMARK    4  A    between atoms: C_8  and  C_12
REMARK    5  A    between atoms: C_15  and  C_17
REMARK                            x       y       z     vdW  Elec       q    Type
REMARK                         _______ _______ _______ _____ _____    ______ ____
ROOT
ATOM      1  C   LIG A   1      -8.113  -2.391 126.348  0.00  0.00    -0.064 C 
ATOM      2  C   LIG A   1      -8.244  -1.263 125.607  0.00  0.00    -0.045 C 
ATOM      3  C   LIG A   1      -8.307  -1.259 124.077  0.00  0.00    +0.022 C 
ATOM      4  C   LIG A   1      -8.294  -2.655 123.412  0.00  0.00    -0.006 C 
ATOM      5  C   LIG A   1      -7.440  -3.631 124.220  0.00  0.00    +0.008 C 
ATOM      6  C   LIG A   1      -7.913  -3.736 125.668  0.00  0.00    +0.031 C 
ATOM      7  C   LIG A   1      -9.722  -3.189 123.234  0.00  0.00    +0.008 C 
ATOM      8  C   LIG A   1      -7.162  -0.369 123.567  0.00  0.00    +0.013 C 
ATOM      9  C   LIG A   1      -7.351   1.071 124.063  0.00  0.00    +0.031 C 
ATOM     10  C   LIG A   1      -7.890   1.166 125.472  0.00  0.00    -0.072 C 
ATOM     11  C   LIG A   1      -8.288   0.082 126.168  0.00  0.00    +0.003 C 
ATOM     12  C   LIG A   1      -7.948   2.548 126.055  0.00  0.00    +0.039 C 
ENDROOT
BRANCH   1  13
ATOM     13  C   LIG A   1      -8.087  -2.432 127.880  0.00  0.00    +0.009 C 
ATOM     14  C   LIG A   1      -8.763  -3.689 128.440  0.00  0.00    +0.012 C 
ATOM     15  C   LIG A   1      -6.663  -2.294 128.427  0.00  0.00    +0.012 C 
ENDBRANCH   1  13
TORSDOF 1
ENDMDL
MODEL 4
REMARK VINA RESULT:      -5.9      6.677      9.274
REMARK  Name = NuBBE_1946
REMARK  5 active torsions:
REMARK  status: ('A' for Active; 'I' for Inactive)
REMARK    1  A    between atoms: C_1  and  C_2
REMARK    2  A    between atoms: C_1  and  C_3
REMARK    3  A    between atoms: C_1  and  C_4
REMARK    4  A    between atoms: C_8  and  C_12
REMARK    5  A    between atoms: C_15  and  C_17
REMARK                            x       y       z     vdW  Elec       q    Type
REMARK                         _______ _______ _______ _____ _____    ______ ____
ROOT
ATOM      1  C   LIG A   1      -3.088   4.336 128.412  0.00  0.00    -0.064 C 
ATOM      2  C   LIG A   1      -3.522   4.054 129.666  0.00  0.00    -0.045 C 
ATOM      3  C   LIG A   1      -3.518   5.070 130.811  0.00  0.00    +0.022 C 
ATOM      4  C   LIG A   1      -3.056   6.495 130.428  0.00  0.00    -0.006 C 
ATOM      5  C   LIG A   1      -1.983   6.442 129.342  0.00  0.00    +0.008 C 
ATOM      6  C   LIG A   1      -2.464   5.688 128.104  0.00  0.00    +0.031 C 
ATOM      7  C   LIG A   1      -4.248   7.355 129.984  0.00  0.00    +0.008 C 
ATOM      8  C   LIG A   1      -2.674   4.480 131.953  0.00  0.00    +0.013 C 
ATOM      9  C   LIG A   1      -3.310   3.179 132.462  0.00  0.00    +0.031 C 
ATOM     10  C   LIG A   1      -3.912   2.325 131.370  0.00  0.00    -0.072 C 
ATOM     11  C   LIG A   1      -3.993   2.741 130.090  0.00  0.00    +0.003 C 
ATOM     12  C   LIG A   1      -4.408   0.975 131.799  0.00  0.00    +0.039 C 
ENDROOT
BRANCH   1  13
ATOM     13  C   LIG A   1      -3.117   3.355 127.236  0.00  0.00    +0.009 C 
ATOM     14  C   LIG A   1      -3.992   3.855 126.081  0.00  0.00    +0.012 C 
ATOM     15  C   LIG A   1      -1.706   3.022 126.741  0.00  0.00    +0.012 C 
ENDBRANCH   1  13
TORSDOF 1
ENDMDL
MODEL 5
REMARK VINA RESULT:      -5.6      1.529      4.308
REMARK  Name = NuBBE_1946
REMARK  5 active torsions:
REMARK  status: ('A' for Active; 'I' for Inactive)
REMARK    1  A    between atoms: C_1  and  C_2
REMARK    2  A    between atoms: C_1  and  C_3
REMARK    3  A    between atoms: C_1  and  C_4
REMARK    4  A    between atoms: C_8  and  C_12
REMARK    5  A    between atoms: C_15  and  C_17
REMARK                            x       y       z     vdW  Elec       q    Type
REMARK                         _______ _______ _______ _____ _____    ______ ____
ROOT
ATOM      1  C   LIG A   1      -7.409  -1.045 124.791  0.00  0.00    -0.064 C 
ATOM      2  C   LIG A   1      -7.874  -1.302 126.038  0.00  0.00    -0.045 C 
ATOM      3  C   LIG A   1      -7.741  -0.323 127.209  0.00  0.00    +0.022 C 
ATOM      4  C   LIG A   1      -7.105   1.041 126.859  0.00  0.00    -0.006 C 
ATOM      5  C   LIG A   1      -6.047   0.882 125.768  0.00  0.00    +0.008 C 
ATOM      6  C   LIG A   1      -6.620   0.225 124.514  0.00  0.00    +0.031 C 
ATOM      7  C   LIG A   1      -8.180   2.055 126.442  0.00  0.00    +0.008 C 
ATOM      8  C   LIG A   1      -6.977  -1.043 128.332  0.00  0.00    +0.013 C 
ATOM      9  C   LIG A   1      -7.771  -2.266 128.812  0.00  0.00    +0.031 C 
ATOM     10  C   LIG A   1      -8.476  -3.010 127.700  0.00  0.00    -0.072 C 
ATOM     11  C   LIG A   1      -8.506  -2.556 126.432  0.00  0.00    +0.003 C 
ATOM     12  C   LIG A   1      -9.138  -4.298 128.098  0.00  0.00    +0.039 C 
ENDROOT
BRANCH   1  13
ATOM     13  C   LIG A   1      -7.562  -1.985 123.590  0.00  0.00    +0.009 C 
ATOM     14  C   LIG A   1      -8.870  -1.748 122.827  0.00  0.00    +0.012 C 
ATOM     15  C   LIG A   1      -6.360  -1.897 122.645  0.00  0.00    +0.012 C 
ENDBRANCH   1  13
TORSDOF 1
ENDMDL
MODEL 6
REMARK VINA RESULT:      -5.6      8.955     11.799
REMARK  Name = NuBBE_1946
REMARK  5 active torsions:
REMARK  status: ('A' for Active; 'I' for Inactive)
REMARK    1  A    between atoms: C_1  and  C_2
REMARK    2  A    between atoms: C_1  and  C_3
REMARK    3  A    between atoms: C_1  and  C_4
REMARK    4  A    between atoms: C_8  and  C_12
REMARK    5  A    between atoms: C_15  and  C_17
REMARK                            x       y       z     vdW  Elec       q    Type
REMARK                         _______ _______ _______ _____ _____    ______ ____
ROOT
ATOM      1  C   LIG A   1      -2.916   6.398 130.420  0.00  0.00    -0.064 C 
ATOM      2  C   LIG A   1      -3.912   6.654 131.303  0.00  0.00    -0.045 C 
ATOM      3  C   LIG A   1      -3.672   6.960 132.784  0.00  0.00    +0.022 C 
ATOM      4  C   LIG A   1      -2.188   7.042 133.209  0.00  0.00    -0.006 C 
ATOM      5  C   LIG A   1      -1.338   6.063 132.401  0.00  0.00    +0.008 C 
ATOM      6  C   LIG A   1      -1.476   6.298 130.898  0.00  0.00    +0.031 C 
ATOM      7  C   LIG A   1      -1.658   8.477 133.070  0.00  0.00    +0.008 C 
ATOM      8  C   LIG A   1      -4.448   5.918 133.606  0.00  0.00    +0.013 C 
ATOM      9  C   LIG A   1      -5.953   6.037 133.325  0.00  0.00    +0.031 C 
ATOM     10  C   LIG A   1      -6.281   6.345 131.882  0.00  0.00    -0.072 C 
ATOM     11  C   LIG A   1      -5.331   6.618 130.966  0.00  0.00    +0.003 C 
ATOM     12  C   LIG A   1      -7.740   6.320 131.528  0.00  0.00    +0.039 C 
ENDROOT
BRANCH   1  13
ATOM     13  C   LIG A   1      -3.120   6.128 128.925  0.00  0.00    +0.009 C 
ATOM     14  C   LIG A   1      -2.230   7.014 128.047  0.00  0.00    +0.012 C 
ATOM     15  C   LIG A   1      -2.917   4.649 128.583  0.00  0.00    +0.012 C 
ENDBRANCH   1  13
TORSDOF 1
ENDMDL
MODEL 7
REMARK VINA RESULT:      -5.5      9.267     11.746
REMARK  Name = NuBBE_1946
REMARK  5 active torsions:
REMARK  status: ('A' for Active; 'I' for Inactive)
REMARK    1  A    between atoms: C_1  and  C_2
REMARK    2  A    between atoms: C_1  and  C_3
REMARK    3  A    between atoms: C_1  and  C_4
REMARK    4  A    between atoms: C_8  and  C_12
REMARK    5  A    between atoms: C_15  and  C_17
REMARK                            x       y       z     vdW  Elec       q    Type
REMARK                         _______ _______ _______ _____ _____    ______ ____
ROOT
ATOM      1  C   LIG A   1      -4.391   6.356 131.236  0.00  0.00    -0.064 C 
ATOM      2  C   LIG A   1      -3.219   6.982 131.504  0.00  0.00    -0.045 C 
ATOM      3  C   LIG A   1      -1.943   6.778 130.681  0.00  0.00    +0.022 C 
ATOM      4  C   LIG A   1      -2.093   5.856 129.449  0.00  0.00    -0.006 C 
ATOM      5  C   LIG A   1      -3.108   4.748 129.722  0.00  0.00    +0.008 C 
ATOM      6  C   LIG A   1      -4.467   5.311 130.134  0.00  0.00    +0.031 C 
ATOM      7  C   LIG A   1      -2.483   6.667 128.205  0.00  0.00    +0.008 C 
ATOM      8  C   LIG A   1      -0.847   6.283 131.639  0.00  0.00    +0.013 C 
ATOM      9  C   LIG A   1      -0.565   7.343 132.713  0.00  0.00    +0.031 C 
ATOM     10  C   LIG A   1      -1.802   8.067 133.195  0.00  0.00    -0.072 C 
ATOM     11  C   LIG A   1      -3.013   7.882 132.632  0.00  0.00    +0.003 C 
ATOM     12  C   LIG A   1      -1.599   9.003 134.351  0.00  0.00    +0.039 C 
ENDROOT
BRANCH   1  13
ATOM     13  C   LIG A   1      -5.694   6.569 132.014  0.00  0.00    +0.009 C 
ATOM     14  C   LIG A   1      -6.869   6.925 131.096  0.00  0.00    +0.012 C 
ATOM     15  C   LIG A   1      -6.037   5.360 132.889  0.00  0.00    +0.012 C 
ENDBRANCH   1  13
TORSDOF 1
ENDMDL
MODEL 8
REMARK VINA RESULT:      -5.5      8.002     10.196
REMARK  Name = NuBBE_1946
REMARK  5 active torsions:
REMARK  status: ('A' for Active; 'I' for Inactive)
REMARK    1  A    between atoms: C_1  and  C_2
REMARK    2  A    between atoms: C_1  and  C_3
REMARK    3  A    between atoms: C_1  and  C_4
REMARK    4  A    between atoms: C_8  and  C_12
REMARK    5  A    between atoms: C_15  and  C_17
REMARK                            x       y       z     vdW  Elec       q    Type
REMARK                         _______ _______ _______ _____ _____    ______ ____
ROOT
ATOM      1  C   LIG A   1      -4.529   6.103 131.518  0.00  0.00    -0.064 C 
ATOM      2  C   LIG A   1      -3.845   5.562 130.480  0.00  0.00    -0.045 C 
ATOM      3  C   LIG A   1      -2.343   5.765 130.258  0.00  0.00    +0.022 C 
ATOM      4  C   LIG A   1      -1.618   6.574 131.358  0.00  0.00    -0.006 C 
ATOM      5  C   LIG A   1      -2.538   7.647 131.937  0.00  0.00    +0.008 C 
ATOM      6  C   LIG A   1      -3.833   7.050 132.483  0.00  0.00    +0.031 C 
ATOM      7  C   LIG A   1      -1.090   5.646 132.461  0.00  0.00    +0.008 C 
ATOM      8  C   LIG A   1      -2.159   6.392 128.867  0.00  0.00    +0.013 C 
ATOM      9  C   LIG A   1      -2.683   5.438 127.784  0.00  0.00    +0.031 C 
ATOM     10  C   LIG A   1      -3.937   4.693 128.182  0.00  0.00    -0.072 C 
ATOM     11  C   LIG A   1      -4.459   4.769 129.422  0.00  0.00    +0.003 C 
ATOM     12  C   LIG A   1      -4.572   3.866 127.102  0.00  0.00    +0.039 C 
ENDROOT
BRANCH   1  13
ATOM     13  C   LIG A   1      -6.021   5.887 131.789  0.00  0.00    +0.009 C 
ATOM     14  C   LIG A   1      -6.328   5.749 133.285  0.00  0.00    +0.012 C 
ATOM     15  C   LIG A   1      -6.878   6.990 131.160  0.00  0.00    +0.012 C 
ENDBRANCH   1  13
TORSDOF 1
ENDMDL
MODEL 9
REMARK VINA RESULT:      -5.5      1.788      4.068
REMARK  Name = NuBBE_1946
REMARK  5 active torsions:
REMARK  status: ('A' for Active; 'I' for Inactive)
REMARK    1  A    between atoms: C_1  and  C_2
REMARK    2  A    between atoms: C_1  and  C_3
REMARK    3  A    between atoms: C_1  and  C_4
REMARK    4  A    between atoms: C_8  and  C_12
REMARK    5  A    between atoms: C_15  and  C_17
REMARK                            x       y       z     vdW  Elec       q    Type
REMARK                         _______ _______ _______ _____ _____    ______ ____
ROOT
ATOM      1  C   LIG A   1      -8.383  -1.618 124.804  0.00  0.00    -0.064 C 
ATOM      2  C   LIG A   1      -8.267  -1.043 126.027  0.00  0.00    -0.045 C 
ATOM      3  C   LIG A   1      -8.054   0.459 126.239  0.00  0.00    +0.022 C 
ATOM      4  C   LIG A   1      -8.060   1.314 124.952  0.00  0.00    -0.006 C 
ATOM      5  C   LIG A   1      -7.465   0.535 123.781  0.00  0.00    +0.008 C 
ATOM      6  C   LIG A   1      -8.198  -0.784 123.546  0.00  0.00    +0.031 C 
ATOM      7  C   LIG A   1      -9.479   1.802 124.626  0.00  0.00    +0.008 C 
ATOM      8  C   LIG A   1      -6.755   0.634 127.041  0.00  0.00    +0.013 C 
ATOM      9  C   LIG A   1      -6.887  -0.035 128.416  0.00  0.00    +0.031 C 
ATOM     10  C   LIG A   1      -7.657  -1.335 128.390  0.00  0.00    -0.072 C 
ATOM     11  C   LIG A   1      -8.278  -1.785 127.282  0.00  0.00    +0.003 C 
ATOM     12  C   LIG A   1      -7.682  -2.102 129.681  0.00  0.00    +0.039 C 
ENDROOT
BRANCH   1  13
ATOM     13  C   LIG A   1      -8.636  -3.109 124.559  0.00  0.00    +0.009 C 
ATOM     14  C   LIG A   1      -9.582  -3.353 123.378  0.00  0.00    +0.012 C 
ATOM     15  C   LIG A   1      -7.328  -3.884 124.375  0.00  0.00    +0.012 C 
ENDBRANCH   1  13
TORSDOF 1
ENDMDL
