MODEL 1
REMARK VINA RESULT:      -9.0      0.000      0.000
REMARK  Name = NuBBE_1969
REMARK  9 active torsions:
REMARK  status: ('A' for Active; 'I' for Inactive)
REMARK    1  A    between atoms: O_1  and  C_2
REMARK    2  A    between atoms: C_3  and  C_27
REMARK    3  A    between atoms: C_4  and  C_20
REMARK    4  A    between atoms: C_6  and  C_8
REMARK    5  A    between atoms: C_9  and  C_10
REMARK    6  A    between atoms: C_13  and  O_16
REMARK    7  A    between atoms: C_23  and  O_26
REMARK    8  A    between atoms: C_29  and  O_30
REMARK    9  A    between atoms: C_32  and  O_34
REMARK                            x       y       z     vdW  Elec       q    Type
REMARK                         _______ _______ _______ _____ _____    ______ ____
ROOT
ATOM      1  C   LIG A   1      -7.190  -1.015 125.245  0.00  0.00    +0.099 C 
ATOM      2  C   LIG A   1      -6.585  -0.280 126.506  0.00  0.00    +0.064 C 
ATOM      3  C   LIG A   1      -6.892   1.272 126.401  0.00  0.00    +0.044 C 
ATOM      4  C   LIG A   1      -7.808   1.513 125.167  0.00  0.00    +0.093 C 
ATOM      5  C   LIG A   1      -7.131   0.997 123.905  0.00  0.00    -0.038 C 
ATOM      6  C   LIG A   1      -6.764  -0.292 123.974  0.00  0.00    +0.012 C 
ATOM      7  C   LIG A   1      -9.026   0.586 125.349  0.00  0.00    +0.144 C 
ATOM      8  O   LIG A   1     -10.148   1.010 125.628  0.00  0.00    -0.297 OA
ATOM      9  C   LIG A   1      -8.724  -0.906 125.248  0.00  0.00    +0.114 C 
ENDROOT
BRANCH   3  10
ATOM     10  C   LIG A   1      -5.661   2.184 126.432  0.00  0.00    -0.042 A 
ATOM     11  C   LIG A   1      -5.739   3.581 126.305  0.00  0.00    +0.007 A 
ATOM     12  C   LIG A   1      -4.594   4.380 126.342  0.00  0.00    +0.045 A 
ATOM     13  C   LIG A   1      -3.352   3.788 126.513  0.00  0.00    +0.117 A 
ATOM     14  C   LIG A   1      -3.238   2.410 126.629  0.00  0.00    +0.045 A 
ATOM     15  C   LIG A   1      -4.386   1.611 126.593  0.00  0.00    +0.007 A 
BRANCH  13  16
ATOM     16  O   LIG A   1      -2.216   4.539 126.579  0.00  0.00    -0.507 OA
ATOM     17  H   LIG A   1      -2.185   4.971 127.450  0.00  0.00    +0.292 HD
ENDBRANCH  13  16
ENDBRANCH   3  10
BRANCH   2  18
ATOM     18  C   LIG A   1      -7.014  -0.896 127.844  0.00  0.00    -0.034 A 
ATOM     19  C   LIG A   1      -6.808  -2.250 128.163  0.00  0.00    +0.049 A 
ATOM     20  C   LIG A   1      -7.224  -2.764 129.388  0.00  0.00    +0.121 A 
ATOM     21  C   LIG A   1      -7.832  -1.955 130.334  0.00  0.00    +0.090 A 
ATOM     22  C   LIG A   1      -8.034  -0.614 130.035  0.00  0.00    +0.121 A 
ATOM     23  C   LIG A   1      -7.638  -0.083 128.807  0.00  0.00    +0.049 A 
BRANCH  20  24
ATOM     24  O   LIG A   1      -7.041  -4.080 129.695  0.00  0.00    -0.507 OA
ATOM     25  H   LIG A   1      -7.583  -4.299 130.472  0.00  0.00    +0.292 HD
ENDBRANCH  20  24
BRANCH  22  26
ATOM     26  O   LIG A   1      -8.624   0.228 130.931  0.00  0.00    -0.507 OA
ATOM     27  H   LIG A   1      -8.540   1.136 130.594  0.00  0.00    +0.292 HD
ENDBRANCH  22  26
ENDBRANCH   2  18
BRANCH   1  28
ATOM     28  O   LIG A   1      -6.778  -2.365 125.142  0.00  0.00    -0.384 OA
ATOM     29  H   LIG A   1      -5.985  -2.485 125.688  0.00  0.00    +0.211 HD
ENDBRANCH   1  28
BRANCH   5  30
ATOM     30  C   LIG A   1      -6.970   1.809 122.722  0.00  0.00    +0.005 C 
ATOM     31  C   LIG A   1      -6.379   3.013 122.697  0.00  0.00    +0.008 C 
BRANCH  31  32
ATOM     32  C   LIG A   1      -6.214   3.834 121.490  0.00  0.00    -0.025 A 
ATOM     33  C   LIG A   1      -7.196   3.767 120.490  0.00  0.00    +0.011 A 
ATOM     34  C   LIG A   1      -7.062   4.498 119.307  0.00  0.00    +0.046 A 
ATOM     35  C   LIG A   1      -5.935   5.291 119.120  0.00  0.00    +0.117 A 
ATOM     36  C   LIG A   1      -4.945   5.362 120.093  0.00  0.00    +0.046 A 
ATOM     37  C   LIG A   1      -5.080   4.628 121.273  0.00  0.00    +0.011 A 
BRANCH  35  38
ATOM     38  O   LIG A   1      -5.755   6.015 117.980  0.00  0.00    -0.507 OA
ATOM     39  H   LIG A   1      -6.569   5.967 117.451  0.00  0.00    +0.292 HD
ENDBRANCH  35  38
ENDBRANCH  31  32
ENDBRANCH   5  30
TORSDOF 9
ENDMDL
MODEL 2
REMARK VINA RESULT:      -9.0      1.752      8.212
REMARK  Name = NuBBE_1969
REMARK  9 active torsions:
REMARK  status: ('A' for Active; 'I' for Inactive)
REMARK    1  A    between atoms: O_1  and  C_2
REMARK    2  A    between atoms: C_3  and  C_27
REMARK    3  A    between atoms: C_4  and  C_20
REMARK    4  A    between atoms: C_6  and  C_8
REMARK    5  A    between atoms: C_9  and  C_10
REMARK    6  A    between atoms: C_13  and  O_16
REMARK    7  A    between atoms: C_23  and  O_26
REMARK    8  A    between atoms: C_29  and  O_30
REMARK    9  A    between atoms: C_32  and  O_34
REMARK                            x       y       z     vdW  Elec       q    Type
REMARK                         _______ _______ _______ _____ _____    ______ ____
ROOT
ATOM      1  C   LIG A   1      -8.921   1.445 124.054  0.00  0.00    +0.099 C 
ATOM      2  C   LIG A   1      -7.738   2.477 123.875  0.00  0.00    +0.064 C 
ATOM      3  C   LIG A   1      -6.383   1.804 124.348  0.00  0.00    +0.044 C 
ATOM      4  C   LIG A   1      -6.664   0.312 124.688  0.00  0.00    +0.093 C 
ATOM      5  C   LIG A   1      -7.735   0.214 125.765  0.00  0.00    -0.038 C 
ATOM      6  C   LIG A   1      -8.876   0.849 125.454  0.00  0.00    +0.012 C 
ATOM      7  C   LIG A   1      -7.328  -0.296 123.436  0.00  0.00    +0.144 C 
ATOM      8  O   LIG A   1      -6.752  -1.097 122.701  0.00  0.00    -0.297 OA
ATOM      9  C   LIG A   1      -8.723   0.238 123.121  0.00  0.00    +0.114 C 
ENDROOT
BRANCH   3  10
ATOM     10  C   LIG A   1      -5.638   2.550 125.459  0.00  0.00    -0.042 A 
ATOM     11  C   LIG A   1      -4.614   1.963 126.223  0.00  0.00    +0.007 A 
ATOM     12  C   LIG A   1      -3.954   2.678 127.225  0.00  0.00    +0.045 A 
ATOM     13  C   LIG A   1      -4.307   3.995 127.472  0.00  0.00    +0.117 A 
ATOM     14  C   LIG A   1      -5.322   4.601 126.745  0.00  0.00    +0.045 A 
ATOM     15  C   LIG A   1      -5.982   3.885 125.741  0.00  0.00    +0.007 A 
BRANCH  13  16
ATOM     16  O   LIG A   1      -3.667   4.730 128.426  0.00  0.00    -0.507 OA
ATOM     17  H   LIG A   1      -4.337   5.127 129.008  0.00  0.00    +0.292 HD
ENDBRANCH  13  16
ENDBRANCH   3  10
BRANCH   2  18
ATOM     18  C   LIG A   1      -7.657   3.085 122.468  0.00  0.00    -0.034 A 
ATOM     19  C   LIG A   1      -8.788   3.291 121.659  0.00  0.00    +0.049 A 
ATOM     20  C   LIG A   1      -8.661   3.837 120.385  0.00  0.00    +0.121 A 
ATOM     21  C   LIG A   1      -7.424   4.212 119.886  0.00  0.00    +0.090 A 
ATOM     22  C   LIG A   1      -6.299   4.022 120.680  0.00  0.00    +0.121 A 
ATOM     23  C   LIG A   1      -6.404   3.462 121.953  0.00  0.00    +0.049 A 
BRANCH  20  24
ATOM     24  O   LIG A   1      -9.754   4.024 119.589  0.00  0.00    -0.507 OA
ATOM     25  H   LIG A   1      -9.460   4.366 118.728  0.00  0.00    +0.292 HD
ENDBRANCH  20  24
BRANCH  22  26
ATOM     26  O   LIG A   1      -5.058   4.377 120.241  0.00  0.00    -0.507 OA
ATOM     27  H   LIG A   1      -4.982   5.345 120.298  0.00  0.00    +0.292 HD
ENDBRANCH  22  26
ENDBRANCH   2  18
BRANCH   1  28
ATOM     28  O   LIG A   1     -10.197   2.028 123.865  0.00  0.00    -0.384 OA
ATOM     29  H   LIG A   1     -10.799   1.667 124.535  0.00  0.00    +0.211 HD
ENDBRANCH   1  28
BRANCH   5  30
ATOM     30  C   LIG A   1      -7.555  -0.557 126.972  0.00  0.00    +0.005 C 
ATOM     31  C   LIG A   1      -6.646  -1.532 127.127  0.00  0.00    +0.008 C 
BRANCH  31  32
ATOM     32  C   LIG A   1      -6.462  -2.310 128.359  0.00  0.00    -0.025 A 
ATOM     33  C   LIG A   1      -7.584  -2.586 129.155  0.00  0.00    +0.011 A 
ATOM     34  C   LIG A   1      -7.453  -3.287 130.356  0.00  0.00    +0.046 A 
ATOM     35  C   LIG A   1      -6.192  -3.705 130.767  0.00  0.00    +0.117 A 
ATOM     36  C   LIG A   1      -5.066  -3.431 129.999  0.00  0.00    +0.046 A 
ATOM     37  C   LIG A   1      -5.200  -2.728 128.800  0.00  0.00    +0.011 A 
BRANCH  35  38
ATOM     38  O   LIG A   1      -6.013  -4.385 131.934  0.00  0.00    -0.507 OA
ATOM     39  H   LIG A   1      -6.881  -4.673 132.261  0.00  0.00    +0.292 HD
ENDBRANCH  35  38
ENDBRANCH  31  32
ENDBRANCH   5  30
TORSDOF 9
ENDMDL
MODEL 3
REMARK VINA RESULT:      -9.0      1.861      8.849
REMARK  Name = NuBBE_1969
REMARK  9 active torsions:
REMARK  status: ('A' for Active; 'I' for Inactive)
REMARK    1  A    between atoms: O_1  and  C_2
REMARK    2  A    between atoms: C_3  and  C_27
REMARK    3  A    between atoms: C_4  and  C_20
REMARK    4  A    between atoms: C_6  and  C_8
REMARK    5  A    between atoms: C_9  and  C_10
REMARK    6  A    between atoms: C_13  and  O_16
REMARK    7  A    between atoms: C_23  and  O_26
REMARK    8  A    between atoms: C_29  and  O_30
REMARK    9  A    between atoms: C_32  and  O_34
REMARK                            x       y       z     vdW  Elec       q    Type
REMARK                         _______ _______ _______ _____ _____    ______ ____
ROOT
ATOM      1  C   LIG A   1      -5.800   3.476 124.737  0.00  0.00    +0.099 C 
ATOM      2  C   LIG A   1      -6.459   2.533 123.654  0.00  0.00    +0.064 C 
ATOM      3  C   LIG A   1      -7.766   1.874 124.264  0.00  0.00    +0.044 C 
ATOM      4  C   LIG A   1      -8.025   2.496 125.667  0.00  0.00    +0.093 C 
ATOM      5  C   LIG A   1      -6.820   2.272 126.569  0.00  0.00    -0.038 C 
ATOM      6  C   LIG A   1      -5.666   2.730 126.057  0.00  0.00    +0.012 C 
ATOM      7  C   LIG A   1      -8.064   4.023 125.458  0.00  0.00    +0.144 C 
ATOM      8  O   LIG A   1      -9.103   4.678 125.535  0.00  0.00    -0.297 OA
ATOM      9  C   LIG A   1      -6.733   4.655 125.059  0.00  0.00    +0.114 C 
ENDROOT
BRANCH   3  10
ATOM     10  C   LIG A   1      -7.783   0.342 124.267  0.00  0.00    -0.042 A 
ATOM     11  C   LIG A   1      -6.779  -0.437 123.666  0.00  0.00    +0.007 A 
ATOM     12  C   LIG A   1      -6.827  -1.832 123.694  0.00  0.00    +0.045 A 
ATOM     13  C   LIG A   1      -7.882  -2.468 124.331  0.00  0.00    +0.117 A 
ATOM     14  C   LIG A   1      -8.896  -1.730 124.923  0.00  0.00    +0.045 A 
ATOM     15  C   LIG A   1      -8.846  -0.332 124.896  0.00  0.00    +0.007 A 
BRANCH  13  16
ATOM     16  O   LIG A   1      -7.947  -3.828 124.399  0.00  0.00    -0.507 OA
ATOM     17  H   LIG A   1      -7.257  -4.139 125.010  0.00  0.00    +0.292 HD
ENDBRANCH  13  16
ENDBRANCH   3  10
BRANCH   2  18
ATOM     18  C   LIG A   1      -6.698   3.218 122.302  0.00  0.00    -0.034 A 
ATOM     19  C   LIG A   1      -5.677   3.860 121.580  0.00  0.00    +0.049 A 
ATOM     20  C   LIG A   1      -5.947   4.476 120.361  0.00  0.00    +0.121 A 
ATOM     21  C   LIG A   1      -7.220   4.457 119.815  0.00  0.00    +0.090 A 
ATOM     22  C   LIG A   1      -8.236   3.818 120.515  0.00  0.00    +0.121 A 
ATOM     23  C   LIG A   1      -7.990   3.208 121.744  0.00  0.00    +0.049 A 
BRANCH  20  24
ATOM     24  O   LIG A   1      -4.962   5.114 119.665  0.00  0.00    -0.507 OA
ATOM     25  H   LIG A   1      -4.516   4.469 119.089  0.00  0.00    +0.292 HD
ENDBRANCH  20  24
BRANCH  22  26
ATOM     26  O   LIG A   1      -9.506   3.765 120.022  0.00  0.00    -0.507 OA
ATOM     27  H   LIG A   1     -10.121   3.700 120.773  0.00  0.00    +0.292 HD
ENDBRANCH  22  26
ENDBRANCH   2  18
BRANCH   1  28
ATOM     28  O   LIG A   1      -4.515   3.936 124.360  0.00  0.00    -0.384 OA
ATOM     29  H   LIG A   1      -4.119   4.390 125.121  0.00  0.00    +0.211 HD
ENDBRANCH   1  28
BRANCH   5  30
ATOM     30  C   LIG A   1      -6.932   1.687 127.884  0.00  0.00    +0.005 C 
ATOM     31  C   LIG A   1      -7.707   0.635 128.188  0.00  0.00    +0.008 C 
BRANCH  31  32
ATOM     32  C   LIG A   1      -7.814   0.040 129.527  0.00  0.00    -0.025 A 
ATOM     33  C   LIG A   1      -8.264   0.842 130.586  0.00  0.00    +0.011 A 
ATOM     34  C   LIG A   1      -8.343   0.331 131.885  0.00  0.00    +0.046 A 
ATOM     35  C   LIG A   1      -7.962  -0.984 132.124  0.00  0.00    +0.117 A 
ATOM     36  C   LIG A   1      -7.503  -1.791 131.090  0.00  0.00    +0.046 A 
ATOM     37  C   LIG A   1      -7.421  -1.278 129.795  0.00  0.00    +0.011 A 
BRANCH  35  38
ATOM     38  O   LIG A   1      -8.014  -1.524 133.374  0.00  0.00    -0.507 OA
ATOM     39  H   LIG A   1      -7.155  -1.388 133.806  0.00  0.00    +0.292 HD
ENDBRANCH  35  38
ENDBRANCH  31  32
ENDBRANCH   5  30
TORSDOF 9
ENDMDL
MODEL 4
REMARK VINA RESULT:      -8.4      2.008      4.714
REMARK  Name = NuBBE_1969
REMARK  9 active torsions:
REMARK  status: ('A' for Active; 'I' for Inactive)
REMARK    1  A    between atoms: O_1  and  C_2
REMARK    2  A    between atoms: C_3  and  C_27
REMARK    3  A    between atoms: C_4  and  C_20
REMARK    4  A    between atoms: C_6  and  C_8
REMARK    5  A    between atoms: C_9  and  C_10
REMARK    6  A    between atoms: C_13  and  O_16
REMARK    7  A    between atoms: C_23  and  O_26
REMARK    8  A    between atoms: C_29  and  O_30
REMARK    9  A    between atoms: C_32  and  O_34
REMARK                            x       y       z     vdW  Elec       q    Type
REMARK                         _______ _______ _______ _____ _____    ______ ____
ROOT
ATOM      1  C   LIG A   1      -7.861   1.516 128.405  0.00  0.00    +0.099 C 
ATOM      2  C   LIG A   1      -7.829  -0.058 128.266  0.00  0.00    +0.064 C 
ATOM      3  C   LIG A   1      -7.053  -0.448 126.939  0.00  0.00    +0.044 C 
ATOM      4  C   LIG A   1      -6.467   0.849 126.310  0.00  0.00    +0.093 C 
ATOM      5  C   LIG A   1      -7.584   1.843 126.025  0.00  0.00    -0.038 C 
ATOM      6  C   LIG A   1      -8.334   2.138 127.099  0.00  0.00    +0.012 C 
ATOM      7  C   LIG A   1      -5.632   1.523 127.416  0.00  0.00    +0.144 C 
ATOM      8  O   LIG A   1      -4.402   1.560 127.391  0.00  0.00    -0.297 OA
ATOM      9  C   LIG A   1      -6.436   2.065 128.595  0.00  0.00    +0.114 C 
ENDROOT
BRANCH   3  10
ATOM     10  C   LIG A   1      -7.849  -1.299 125.945  0.00  0.00    -0.042 A 
ATOM     11  C   LIG A   1      -7.607  -1.289 124.561  0.00  0.00    +0.007 A 
ATOM     12  C   LIG A   1      -8.351  -2.083 123.686  0.00  0.00    +0.045 A 
ATOM     13  C   LIG A   1      -9.347  -2.906 124.189  0.00  0.00    +0.117 A 
ATOM     14  C   LIG A   1      -9.621  -2.931 125.548  0.00  0.00    +0.045 A 
ATOM     15  C   LIG A   1      -8.874  -2.136 126.424  0.00  0.00    +0.007 A 
BRANCH  13  16
ATOM     16  O   LIG A   1     -10.076  -3.714 123.367  0.00  0.00    -0.507 OA
ATOM     17  H   LIG A   1     -10.874  -3.231 123.091  0.00  0.00    +0.292 HD
ENDBRANCH  13  16
ENDBRANCH   3  10
BRANCH   2  18
ATOM     18  C   LIG A   1      -7.300  -0.777 129.513  0.00  0.00    -0.034 A 
ATOM     19  C   LIG A   1      -7.867  -0.611 130.789  0.00  0.00    +0.049 A 
ATOM     20  C   LIG A   1      -7.345  -1.280 131.893  0.00  0.00    +0.121 A 
ATOM     21  C   LIG A   1      -6.267  -2.141 131.764  0.00  0.00    +0.090 A 
ATOM     22  C   LIG A   1      -5.702  -2.319 130.508  0.00  0.00    +0.121 A 
ATOM     23  C   LIG A   1      -6.202  -1.648 129.392  0.00  0.00    +0.049 A 
BRANCH  20  24
ATOM     24  O   LIG A   1      -7.882  -1.109 133.135  0.00  0.00    -0.507 OA
ATOM     25  H   LIG A   1      -8.596  -1.758 133.260  0.00  0.00    +0.292 HD
ENDBRANCH  20  24
BRANCH  22  26
ATOM     26  O   LIG A   1      -4.643  -3.158 130.323  0.00  0.00    -0.507 OA
ATOM     27  H   LIG A   1      -4.552  -3.327 129.370  0.00  0.00    +0.292 HD
ENDBRANCH  22  26
ENDBRANCH   2  18
BRANCH   1  28
ATOM     28  O   LIG A   1      -8.717   1.962 129.440  0.00  0.00    -0.384 OA
ATOM     29  H   LIG A   1      -9.189   2.750 129.127  0.00  0.00    +0.211 HD
ENDBRANCH   1  28
BRANCH   5  30
ATOM     30  C   LIG A   1      -7.763   2.461 124.733  0.00  0.00    +0.005 C 
ATOM     31  C   LIG A   1      -6.985   2.234 123.663  0.00  0.00    +0.008 C 
BRANCH  31  32
ATOM     32  C   LIG A   1      -7.174   2.861 122.349  0.00  0.00    -0.025 A 
ATOM     33  C   LIG A   1      -6.041   3.187 121.589  0.00  0.00    +0.011 A 
ATOM     34  C   LIG A   1      -6.169   3.822 120.351  0.00  0.00    +0.046 A 
ATOM     35  C   LIG A   1      -7.438   4.140 119.876  0.00  0.00    +0.117 A 
ATOM     36  C   LIG A   1      -8.572   3.836 120.619  0.00  0.00    +0.046 A 
ATOM     37  C   LIG A   1      -8.440   3.204 121.857  0.00  0.00    +0.011 A 
BRANCH  35  38
ATOM     38  O   LIG A   1      -7.613   4.766 118.679  0.00  0.00    -0.507 OA
ATOM     39  H   LIG A   1      -8.528   5.089 118.630  0.00  0.00    +0.292 HD
ENDBRANCH  35  38
ENDBRANCH  31  32
ENDBRANCH   5  30
TORSDOF 9
ENDMDL
MODEL 5
REMARK VINA RESULT:      -8.3      1.674      4.201
REMARK  Name = NuBBE_1969
REMARK  9 active torsions:
REMARK  status: ('A' for Active; 'I' for Inactive)
REMARK    1  A    between atoms: O_1  and  C_2
REMARK    2  A    between atoms: C_3  and  C_27
REMARK    3  A    between atoms: C_4  and  C_20
REMARK    4  A    between atoms: C_6  and  C_8
REMARK    5  A    between atoms: C_9  and  C_10
REMARK    6  A    between atoms: C_13  and  O_16
REMARK    7  A    between atoms: C_23  and  O_26
REMARK    8  A    between atoms: C_29  and  O_30
REMARK    9  A    between atoms: C_32  and  O_34
REMARK                            x       y       z     vdW  Elec       q    Type
REMARK                         _______ _______ _______ _____ _____    ______ ____
ROOT
ATOM      1  C   LIG A   1      -7.515   2.772 127.743  0.00  0.00    +0.099 C 
ATOM      2  C   LIG A   1      -7.446   1.203 127.569  0.00  0.00    +0.064 C 
ATOM      3  C   LIG A   1      -6.335   0.847 126.495  0.00  0.00    +0.044 C 
ATOM      4  C   LIG A   1      -5.598   2.157 126.092  0.00  0.00    +0.093 C 
ATOM      5  C   LIG A   1      -6.594   3.169 125.543  0.00  0.00    -0.038 C 
ATOM      6  C   LIG A   1      -7.610   3.438 126.377  0.00  0.00    +0.012 C 
ATOM      7  C   LIG A   1      -5.100   2.791 127.406  0.00  0.00    +0.144 C 
ATOM      8  O   LIG A   1      -3.910   2.817 127.721  0.00  0.00    -0.297 OA
ATOM      9  C   LIG A   1      -6.198   3.303 128.334  0.00  0.00    +0.114 C 
ENDROOT
BRANCH   3  10
ATOM     10  C   LIG A   1      -6.827   0.033 125.295  0.00  0.00    -0.042 A 
ATOM     11  C   LIG A   1      -5.966  -0.709 124.468  0.00  0.00    +0.007 A 
ATOM     12  C   LIG A   1      -6.453  -1.444 123.384  0.00  0.00    +0.045 A 
ATOM     13  C   LIG A   1      -7.814  -1.449 123.117  0.00  0.00    +0.117 A 
ATOM     14  C   LIG A   1      -8.689  -0.718 123.906  0.00  0.00    +0.045 A 
ATOM     15  C   LIG A   1      -8.201   0.017 124.992  0.00  0.00    +0.007 A 
BRANCH  13  16
ATOM     16  O   LIG A   1      -8.326  -2.175 122.083  0.00  0.00    -0.507 OA
ATOM     17  H   LIG A   1      -7.719  -2.911 121.894  0.00  0.00    +0.292 HD
ENDBRANCH  13  16
ENDBRANCH   3  10
BRANCH   2  18
ATOM     18  C   LIG A   1      -7.280   0.442 128.891  0.00  0.00    -0.034 A 
ATOM     19  C   LIG A   1      -8.229   0.497 129.928  0.00  0.00    +0.049 A 
ATOM     20  C   LIG A   1      -8.028  -0.205 131.113  0.00  0.00    +0.121 A 
ATOM     21  C   LIG A   1      -6.902  -0.991 131.298  0.00  0.00    +0.090 A 
ATOM     22  C   LIG A   1      -5.962  -1.060 130.278  0.00  0.00    +0.121 A 
ATOM     23  C   LIG A   1      -6.137  -0.353 129.089  0.00  0.00    +0.049 A 
BRANCH  20  24
ATOM     24  O   LIG A   1      -8.938  -0.142 132.128  0.00  0.00    -0.507 OA
ATOM     25  H   LIG A   1      -9.830  -0.247 131.756  0.00  0.00    +0.292 HD
ENDBRANCH  20  24
BRANCH  22  26
ATOM     26  O   LIG A   1      -4.838  -1.822 130.405  0.00  0.00    -0.507 OA
ATOM     27  H   LIG A   1      -4.074  -1.225 130.483  0.00  0.00    +0.292 HD
ENDBRANCH  22  26
ENDBRANCH   2  18
BRANCH   1  28
ATOM     28  O   LIG A   1      -8.623   3.195 128.516  0.00  0.00    -0.384 OA
ATOM     29  H   LIG A   1      -9.432   2.868 128.093  0.00  0.00    +0.211 HD
ENDBRANCH   1  28
BRANCH   5  30
ATOM     30  C   LIG A   1      -6.411   3.827 124.271  0.00  0.00    +0.005 C 
ATOM     31  C   LIG A   1      -6.398   3.202 123.083  0.00  0.00    +0.008 C 
BRANCH  31  32
ATOM     32  C   LIG A   1      -6.217   3.876 121.791  0.00  0.00    -0.025 A 
ATOM     33  C   LIG A   1      -7.204   3.722 120.807  0.00  0.00    +0.011 A 
ATOM     34  C   LIG A   1      -7.057   4.311 119.548  0.00  0.00    +0.046 A 
ATOM     35  C   LIG A   1      -5.910   5.048 119.271  0.00  0.00    +0.117 A 
ATOM     36  C   LIG A   1      -4.915   5.202 120.228  0.00  0.00    +0.046 A 
ATOM     37  C   LIG A   1      -5.064   4.610 121.484  0.00  0.00    +0.011 A 
BRANCH  35  38
ATOM     38  O   LIG A   1      -5.717   5.633 118.055  0.00  0.00    -0.507 OA
ATOM     39  H   LIG A   1      -6.224   6.461 118.027  0.00  0.00    +0.292 HD
ENDBRANCH  35  38
ENDBRANCH  31  32
ENDBRANCH   5  30
TORSDOF 9
ENDMDL
MODEL 6
REMARK VINA RESULT:      -8.2      4.882      7.422
REMARK  Name = NuBBE_1969
REMARK  9 active torsions:
REMARK  status: ('A' for Active; 'I' for Inactive)
REMARK    1  A    between atoms: O_1  and  C_2
REMARK    2  A    between atoms: C_3  and  C_27
REMARK    3  A    between atoms: C_4  and  C_20
REMARK    4  A    between atoms: C_6  and  C_8
REMARK    5  A    between atoms: C_9  and  C_10
REMARK    6  A    between atoms: C_13  and  O_16
REMARK    7  A    between atoms: C_23  and  O_26
REMARK    8  A    between atoms: C_29  and  O_30
REMARK    9  A    between atoms: C_32  and  O_34
REMARK                            x       y       z     vdW  Elec       q    Type
REMARK                         _______ _______ _______ _____ _____    ______ ____
ROOT
ATOM      1  C   LIG A   1      -9.001   1.557 131.236  0.00  0.00    +0.099 C 
ATOM      2  C   LIG A   1      -8.262   0.971 129.969  0.00  0.00    +0.064 C 
ATOM      3  C   LIG A   1      -7.560   2.154 129.181  0.00  0.00    +0.044 C 
ATOM      4  C   LIG A   1      -7.721   3.462 130.009  0.00  0.00    +0.093 C 
ATOM      5  C   LIG A   1      -9.196   3.754 130.245  0.00  0.00    -0.038 C 
ATOM      6  C   LIG A   1      -9.862   2.744 130.827  0.00  0.00    +0.012 C 
ATOM      7  C   LIG A   1      -7.166   3.153 131.413  0.00  0.00    +0.144 C 
ATOM      8  O   LIG A   1      -6.106   3.621 131.827  0.00  0.00    -0.297 OA
ATOM      9  C   LIG A   1      -7.981   2.149 132.224  0.00  0.00    +0.114 C 
ENDROOT
BRANCH   3  10
ATOM     10  C   LIG A   1      -7.985   2.305 127.718  0.00  0.00    -0.042 A 
ATOM     11  C   LIG A   1      -8.717   1.325 127.026  0.00  0.00    +0.007 A 
ATOM     12  C   LIG A   1      -9.091   1.501 125.692  0.00  0.00    +0.045 A 
ATOM     13  C   LIG A   1      -8.739   2.669 125.032  0.00  0.00    +0.117 A 
ATOM     14  C   LIG A   1      -8.005   3.651 125.681  0.00  0.00    +0.045 A 
ATOM     15  C   LIG A   1      -7.633   3.474 127.017  0.00  0.00    +0.007 A 
BRANCH  13  16
ATOM     16  O   LIG A   1      -9.108   2.885 123.738  0.00  0.00    -0.507 OA
ATOM     17  H   LIG A   1      -9.435   2.047 123.368  0.00  0.00    +0.292 HD
ENDBRANCH  13  16
ENDBRANCH   3  10
BRANCH   2  18
ATOM     18  C   LIG A   1      -7.314  -0.192 130.290  0.00  0.00    -0.034 A 
ATOM     19  C   LIG A   1      -7.736  -1.363 130.945  0.00  0.00    +0.049 A 
ATOM     20  C   LIG A   1      -6.835  -2.387 131.222  0.00  0.00    +0.121 A 
ATOM     21  C   LIG A   1      -5.505  -2.293 130.846  0.00  0.00    +0.090 A 
ATOM     22  C   LIG A   1      -5.077  -1.144 130.192  0.00  0.00    +0.121 A 
ATOM     23  C   LIG A   1      -5.961  -0.101 129.917  0.00  0.00    +0.049 A 
BRANCH  20  24
ATOM     24  O   LIG A   1      -7.237  -3.518 131.871  0.00  0.00    -0.507 OA
ATOM     25  H   LIG A   1      -7.515  -3.281 132.772  0.00  0.00    +0.292 HD
ENDBRANCH  20  24
BRANCH  22  26
ATOM     26  O   LIG A   1      -3.780  -1.000 129.795  0.00  0.00    -0.507 OA
ATOM     27  H   LIG A   1      -3.262  -0.694 130.558  0.00  0.00    +0.292 HD
ENDBRANCH  22  26
ENDBRANCH   2  18
BRANCH   1  28
ATOM     28  O   LIG A   1      -9.835   0.610 131.877  0.00  0.00    -0.384 OA
ATOM     29  H   LIG A   1      -9.450   0.402 132.743  0.00  0.00    +0.211 HD
ENDBRANCH   1  28
BRANCH   5  30
ATOM     30  C   LIG A   1      -9.795   5.030 129.934  0.00  0.00    +0.005 C 
ATOM     31  C   LIG A   1     -11.067   5.362 130.203  0.00  0.00    +0.008 C 
BRANCH  31  32
ATOM     32  C   LIG A   1     -11.672   6.663 129.890  0.00  0.00    -0.025 A 
ATOM     33  C   LIG A   1     -11.385   7.259 128.653  0.00  0.00    +0.011 A 
ATOM     34  C   LIG A   1     -11.903   8.515 128.327  0.00  0.00    +0.046 A 
ATOM     35  C   LIG A   1     -12.705   9.181 129.248  0.00  0.00    +0.117 A 
ATOM     36  C   LIG A   1     -12.991   8.613 130.483  0.00  0.00    +0.046 A 
ATOM     37  C   LIG A   1     -12.470   7.359 130.808  0.00  0.00    +0.011 A 
BRANCH  35  38
ATOM     38  O   LIG A   1     -13.227  10.410 128.979  0.00  0.00    -0.507 OA
ATOM     39  H   LIG A   1     -12.495  11.041 128.873  0.00  0.00    +0.292 HD
ENDBRANCH  35  38
ENDBRANCH  31  32
ENDBRANCH   5  30
TORSDOF 9
ENDMDL
MODEL 7
REMARK VINA RESULT:      -8.1      4.116      8.207
REMARK  Name = NuBBE_1969
REMARK  9 active torsions:
REMARK  status: ('A' for Active; 'I' for Inactive)
REMARK    1  A    between atoms: O_1  and  C_2
REMARK    2  A    between atoms: C_3  and  C_27
REMARK    3  A    between atoms: C_4  and  C_20
REMARK    4  A    between atoms: C_6  and  C_8
REMARK    5  A    between atoms: C_9  and  C_10
REMARK    6  A    between atoms: C_13  and  O_16
REMARK    7  A    between atoms: C_23  and  O_26
REMARK    8  A    between atoms: C_29  and  O_30
REMARK    9  A    between atoms: C_32  and  O_34
REMARK                            x       y       z     vdW  Elec       q    Type
REMARK                         _______ _______ _______ _____ _____    ______ ____
ROOT
ATOM      1  C   LIG A   1      -5.934   0.493 127.060  0.00  0.00    +0.099 C 
ATOM      2  C   LIG A   1      -6.498  -0.929 127.455  0.00  0.00    +0.064 C 
ATOM      3  C   LIG A   1      -7.712  -0.747 128.459  0.00  0.00    +0.044 C 
ATOM      4  C   LIG A   1      -8.019   0.773 128.593  0.00  0.00    +0.093 C 
ATOM      5  C   LIG A   1      -6.783   1.516 129.079  0.00  0.00    -0.038 C 
ATOM      6  C   LIG A   1      -5.697   1.321 128.315  0.00  0.00    +0.012 C 
ATOM      7  C   LIG A   1      -8.235   1.295 127.158  0.00  0.00    +0.144 C 
ATOM      8  O   LIG A   1      -9.340   1.625 126.730  0.00  0.00    -0.297 OA
ATOM      9  C   LIG A   1      -6.991   1.287 126.274  0.00  0.00    +0.114 C 
ENDROOT
BRANCH   3  10
ATOM     10  C   LIG A   1      -7.554  -1.455 129.808  0.00  0.00    -0.042 A 
ATOM     11  C   LIG A   1      -8.079  -0.945 131.008  0.00  0.00    +0.007 A 
ATOM     12  C   LIG A   1      -7.919  -1.623 132.218  0.00  0.00    +0.045 A 
ATOM     13  C   LIG A   1      -7.233  -2.828 132.242  0.00  0.00    +0.117 A 
ATOM     14  C   LIG A   1      -6.691  -3.353 131.079  0.00  0.00    +0.045 A 
ATOM     15  C   LIG A   1      -6.853  -2.674 129.866  0.00  0.00    +0.007 A 
BRANCH  13  16
ATOM     16  O   LIG A   1      -7.080  -3.528 133.402  0.00  0.00    -0.507 OA
ATOM     17  H   LIG A   1      -7.640  -4.322 133.357  0.00  0.00    +0.292 HD
ENDBRANCH  13  16
ENDBRANCH   3  10
BRANCH   2  18
ATOM     18  C   LIG A   1      -6.834  -1.818 126.251  0.00  0.00    -0.034 A 
ATOM     19  C   LIG A   1      -5.849  -2.409 125.440  0.00  0.00    +0.049 A 
ATOM     20  C   LIG A   1      -6.204  -3.200 124.351  0.00  0.00    +0.121 A 
ATOM     21  C   LIG A   1      -7.534  -3.444 124.047  0.00  0.00    +0.090 A 
ATOM     22  C   LIG A   1      -8.516  -2.873 124.845  0.00  0.00    +0.121 A 
ATOM     23  C   LIG A   1      -8.181  -2.065 125.932  0.00  0.00    +0.049 A 
BRANCH  20  24
ATOM     24  O   LIG A   1      -5.252  -3.763 123.552  0.00  0.00    -0.507 OA
ATOM     25  H   LIG A   1      -4.975  -4.609 123.942  0.00  0.00    +0.292 HD
ENDBRANCH  20  24
BRANCH  22  26
ATOM     26  O   LIG A   1      -9.840  -3.084 124.594  0.00  0.00    -0.507 OA
ATOM     27  H   LIG A   1      -9.969  -4.032 124.424  0.00  0.00    +0.292 HD
ENDBRANCH  22  26
ENDBRANCH   2  18
BRANCH   1  28
ATOM     28  O   LIG A   1      -4.716   0.424 126.342  0.00  0.00    -0.384 OA
ATOM     29  H   LIG A   1      -4.837   0.874 125.491  0.00  0.00    +0.211 HD
ENDBRANCH   1  28
BRANCH   5  30
ATOM     30  C   LIG A   1      -6.808   2.404 130.217  0.00  0.00    +0.005 C 
ATOM     31  C   LIG A   1      -7.909   2.717 130.917  0.00  0.00    +0.008 C 
BRANCH  31  32
ATOM     32  C   LIG A   1      -7.930   3.618 132.077  0.00  0.00    -0.025 A 
ATOM     33  C   LIG A   1      -8.542   3.178 133.260  0.00  0.00    +0.011 A 
ATOM     34  C   LIG A   1      -8.622   4.014 134.377  0.00  0.00    +0.046 A 
ATOM     35  C   LIG A   1      -8.095   5.299 134.305  0.00  0.00    +0.117 A 
ATOM     36  C   LIG A   1      -7.495   5.758 133.139  0.00  0.00    +0.046 A 
ATOM     37  C   LIG A   1      -7.419   4.921 132.023  0.00  0.00    +0.011 A 
BRANCH  35  38
ATOM     38  O   LIG A   1      -8.156   6.154 135.365  0.00  0.00    -0.507 OA
ATOM     39  H   LIG A   1      -8.877   6.786 135.211  0.00  0.00    +0.292 HD
ENDBRANCH  35  38
ENDBRANCH  31  32
ENDBRANCH   5  30
TORSDOF 9
ENDMDL
MODEL 8
REMARK VINA RESULT:      -8.0      2.505      5.659
REMARK  Name = NuBBE_1969
REMARK  9 active torsions:
REMARK  status: ('A' for Active; 'I' for Inactive)
REMARK    1  A    between atoms: O_1  and  C_2
REMARK    2  A    between atoms: C_3  and  C_27
REMARK    3  A    between atoms: C_4  and  C_20
REMARK    4  A    between atoms: C_6  and  C_8
REMARK    5  A    between atoms: C_9  and  C_10
REMARK    6  A    between atoms: C_13  and  O_16
REMARK    7  A    between atoms: C_23  and  O_26
REMARK    8  A    between atoms: C_29  and  O_30
REMARK    9  A    between atoms: C_32  and  O_34
REMARK                            x       y       z     vdW  Elec       q    Type
REMARK                         _______ _______ _______ _____ _____    ______ ____
ROOT
ATOM      1  C   LIG A   1      -7.898   0.171 130.751  0.00  0.00    +0.099 C 
ATOM      2  C   LIG A   1      -7.753  -1.361 130.392  0.00  0.00    +0.064 C 
ATOM      3  C   LIG A   1      -6.715  -1.522 129.205  0.00  0.00    +0.044 C 
ATOM      4  C   LIG A   1      -6.089  -0.129 128.904  0.00  0.00    +0.093 C 
ATOM      5  C   LIG A   1      -7.182   0.870 128.551  0.00  0.00    -0.038 C 
ATOM      6  C   LIG A   1      -8.141   0.977 129.483  0.00  0.00    +0.012 C 
ATOM      7  C   LIG A   1      -5.522   0.386 130.241  0.00  0.00    +0.144 C 
ATOM      8  O   LIG A   1      -4.315   0.456 130.469  0.00  0.00    -0.297 OA
ATOM      9  C   LIG A   1      -6.569   0.718 131.302  0.00  0.00    +0.114 C 
ENDROOT
BRANCH   3  10
ATOM     10  C   LIG A   1      -7.255  -2.228 127.958  0.00  0.00    -0.042 A 
ATOM     11  C   LIG A   1      -8.409  -3.029 127.969  0.00  0.00    +0.007 A 
ATOM     12  C   LIG A   1      -8.873  -3.653 126.809  0.00  0.00    +0.045 A 
ATOM     13  C   LIG A   1      -8.188  -3.478 125.617  0.00  0.00    +0.117 A 
ATOM     14  C   LIG A   1      -7.038  -2.704 125.573  0.00  0.00    +0.045 A 
ATOM     15  C   LIG A   1      -6.574  -2.078 126.735  0.00  0.00    +0.007 A 
BRANCH  13  16
ATOM     16  O   LIG A   1      -8.627  -4.051 124.461  0.00  0.00    -0.507 OA
ATOM     17  H   LIG A   1      -8.081  -4.836 124.281  0.00  0.00    +0.292 HD
ENDBRANCH  13  16
ENDBRANCH   3  10
BRANCH   2  18
ATOM     18  C   LIG A   1      -7.438  -2.252 131.601  0.00  0.00    -0.034 A 
ATOM     19  C   LIG A   1      -8.188  -2.219 132.790  0.00  0.00    +0.049 A 
ATOM     20  C   LIG A   1      -7.856  -3.041 133.863  0.00  0.00    +0.121 A 
ATOM     21  C   LIG A   1      -6.793  -3.928 133.785  0.00  0.00    +0.090 A 
ATOM     22  C   LIG A   1      -6.050  -3.975 132.612  0.00  0.00    +0.121 A 
ATOM     23  C   LIG A   1      -6.357  -3.149 131.531  0.00  0.00    +0.049 A 
BRANCH  20  24
ATOM     24  O   LIG A   1      -8.570  -3.002 135.025  0.00  0.00    -0.507 OA
ATOM     25  H   LIG A   1      -8.022  -2.593 135.716  0.00  0.00    +0.292 HD
ENDBRANCH  20  24
BRANCH  22  26
ATOM     26  O   LIG A   1      -4.997  -4.832 132.479  0.00  0.00    -0.507 OA
ATOM     27  H   LIG A   1      -4.575  -4.931 133.349  0.00  0.00    +0.292 HD
ENDBRANCH  22  26
ENDBRANCH   2  18
BRANCH   1  28
ATOM     28  O   LIG A   1      -8.962   0.430 131.648  0.00  0.00    -0.384 OA
ATOM     29  H   LIG A   1      -9.304  -0.419 131.969  0.00  0.00    +0.211 HD
ENDBRANCH   1  28
BRANCH   5  30
ATOM     30  C   LIG A   1      -7.140   1.676 127.353  0.00  0.00    +0.005 C 
ATOM     31  C   LIG A   1      -6.205   1.574 126.396  0.00  0.00    +0.008 C 
BRANCH  31  32
ATOM     32  C   LIG A   1      -6.170   2.393 125.178  0.00  0.00    -0.025 A 
ATOM     33  C   LIG A   1      -6.843   1.932 124.037  0.00  0.00    +0.011 A 
ATOM     34  C   LIG A   1      -6.804   2.656 122.842  0.00  0.00    +0.046 A 
ATOM     35  C   LIG A   1      -6.079   3.842 122.788  0.00  0.00    +0.117 A 
ATOM     36  C   LIG A   1      -5.395   4.309 123.904  0.00  0.00    +0.046 A 
ATOM     37  C   LIG A   1      -5.434   3.582 125.095  0.00  0.00    +0.011 A 
BRANCH  35  38
ATOM     38  O   LIG A   1      -6.004   4.578 121.644  0.00  0.00    -0.507 OA
ATOM     39  H   LIG A   1      -5.843   3.976 120.898  0.00  0.00    +0.292 HD
ENDBRANCH  35  38
ENDBRANCH  31  32
ENDBRANCH   5  30
TORSDOF 9
ENDMDL
MODEL 9
REMARK VINA RESULT:      -7.9      4.295      7.376
REMARK  Name = NuBBE_1969
REMARK  9 active torsions:
REMARK  status: ('A' for Active; 'I' for Inactive)
REMARK    1  A    between atoms: O_1  and  C_2
REMARK    2  A    between atoms: C_3  and  C_27
REMARK    3  A    between atoms: C_4  and  C_20
REMARK    4  A    between atoms: C_6  and  C_8
REMARK    5  A    between atoms: C_9  and  C_10
REMARK    6  A    between atoms: C_13  and  O_16
REMARK    7  A    between atoms: C_23  and  O_26
REMARK    8  A    between atoms: C_29  and  O_30
REMARK    9  A    between atoms: C_32  and  O_34
REMARK                            x       y       z     vdW  Elec       q    Type
REMARK                         _______ _______ _______ _____ _____    ______ ____
ROOT
ATOM      1  C   LIG A   1      -7.702  -0.325 131.308  0.00  0.00    +0.099 C 
ATOM      2  C   LIG A   1      -7.237  -0.913 129.918  0.00  0.00    +0.064 C 
ATOM      3  C   LIG A   1      -6.957   0.282 128.914  0.00  0.00    +0.044 C 
ATOM      4  C   LIG A   1      -7.098   1.623 129.690  0.00  0.00    +0.093 C 
ATOM      5  C   LIG A   1      -8.488   1.729 130.303  0.00  0.00    -0.038 C 
ATOM      6  C   LIG A   1      -8.814   0.692 131.091  0.00  0.00    +0.012 C 
ATOM      7  C   LIG A   1      -6.156   1.517 130.905  0.00  0.00    +0.144 C 
ATOM      8  O   LIG A   1      -5.110   2.161 130.993  0.00  0.00    -0.297 OA
ATOM      9  C   LIG A   1      -6.565   0.486 131.953  0.00  0.00    +0.114 C 
ENDROOT
BRANCH   3  10
ATOM     10  C   LIG A   1      -7.767   0.244 127.614  0.00  0.00    -0.042 A 
ATOM     11  C   LIG A   1      -8.162   1.403 126.923  0.00  0.00    +0.007 A 
ATOM     12  C   LIG A   1      -8.896   1.327 125.737  0.00  0.00    +0.045 A 
ATOM     13  C   LIG A   1      -9.241   0.087 125.223  0.00  0.00    +0.117 A 
ATOM     14  C   LIG A   1      -8.879  -1.076 125.887  0.00  0.00    +0.045 A 
ATOM     15  C   LIG A   1      -8.142  -1.000 127.074  0.00  0.00    +0.007 A 
BRANCH  13  16
ATOM     16  O   LIG A   1      -9.936  -0.024 124.055  0.00  0.00    -0.507 OA
ATOM     17  H   LIG A   1      -9.382  -0.500 123.413  0.00  0.00    +0.292 HD
ENDBRANCH  13  16
ENDBRANCH   3  10
BRANCH   2  18
ATOM     18  C   LIG A   1      -6.069  -1.902 130.025  0.00  0.00    -0.034 A 
ATOM     19  C   LIG A   1      -4.729  -1.528 129.821  0.00  0.00    +0.049 A 
ATOM     20  C   LIG A   1      -3.705  -2.466 129.921  0.00  0.00    +0.121 A 
ATOM     21  C   LIG A   1      -3.972  -3.787 130.243  0.00  0.00    +0.090 A 
ATOM     22  C   LIG A   1      -5.291  -4.167 130.456  0.00  0.00    +0.121 A 
ATOM     23  C   LIG A   1      -6.333  -3.246 130.346  0.00  0.00    +0.049 A 
BRANCH  20  24
ATOM     24  O   LIG A   1      -2.405  -2.110 129.707  0.00  0.00    -0.507 OA
ATOM     25  H   LIG A   1      -2.386  -1.296 129.176  0.00  0.00    +0.292 HD
ENDBRANCH  20  24
BRANCH  22  26
ATOM     26  O   LIG A   1      -5.611  -5.453 130.780  0.00  0.00    -0.507 OA
ATOM     27  H   LIG A   1      -4.803  -5.898 131.088  0.00  0.00    +0.292 HD
ENDBRANCH  22  26
ENDBRANCH   2  18
BRANCH   1  28
ATOM     28  O   LIG A   1      -8.182  -1.317 132.196  0.00  0.00    -0.384 OA
ATOM     29  H   LIG A   1      -8.366  -2.121 131.684  0.00  0.00    +0.211 HD
ENDBRANCH   1  28
BRANCH   5  30
ATOM     30  C   LIG A   1      -9.338   2.879 130.105  0.00  0.00    +0.005 C 
ATOM     31  C   LIG A   1      -9.078   4.110 130.573  0.00  0.00    +0.008 C 
BRANCH  31  32
ATOM     32  C   LIG A   1      -9.944   5.278 130.365  0.00  0.00    -0.025 A 
ATOM     33  C   LIG A   1      -9.689   6.119 129.272  0.00  0.00    +0.011 A 
ATOM     34  C   LIG A   1     -10.460   7.265 129.057  0.00  0.00    +0.046 A 
ATOM     35  C   LIG A   1     -11.483   7.574 129.947  0.00  0.00    +0.117 A 
ATOM     36  C   LIG A   1     -11.744   6.760 131.043  0.00  0.00    +0.046 A 
ATOM     37  C   LIG A   1     -10.970   5.618 131.256  0.00  0.00    +0.011 A 
BRANCH  35  38
ATOM     38  O   LIG A   1     -12.256   8.685 129.784  0.00  0.00    -0.507 OA
ATOM     39  H   LIG A   1     -13.189   8.427 129.867  0.00  0.00    +0.292 HD
ENDBRANCH  35  38
ENDBRANCH  31  32
ENDBRANCH   5  30
TORSDOF 9
ENDMDL
