MODEL 1
REMARK VINA RESULT:      -6.2      0.000      0.000
REMARK  Name = NuBBE_220
REMARK  7 active torsions:
REMARK  status: ('A' for Active; 'I' for Inactive)
REMARK    1  A    between atoms: O_1  and  C_2
REMARK    2  A    between atoms: C_6  and  C_7
REMARK    3  A    between atoms: C_7  and  C_8
REMARK    4  A    between atoms: C_7  and  C_10
REMARK    5  A    between atoms: C_8  and  O_9
REMARK    6  A    between atoms: C_13  and  C_14
REMARK    7  A    between atoms: C_16  and  C_17
REMARK                            x       y       z     vdW  Elec       q    Type
REMARK                         _______ _______ _______ _____ _____    ______ ____
ROOT
ATOM      1  C   LIG A   1      -5.523   4.617 121.445  0.00  0.00    +0.120 A 
ATOM      2  C   LIG A   1      -5.192   4.378 122.776  0.00  0.00    +0.054 A 
ATOM      3  C   LIG A   1      -5.949   3.502 123.585  0.00  0.00    -0.011 A 
ATOM      4  C   LIG A   1      -7.081   2.842 123.017  0.00  0.00    -0.014 A 
ATOM      5  C   LIG A   1      -7.855   1.957 123.833  0.00  0.00    -0.035 A 
ATOM      6  C   LIG A   1      -7.469   1.746 125.168  0.00  0.00    +0.005 A 
ATOM      7  C   LIG A   1      -6.368   2.394 125.714  0.00  0.00    +0.004 A 
ATOM      8  C   LIG A   1      -5.604   3.271 124.942  0.00  0.00    -0.043 A 
ATOM      9  C   LIG A   1      -4.427   3.945 125.602  0.00  0.00    +0.044 C 
ATOM     10  C   LIG A   1      -7.374   3.110 121.654  0.00  0.00    +0.015 A 
ATOM     11  C   LIG A   1      -6.621   3.995 120.868  0.00  0.00    -0.008 A 
ATOM     12  C   LIG A   1      -6.992   4.263 119.439  0.00  0.00    +0.048 C 
ENDROOT
BRANCH   1  13
ATOM     13  O   LIG A   1      -4.772   5.468 120.686  0.00  0.00    -0.506 OA
ATOM     14  H   LIG A   1      -4.363   4.968 119.963  0.00  0.00    +0.292 HD
ENDBRANCH   1  13
BRANCH   5  15
ATOM     15  C   LIG A   1      -9.076   1.196 123.293  0.00  0.00    +0.042 C 
ATOM     16  C   LIG A   1     -10.382   1.480 124.053  0.00  0.00    +0.014 C 
BRANCH  15  17
ATOM     17  C   LIG A   1      -8.802  -0.318 123.222  0.00  0.00    +0.163 C 
BRANCH  17  18
ATOM     18  O   LIG A   1      -9.940  -1.054 122.786  0.00  0.00    -0.394 OA
ATOM     19  H   LIG A   1      -9.605  -1.890 122.412  0.00  0.00    +0.209 HD
ENDBRANCH  17  18
ENDBRANCH  15  17
ENDBRANCH   5  15
TORSDOF 4
ENDMDL
MODEL 2
REMARK VINA RESULT:      -6.1      8.295     10.735
REMARK  Name = NuBBE_220
REMARK  7 active torsions:
REMARK  status: ('A' for Active; 'I' for Inactive)
REMARK    1  A    between atoms: O_1  and  C_2
REMARK    2  A    between atoms: C_6  and  C_7
REMARK    3  A    between atoms: C_7  and  C_8
REMARK    4  A    between atoms: C_7  and  C_10
REMARK    5  A    between atoms: C_8  and  O_9
REMARK    6  A    between atoms: C_13  and  C_14
REMARK    7  A    between atoms: C_16  and  C_17
REMARK                            x       y       z     vdW  Elec       q    Type
REMARK                         _______ _______ _______ _____ _____    ______ ____
ROOT
ATOM      1  C   LIG A   1      -9.308   6.058 132.506  0.00  0.00    +0.120 A 
ATOM      2  C   LIG A   1      -8.299   5.712 133.401  0.00  0.00    +0.054 A 
ATOM      3  C   LIG A   1      -6.934   5.891 133.088  0.00  0.00    -0.011 A 
ATOM      4  C   LIG A   1      -6.583   6.450 131.820  0.00  0.00    -0.014 A 
ATOM      5  C   LIG A   1      -5.202   6.630 131.494  0.00  0.00    -0.035 A 
ATOM      6  C   LIG A   1      -4.225   6.271 132.440  0.00  0.00    +0.005 A 
ATOM      7  C   LIG A   1      -4.574   5.726 133.669  0.00  0.00    +0.004 A 
ATOM      8  C   LIG A   1      -5.914   5.529 134.005  0.00  0.00    -0.043 A 
ATOM      9  C   LIG A   1      -6.219   4.927 135.354  0.00  0.00    +0.044 C 
ATOM     10  C   LIG A   1      -7.647   6.796 130.945  0.00  0.00    +0.015 A 
ATOM     11  C   LIG A   1      -8.998   6.596 131.266  0.00  0.00    -0.008 A 
ATOM     12  C   LIG A   1     -10.082   6.955 130.292  0.00  0.00    +0.048 C 
ENDROOT
BRANCH   1  13
ATOM     13  O   LIG A   1     -10.620   5.874 132.837  0.00  0.00    -0.506 OA
ATOM     14  H   LIG A   1     -10.884   4.974 132.593  0.00  0.00    +0.292 HD
ENDBRANCH   1  13
BRANCH   5  15
ATOM     15  C   LIG A   1      -4.743   7.239 130.161  0.00  0.00    +0.042 C 
ATOM     16  C   LIG A   1      -4.045   6.243 129.220  0.00  0.00    +0.014 C 
BRANCH  15  17
ATOM     17  C   LIG A   1      -3.865   8.484 130.389  0.00  0.00    +0.163 C 
BRANCH  17  18
ATOM     18  O   LIG A   1      -4.165   9.534 129.474  0.00  0.00    -0.394 OA
ATOM     19  H   LIG A   1      -5.049   9.342 129.110  0.00  0.00    +0.209 HD
ENDBRANCH  17  18
ENDBRANCH  15  17
ENDBRANCH   5  15
TORSDOF 4
ENDMDL
MODEL 3
REMARK VINA RESULT:      -5.9      3.046      5.057
REMARK  Name = NuBBE_220
REMARK  7 active torsions:
REMARK  status: ('A' for Active; 'I' for Inactive)
REMARK    1  A    between atoms: O_1  and  C_2
REMARK    2  A    between atoms: C_6  and  C_7
REMARK    3  A    between atoms: C_7  and  C_8
REMARK    4  A    between atoms: C_7  and  C_10
REMARK    5  A    between atoms: C_8  and  O_9
REMARK    6  A    between atoms: C_13  and  C_14
REMARK    7  A    between atoms: C_16  and  C_17
REMARK                            x       y       z     vdW  Elec       q    Type
REMARK                         _______ _______ _______ _____ _____    ______ ____
ROOT
ATOM      1  C   LIG A   1      -7.772   3.135 124.550  0.00  0.00    +0.120 A 
ATOM      2  C   LIG A   1      -8.633   2.259 123.895  0.00  0.00    +0.054 A 
ATOM      3  C   LIG A   1      -8.337   0.884 123.763  0.00  0.00    -0.011 A 
ATOM      4  C   LIG A   1      -7.124   0.382 124.325  0.00  0.00    -0.014 A 
ATOM      5  C   LIG A   1      -6.815  -1.009 124.193  0.00  0.00    -0.035 A 
ATOM      6  C   LIG A   1      -7.726  -1.849 123.528  0.00  0.00    +0.005 A 
ATOM      7  C   LIG A   1      -8.903  -1.353 122.982  0.00  0.00    +0.004 A 
ATOM      8  C   LIG A   1      -9.219   0.003 123.088  0.00  0.00    -0.043 A 
ATOM      9  C   LIG A   1     -10.511   0.473 122.465  0.00  0.00    +0.044 C 
ATOM     10  C   LIG A   1      -6.283   1.311 124.993  0.00  0.00    +0.015 A 
ATOM     11  C   LIG A   1      -6.584   2.677 125.101  0.00  0.00    -0.008 A 
ATOM     12  C   LIG A   1      -5.645   3.621 125.793  0.00  0.00    +0.048 C 
ENDROOT
BRANCH   1  13
ATOM     13  O   LIG A   1      -8.085   4.459 124.663  0.00  0.00    -0.506 OA
ATOM     14  H   LIG A   1      -9.043   4.548 124.782  0.00  0.00    +0.292 HD
ENDBRANCH   1  13
BRANCH   5  15
ATOM     15  C   LIG A   1      -5.541  -1.629 124.783  0.00  0.00    +0.042 C 
ATOM     16  C   LIG A   1      -4.969  -2.797 123.961  0.00  0.00    +0.014 C 
BRANCH  15  17
ATOM     17  C   LIG A   1      -5.752  -2.045 126.251  0.00  0.00    +0.163 C 
BRANCH  17  18
ATOM     18  O   LIG A   1      -5.079  -1.180 127.161  0.00  0.00    -0.394 OA
ATOM     19  H   LIG A   1      -5.210  -1.556 128.051  0.00  0.00    +0.209 HD
ENDBRANCH  17  18
ENDBRANCH  15  17
ENDBRANCH   5  15
TORSDOF 4
ENDMDL
MODEL 4
REMARK VINA RESULT:      -5.9      5.629      8.054
REMARK  Name = NuBBE_220
REMARK  7 active torsions:
REMARK  status: ('A' for Active; 'I' for Inactive)
REMARK    1  A    between atoms: O_1  and  C_2
REMARK    2  A    between atoms: C_6  and  C_7
REMARK    3  A    between atoms: C_7  and  C_8
REMARK    4  A    between atoms: C_7  and  C_10
REMARK    5  A    between atoms: C_8  and  O_9
REMARK    6  A    between atoms: C_13  and  C_14
REMARK    7  A    between atoms: C_16  and  C_17
REMARK                            x       y       z     vdW  Elec       q    Type
REMARK                         _______ _______ _______ _____ _____    ______ ____
ROOT
ATOM      1  C   LIG A   1      -8.096  -2.982 124.632  0.00  0.00    +0.120 A 
ATOM      2  C   LIG A   1      -8.715  -3.395 125.808  0.00  0.00    +0.054 A 
ATOM      3  C   LIG A   1      -8.119  -3.194 127.073  0.00  0.00    -0.011 A 
ATOM      4  C   LIG A   1      -6.849  -2.543 127.142  0.00  0.00    -0.014 A 
ATOM      5  C   LIG A   1      -6.237  -2.339 128.419  0.00  0.00    -0.035 A 
ATOM      6  C   LIG A   1      -6.911  -2.769 129.575  0.00  0.00    +0.005 A 
ATOM      7  C   LIG A   1      -8.144  -3.404 129.500  0.00  0.00    +0.004 A 
ATOM      8  C   LIG A   1      -8.756  -3.625 128.264  0.00  0.00    -0.043 A 
ATOM      9  C   LIG A   1     -10.092  -4.326 128.257  0.00  0.00    +0.044 C 
ATOM     10  C   LIG A   1      -6.261  -2.131 125.917  0.00  0.00    +0.015 A 
ATOM     11  C   LIG A   1      -6.861  -2.352 124.667  0.00  0.00    -0.008 A 
ATOM     12  C   LIG A   1      -6.182  -1.921 123.400  0.00  0.00    +0.048 C 
ENDROOT
BRANCH   1  13
ATOM     13  O   LIG A   1      -8.698  -3.188 123.424  0.00  0.00    -0.506 OA
ATOM     14  H   LIG A   1      -8.688  -2.360 122.920  0.00  0.00    +0.292 HD
ENDBRANCH   1  13
BRANCH   5  15
ATOM     15  C   LIG A   1      -4.882  -1.633 128.580  0.00  0.00    +0.042 C 
ATOM     16  C   LIG A   1      -3.871  -2.399 129.450  0.00  0.00    +0.014 C 
BRANCH  15  17
ATOM     17  C   LIG A   1      -5.063  -0.191 129.091  0.00  0.00    +0.163 C 
BRANCH  17  18
ATOM     18  O   LIG A   1      -3.880   0.320 129.699  0.00  0.00    -0.394 OA
ATOM     19  H   LIG A   1      -3.153   0.162 129.069  0.00  0.00    +0.209 HD
ENDBRANCH  17  18
ENDBRANCH  15  17
ENDBRANCH   5  15
TORSDOF 4
ENDMDL
MODEL 5
REMARK VINA RESULT:      -5.8      4.560      6.956
REMARK  Name = NuBBE_220
REMARK  7 active torsions:
REMARK  status: ('A' for Active; 'I' for Inactive)
REMARK    1  A    between atoms: O_1  and  C_2
REMARK    2  A    between atoms: C_6  and  C_7
REMARK    3  A    between atoms: C_7  and  C_8
REMARK    4  A    between atoms: C_7  and  C_10
REMARK    5  A    between atoms: C_8  and  O_9
REMARK    6  A    between atoms: C_13  and  C_14
REMARK    7  A    between atoms: C_16  and  C_17
REMARK                            x       y       z     vdW  Elec       q    Type
REMARK                         _______ _______ _______ _____ _____    ______ ____
ROOT
ATOM      1  C   LIG A   1      -9.429  -2.749 124.412  0.00  0.00    +0.120 A 
ATOM      2  C   LIG A   1      -9.256  -3.245 125.701  0.00  0.00    +0.054 A 
ATOM      3  C   LIG A   1      -8.603  -2.495 126.705  0.00  0.00    -0.011 A 
ATOM      4  C   LIG A   1      -8.115  -1.192 126.386  0.00  0.00    -0.014 A 
ATOM      5  C   LIG A   1      -7.449  -0.428 127.397  0.00  0.00    -0.035 A 
ATOM      6  C   LIG A   1      -7.310  -0.975 128.684  0.00  0.00    +0.005 A 
ATOM      7  C   LIG A   1      -7.785  -2.245 128.986  0.00  0.00    +0.004 A 
ATOM      8  C   LIG A   1      -8.428  -3.014 128.014  0.00  0.00    -0.043 A 
ATOM      9  C   LIG A   1      -8.912  -4.386 128.410  0.00  0.00    +0.044 C 
ATOM     10  C   LIG A   1      -8.323  -0.725 125.061  0.00  0.00    +0.015 A 
ATOM     11  C   LIG A   1      -8.960  -1.489 124.071  0.00  0.00    -0.008 A 
ATOM     12  C   LIG A   1      -9.129  -0.957 122.678  0.00  0.00    +0.048 C 
ENDROOT
BRANCH   1  13
ATOM     13  O   LIG A   1     -10.065  -3.495 123.462  0.00  0.00    -0.506 OA
ATOM     14  H   LIG A   1     -10.101  -2.990 122.636  0.00  0.00    +0.292 HD
ENDBRANCH   1  13
BRANCH   5  15
ATOM     15  C   LIG A   1      -6.910   0.987 127.139  0.00  0.00    +0.042 C 
ATOM     16  C   LIG A   1      -5.380   1.106 127.232  0.00  0.00    +0.014 C 
BRANCH  15  17
ATOM     17  C   LIG A   1      -7.596   2.019 128.053  0.00  0.00    +0.163 C 
BRANCH  17  18
ATOM     18  O   LIG A   1      -9.008   2.055 127.867  0.00  0.00    -0.394 OA
ATOM     19  H   LIG A   1      -9.225   2.953 127.555  0.00  0.00    +0.209 HD
ENDBRANCH  17  18
ENDBRANCH  15  17
ENDBRANCH   5  15
TORSDOF 4
ENDMDL
MODEL 6
REMARK VINA RESULT:      -5.8      3.436      4.782
REMARK  Name = NuBBE_220
REMARK  7 active torsions:
REMARK  status: ('A' for Active; 'I' for Inactive)
REMARK    1  A    between atoms: O_1  and  C_2
REMARK    2  A    between atoms: C_6  and  C_7
REMARK    3  A    between atoms: C_7  and  C_8
REMARK    4  A    between atoms: C_7  and  C_10
REMARK    5  A    between atoms: C_8  and  O_9
REMARK    6  A    between atoms: C_13  and  C_14
REMARK    7  A    between atoms: C_16  and  C_17
REMARK                            x       y       z     vdW  Elec       q    Type
REMARK                         _______ _______ _______ _____ _____    ______ ____
ROOT
ATOM      1  C   LIG A   1      -8.774   2.422 125.098  0.00  0.00    +0.120 A 
ATOM      2  C   LIG A   1      -8.486   1.824 126.322  0.00  0.00    +0.054 A 
ATOM      3  C   LIG A   1      -8.235   0.438 126.432  0.00  0.00    -0.011 A 
ATOM      4  C   LIG A   1      -8.271  -0.366 125.252  0.00  0.00    -0.014 A 
ATOM      5  C   LIG A   1      -8.022  -1.771 125.357  0.00  0.00    -0.035 A 
ATOM      6  C   LIG A   1      -7.728  -2.320 126.617  0.00  0.00    +0.005 A 
ATOM      7  C   LIG A   1      -7.697  -1.532 127.761  0.00  0.00    +0.004 A 
ATOM      8  C   LIG A   1      -7.949  -0.161 127.685  0.00  0.00    -0.043 A 
ATOM      9  C   LIG A   1      -7.905   0.633 128.968  0.00  0.00    +0.044 C 
ATOM     10  C   LIG A   1      -8.559   0.290 124.026  0.00  0.00    +0.015 A 
ATOM     11  C   LIG A   1      -8.822   1.665 123.936  0.00  0.00    -0.008 A 
ATOM     12  C   LIG A   1      -9.149   2.302 122.617  0.00  0.00    +0.048 C 
ENDROOT
BRANCH   1  13
ATOM     13  O   LIG A   1      -9.011   3.764 125.022  0.00  0.00    -0.506 OA
ATOM     14  H   LIG A   1      -9.694   4.002 125.667  0.00  0.00    +0.292 HD
ENDBRANCH   1  13
BRANCH   5  15
ATOM     15  C   LIG A   1      -8.026  -2.701 124.134  0.00  0.00    +0.042 C 
ATOM     16  C   LIG A   1      -9.398  -3.321 123.819  0.00  0.00    +0.014 C 
BRANCH  15  17
ATOM     17  C   LIG A   1      -6.948  -3.794 124.262  0.00  0.00    +0.163 C 
BRANCH  17  18
ATOM     18  O   LIG A   1      -5.676  -3.357 123.792  0.00  0.00    -0.394 OA
ATOM     19  H   LIG A   1      -5.286  -2.817 124.504  0.00  0.00    +0.209 HD
ENDBRANCH  17  18
ENDBRANCH  15  17
ENDBRANCH   5  15
TORSDOF 4
ENDMDL
MODEL 7
REMARK VINA RESULT:      -5.8      3.748      6.484
REMARK  Name = NuBBE_220
REMARK  7 active torsions:
REMARK  status: ('A' for Active; 'I' for Inactive)
REMARK    1  A    between atoms: O_1  and  C_2
REMARK    2  A    between atoms: C_6  and  C_7
REMARK    3  A    between atoms: C_7  and  C_8
REMARK    4  A    between atoms: C_7  and  C_10
REMARK    5  A    between atoms: C_8  and  O_9
REMARK    6  A    between atoms: C_13  and  C_14
REMARK    7  A    between atoms: C_16  and  C_17
REMARK                            x       y       z     vdW  Elec       q    Type
REMARK                         _______ _______ _______ _____ _____    ______ ____
ROOT
ATOM      1  C   LIG A   1      -6.090  -2.091 127.555  0.00  0.00    +0.120 A 
ATOM      2  C   LIG A   1      -5.684  -2.437 126.269  0.00  0.00    +0.054 A 
ATOM      3  C   LIG A   1      -6.253  -1.837 125.123  0.00  0.00    -0.011 A 
ATOM      4  C   LIG A   1      -7.266  -0.845 125.293  0.00  0.00    -0.014 A 
ATOM      5  C   LIG A   1      -7.850  -0.237 124.137  0.00  0.00    -0.035 A 
ATOM      6  C   LIG A   1      -7.395  -0.619 122.862  0.00  0.00    +0.005 A 
ATOM      7  C   LIG A   1      -6.411  -1.587 122.705  0.00  0.00    +0.004 A 
ATOM      8  C   LIG A   1      -5.835  -2.203 123.818  0.00  0.00    -0.043 A 
ATOM      9  C   LIG A   1      -4.777  -3.250 123.572  0.00  0.00    +0.044 C 
ATOM     10  C   LIG A   1      -7.640  -0.518 126.623  0.00  0.00    +0.015 A 
ATOM     11  C   LIG A   1      -7.076  -1.134 127.751  0.00  0.00    -0.008 A 
ATOM     12  C   LIG A   1      -7.529  -0.771 129.135  0.00  0.00    +0.048 C 
ENDROOT
BRANCH   1  13
ATOM     13  O   LIG A   1      -5.522  -2.685 128.644  0.00  0.00    -0.506 OA
ATOM     14  H   LIG A   1      -4.582  -2.842 128.465  0.00  0.00    +0.292 HD
ENDBRANCH   1  13
BRANCH   5  15
ATOM     15  C   LIG A   1      -8.931   0.849 124.235  0.00  0.00    +0.042 C 
ATOM     16  C   LIG A   1      -9.940   0.840 123.074  0.00  0.00    +0.014 C 
BRANCH  15  17
ATOM     17  C   LIG A   1      -8.305   2.246 124.405  0.00  0.00    +0.163 C 
BRANCH  17  18
ATOM     18  O   LIG A   1      -9.274   3.238 124.730  0.00  0.00    -0.394 OA
ATOM     19  H   LIG A   1     -10.117   2.942 124.340  0.00  0.00    +0.209 HD
ENDBRANCH  17  18
ENDBRANCH  15  17
ENDBRANCH   5  15
TORSDOF 4
ENDMDL
MODEL 8
REMARK VINA RESULT:      -5.7      2.854      6.298
REMARK  Name = NuBBE_220
REMARK  7 active torsions:
REMARK  status: ('A' for Active; 'I' for Inactive)
REMARK    1  A    between atoms: O_1  and  C_2
REMARK    2  A    between atoms: C_6  and  C_7
REMARK    3  A    between atoms: C_7  and  C_8
REMARK    4  A    between atoms: C_7  and  C_10
REMARK    5  A    between atoms: C_8  and  O_9
REMARK    6  A    between atoms: C_13  and  C_14
REMARK    7  A    between atoms: C_16  and  C_17
REMARK                            x       y       z     vdW  Elec       q    Type
REMARK                         _______ _______ _______ _____ _____    ______ ____
ROOT
ATOM      1  C   LIG A   1      -6.851  -0.552 125.013  0.00  0.00    +0.120 A 
ATOM      2  C   LIG A   1      -7.067   0.666 124.375  0.00  0.00    +0.054 A 
ATOM      3  C   LIG A   1      -6.323   1.821 124.704  0.00  0.00    -0.011 A 
ATOM      4  C   LIG A   1      -5.318   1.730 125.715  0.00  0.00    -0.014 A 
ATOM      5  C   LIG A   1      -4.563   2.897 126.057  0.00  0.00    -0.035 A 
ATOM      6  C   LIG A   1      -4.819   4.099 125.373  0.00  0.00    +0.005 A 
ATOM      7  C   LIG A   1      -5.800   4.180 124.393  0.00  0.00    +0.004 A 
ATOM      8  C   LIG A   1      -6.557   3.058 124.051  0.00  0.00    -0.043 A 
ATOM      9  C   LIG A   1      -7.610   3.221 122.983  0.00  0.00    +0.044 C 
ATOM     10  C   LIG A   1      -5.127   0.465 126.330  0.00  0.00    +0.015 A 
ATOM     11  C   LIG A   1      -5.886  -0.669 126.003  0.00  0.00    -0.008 A 
ATOM     12  C   LIG A   1      -5.661  -1.976 126.705  0.00  0.00    +0.048 C 
ENDROOT
BRANCH   1  13
ATOM     13  O   LIG A   1      -7.584  -1.652 124.673  0.00  0.00    -0.506 OA
ATOM     14  H   LIG A   1      -8.063  -1.967 125.455  0.00  0.00    +0.292 HD
ENDBRANCH   1  13
BRANCH   5  15
ATOM     15  C   LIG A   1      -3.454   2.878 127.119  0.00  0.00    +0.042 C 
ATOM     16  C   LIG A   1      -3.784   3.681 128.389  0.00  0.00    +0.014 C 
BRANCH  15  17
ATOM     17  C   LIG A   1      -2.105   3.324 126.524  0.00  0.00    +0.163 C 
BRANCH  17  18
ATOM     18  O   LIG A   1      -1.046   2.432 126.857  0.00  0.00    -0.394 OA
ATOM     19  H   LIG A   1      -0.422   2.449 126.107  0.00  0.00    +0.209 HD
ENDBRANCH  17  18
ENDBRANCH  15  17
ENDBRANCH   5  15
TORSDOF 4
ENDMDL
MODEL 9
REMARK VINA RESULT:      -5.7      4.785      6.780
REMARK  Name = NuBBE_220
REMARK  7 active torsions:
REMARK  status: ('A' for Active; 'I' for Inactive)
REMARK    1  A    between atoms: O_1  and  C_2
REMARK    2  A    between atoms: C_6  and  C_7
REMARK    3  A    between atoms: C_7  and  C_8
REMARK    4  A    between atoms: C_7  and  C_10
REMARK    5  A    between atoms: C_8  and  O_9
REMARK    6  A    between atoms: C_13  and  C_14
REMARK    7  A    between atoms: C_16  and  C_17
REMARK                            x       y       z     vdW  Elec       q    Type
REMARK                         _______ _______ _______ _____ _____    ______ ____
ROOT
ATOM      1  C   LIG A   1      -5.648   0.094 128.333  0.00  0.00    +0.120 A 
ATOM      2  C   LIG A   1      -6.377  -0.907 128.968  0.00  0.00    +0.054 A 
ATOM      3  C   LIG A   1      -7.162  -1.830 128.242  0.00  0.00    -0.011 A 
ATOM      4  C   LIG A   1      -7.201  -1.733 126.818  0.00  0.00    -0.014 A 
ATOM      5  C   LIG A   1      -7.997  -2.662 126.075  0.00  0.00    -0.035 A 
ATOM      6  C   LIG A   1      -8.707  -3.658 126.769  0.00  0.00    +0.005 A 
ATOM      7  C   LIG A   1      -8.666  -3.744 128.155  0.00  0.00    +0.004 A 
ATOM      8  C   LIG A   1      -7.906  -2.842 128.901  0.00  0.00    -0.043 A 
ATOM      9  C   LIG A   1      -7.914  -2.990 130.402  0.00  0.00    +0.044 C 
ATOM     10  C   LIG A   1      -6.433  -0.702 126.214  0.00  0.00    +0.015 A 
ATOM     11  C   LIG A   1      -5.670   0.216 126.951  0.00  0.00    -0.008 A 
ATOM     12  C   LIG A   1      -4.899   1.305 126.264  0.00  0.00    +0.048 C 
ENDROOT
BRANCH   1  13
ATOM     13  O   LIG A   1      -4.896   0.972 129.061  0.00  0.00    -0.506 OA
ATOM     14  H   LIG A   1      -3.958   0.755 128.946  0.00  0.00    +0.292 HD
ENDBRANCH   1  13
BRANCH   5  15
ATOM     15  C   LIG A   1      -8.078  -2.636 124.542  0.00  0.00    +0.042 C 
ATOM     16  C   LIG A   1      -9.359  -3.265 123.968  0.00  0.00    +0.014 C 
BRANCH  15  17
ATOM     17  C   LIG A   1      -6.825  -3.269 123.907  0.00  0.00    +0.163 C 
BRANCH  17  18
ATOM     18  O   LIG A   1      -6.125  -2.356 123.067  0.00  0.00    -0.394 OA
ATOM     19  H   LIG A   1      -6.545  -1.485 123.191  0.00  0.00    +0.209 HD
ENDBRANCH  17  18
ENDBRANCH  15  17
ENDBRANCH   5  15
TORSDOF 4
ENDMDL
