MODEL 1
REMARK VINA RESULT:      -8.5      0.000      0.000
REMARK  Name = NuBBE_542
REMARK  13 active torsions:
REMARK  status: ('A' for Active; 'I' for Inactive)
REMARK    1  A    between atoms: C_1  and  C_2
REMARK    2  A    between atoms: C_2  and  C_42
REMARK    3  A    between atoms: C_5  and  C_39
REMARK    4  A    between atoms: C_8  and  C_38
REMARK    5  A    between atoms: C_9  and  C_37
REMARK    6  A    between atoms: C_14  and  C_15
REMARK    7  A    between atoms: C_14  and  C_36
REMARK    8  A    between atoms: C_15  and  O_16
REMARK    9  A    between atoms: C_17  and  O_35
REMARK   10  A    between atoms: C_19  and  O_34
REMARK   11  A    between atoms: C_22  and  C_33
REMARK   12  A    between atoms: C_30  and  O_32
REMARK   13  A    between atoms: C_39  and  O_40
REMARK                            x       y       z     vdW  Elec       q    Type
REMARK                         _______ _______ _______ _____ _____    ______ ____
ROOT
ATOM      1  C   LIG A   1      -4.999  -5.637 135.056  0.00  0.00    +0.013 C 
ATOM      2  C   LIG A   1      -4.493  -4.454 134.199  0.00  0.00    -0.008 C 
ATOM      3  C   LIG A   1      -4.449  -3.203 135.098  0.00  0.00    +0.010 C 
ATOM      4  C   LIG A   1      -4.116  -1.921 134.338  0.00  0.00    +0.019 C 
ATOM      5  C   LIG A   1      -5.080  -1.640 133.165  0.00  0.00    +0.076 C 
ATOM      6  C   LIG A   1      -4.497  -0.472 132.340  0.00  0.00    +0.019 C 
ATOM      7  C   LIG A   1      -5.418  -0.064 131.195  0.00  0.00    +0.012 C 
ATOM      8  C   LIG A   1      -5.892  -1.220 130.252  0.00  0.00    -0.005 C 
ATOM      9  C   LIG A   1      -7.311  -0.837 129.568  0.00  0.00    -0.019 C 
ATOM     10  C   LIG A   1      -7.327   0.582 128.920  0.00  0.00    +0.008 C 
ATOM     11  C   LIG A   1      -7.152   0.676 127.412  0.00  0.00    +0.005 C 
ATOM     12  C   LIG A   1      -8.111  -0.282 126.694  0.00  0.00    +0.006 C 
ATOM     13  C   LIG A   1      -8.389   0.089 125.188  0.00  0.00    +0.023 C 
ATOM     14  C   LIG A   1      -9.369  -0.963 124.591  0.00  0.00    +0.151 C 
ATOM     15  C   LIG A   1      -8.923  -2.412 124.815  0.00  0.00    +0.144 C 
ATOM     16  C   LIG A   1      -8.732  -2.715 126.301  0.00  0.00    +0.041 C 
ATOM     17  C   LIG A   1      -7.715  -1.769 127.014  0.00  0.00    -0.022 C 
ATOM     18  C   LIG A   1      -7.860  -1.962 128.595  0.00  0.00    +0.006 C 
ATOM     19  C   LIG A   1      -7.592  -3.398 129.116  0.00  0.00    +0.031 C 
ATOM     20  C   LIG A   1      -6.797  -3.537 130.381  0.00  0.00    -0.026 C 
ATOM     21  C   LIG A   1      -6.026  -2.589 130.955  0.00  0.00    -0.060 C 
ATOM     22  C   LIG A   1      -5.173  -2.869 132.213  0.00  0.00    +0.061 C 
ATOM     23  C   LIG A   1      -5.421  -4.228 132.965  0.00  0.00    +0.128 C 
ATOM     24  C   LIG A   1      -6.313  -2.163 126.497  0.00  0.00    +0.012 C 
ATOM     25  C   LIG A   1      -9.137   1.458 125.129  0.00  0.00    +0.016 C 
ATOM     26  C   LIG A   1      -8.397  -0.738 130.724  0.00  0.00    +0.012 C 
ATOM     27  C   LIG A   1      -4.742  -1.390 129.234  0.00  0.00    +0.016 C 
ATOM     28  C   LIG A   1      -3.068  -4.812 133.722  0.00  0.00    +0.013 C 
ENDROOT
BRANCH  23  29
ATOM     29  O   LIG A   1      -6.785  -4.412 133.343  0.00  0.00    -0.391 OA
ATOM     30  H   LIG A   1      -6.831  -4.702 134.277  0.00  0.00    +0.210 HD
ENDBRANCH  23  29
BRANCH  15  31
ATOM     31  O   LIG A   1      -9.934  -3.287 124.301  0.00  0.00    -0.389 OA
ATOM     32  H   LIG A   1     -10.292  -3.745 125.089  0.00  0.00    +0.210 HD
ENDBRANCH  15  31
BRANCH  14  33
ATOM     33  O   LIG A   1      -9.615  -0.796 123.186  0.00  0.00    -0.389 OA
ATOM     34  H   LIG A   1     -10.346  -0.147 123.092  0.00  0.00    +0.210 HD
ENDBRANCH  14  33
BRANCH   5  35
ATOM     35  C   LIG A   1      -6.429  -1.250 133.778  0.00  0.00    +0.312 C 
ATOM     36  O   LIG A   1      -7.476  -1.867 133.680  0.00  0.00    -0.250 OA
BRANCH  35  37
ATOM     37  O   LIG A   1      -6.387  -0.165 134.576  0.00  0.00    -0.480 OA
ATOM     38  H   LIG A   1      -6.038  -0.505 135.426  0.00  0.00    +0.295 HD
ENDBRANCH  35  37
ENDBRANCH   5  35
BRANCH  13  39
ATOM     39  C   LIG A   1      -7.094   0.252 124.357  0.00  0.00    +0.165 C 
BRANCH  39  40
ATOM     40  O   LIG A   1      -7.324   1.089 123.223  0.00  0.00    -0.394 OA
ATOM     41  H   LIG A   1      -7.261   0.519 122.433  0.00  0.00    +0.209 HD
ENDBRANCH  39  40
ENDBRANCH  13  39
TORSDOF 7
ENDMDL
MODEL 2
REMARK VINA RESULT:      -8.3      3.059      8.286
REMARK  Name = NuBBE_542
REMARK  13 active torsions:
REMARK  status: ('A' for Active; 'I' for Inactive)
REMARK    1  A    between atoms: C_1  and  C_2
REMARK    2  A    between atoms: C_2  and  C_42
REMARK    3  A    between atoms: C_5  and  C_39
REMARK    4  A    between atoms: C_8  and  C_38
REMARK    5  A    between atoms: C_9  and  C_37
REMARK    6  A    between atoms: C_14  and  C_15
REMARK    7  A    between atoms: C_14  and  C_36
REMARK    8  A    between atoms: C_15  and  O_16
REMARK    9  A    between atoms: C_17  and  O_35
REMARK   10  A    between atoms: C_19  and  O_34
REMARK   11  A    between atoms: C_22  and  C_33
REMARK   12  A    between atoms: C_30  and  O_32
REMARK   13  A    between atoms: C_39  and  O_40
REMARK                            x       y       z     vdW  Elec       q    Type
REMARK                         _______ _______ _______ _____ _____    ______ ____
ROOT
ATOM      1  C   LIG A   1      -5.886  -2.161 122.198  0.00  0.00    +0.013 C 
ATOM      2  C   LIG A   1      -6.070  -2.666 123.647  0.00  0.00    -0.008 C 
ATOM      3  C   LIG A   1      -7.475  -3.290 123.756  0.00  0.00    +0.010 C 
ATOM      4  C   LIG A   1      -7.854  -3.690 125.180  0.00  0.00    +0.019 C 
ATOM      5  C   LIG A   1      -7.765  -2.520 126.184  0.00  0.00    +0.076 C 
ATOM      6  C   LIG A   1      -7.928  -3.101 127.606  0.00  0.00    +0.019 C 
ATOM      7  C   LIG A   1      -7.931  -2.012 128.673  0.00  0.00    +0.012 C 
ATOM      8  C   LIG A   1      -6.736  -1.003 128.626  0.00  0.00    -0.005 C 
ATOM      9  C   LIG A   1      -7.172   0.412 129.284  0.00  0.00    -0.019 C 
ATOM     10  C   LIG A   1      -7.849   0.266 130.683  0.00  0.00    +0.008 C 
ATOM     11  C   LIG A   1      -6.997   0.535 131.914  0.00  0.00    +0.005 C 
ATOM     12  C   LIG A   1      -6.260   1.873 131.782  0.00  0.00    +0.006 C 
ATOM     13  C   LIG A   1      -5.786   2.488 133.153  0.00  0.00    +0.023 C 
ATOM     14  C   LIG A   1      -5.056   3.834 132.866  0.00  0.00    +0.151 C 
ATOM     15  C   LIG A   1      -3.954   3.719 131.808  0.00  0.00    +0.144 C 
ATOM     16  C   LIG A   1      -4.499   3.172 130.489  0.00  0.00    +0.041 C 
ATOM     17  C   LIG A   1      -5.203   1.785 130.621  0.00  0.00    -0.022 C 
ATOM     18  C   LIG A   1      -6.012   1.492 129.273  0.00  0.00    +0.006 C 
ATOM     19  C   LIG A   1      -5.156   1.449 127.981  0.00  0.00    +0.031 C 
ATOM     20  C   LIG A   1      -5.464   0.372 126.983  0.00  0.00    -0.026 C 
ATOM     21  C   LIG A   1      -6.186  -0.748 127.205  0.00  0.00    -0.060 C 
ATOM     22  C   LIG A   1      -6.365  -1.840 126.127  0.00  0.00    +0.061 C 
ATOM     23  C   LIG A   1      -5.894  -1.498 124.666  0.00  0.00    +0.128 C 
ATOM     24  C   LIG A   1      -4.086   0.749 130.877  0.00  0.00    +0.012 C 
ATOM     25  C   LIG A   1      -7.039   2.851 134.011  0.00  0.00    +0.016 C 
ATOM     26  C   LIG A   1      -8.315   1.039 128.375  0.00  0.00    +0.012 C 
ATOM     27  C   LIG A   1      -5.595  -1.713 129.388  0.00  0.00    +0.016 C 
ATOM     28  C   LIG A   1      -4.993  -3.744 123.896  0.00  0.00    +0.013 C 
ENDROOT
BRANCH  23  29
ATOM     29  O   LIG A   1      -6.496  -0.310 124.152  0.00  0.00    -0.391 OA
ATOM     30  H   LIG A   1      -6.569  -0.373 123.178  0.00  0.00    +0.210 HD
ENDBRANCH  23  29
BRANCH  15  31
ATOM     31  O   LIG A   1      -3.412   5.024 131.568  0.00  0.00    -0.389 OA
ATOM     32  H   LIG A   1      -3.493   5.153 130.601  0.00  0.00    +0.210 HD
ENDBRANCH  15  31
BRANCH  14  33
ATOM     33  O   LIG A   1      -4.477   4.440 134.032  0.00  0.00    -0.389 OA
ATOM     34  H   LIG A   1      -3.928   3.757 134.476  0.00  0.00    +0.210 HD
ENDBRANCH  14  33
BRANCH   5  35
ATOM     35  C   LIG A   1      -8.915  -1.561 125.857  0.00  0.00    +0.312 C 
ATOM     36  O   LIG A   1      -8.813  -0.385 125.550  0.00  0.00    -0.250 OA
BRANCH  35  37
ATOM     37  O   LIG A   1     -10.132  -2.138 125.821  0.00  0.00    -0.480 OA
ATOM     38  H   LIG A   1     -10.700  -1.534 126.343  0.00  0.00    +0.295 HD
ENDBRANCH  35  37
ENDBRANCH   5  35
BRANCH  13  39
ATOM     39  C   LIG A   1      -4.938   1.505 133.995  0.00  0.00    +0.165 C 
BRANCH  39  40
ATOM     40  O   LIG A   1      -5.034   1.819 135.385  0.00  0.00    -0.394 OA
ATOM     41  H   LIG A   1      -4.519   2.635 135.528  0.00  0.00    +0.209 HD
ENDBRANCH  39  40
ENDBRANCH  13  39
TORSDOF 7
ENDMDL
MODEL 3
REMARK VINA RESULT:      -8.3      3.793      6.013
REMARK  Name = NuBBE_542
REMARK  13 active torsions:
REMARK  status: ('A' for Active; 'I' for Inactive)
REMARK    1  A    between atoms: C_1  and  C_2
REMARK    2  A    between atoms: C_2  and  C_42
REMARK    3  A    between atoms: C_5  and  C_39
REMARK    4  A    between atoms: C_8  and  C_38
REMARK    5  A    between atoms: C_9  and  C_37
REMARK    6  A    between atoms: C_14  and  C_15
REMARK    7  A    between atoms: C_14  and  C_36
REMARK    8  A    between atoms: C_15  and  O_16
REMARK    9  A    between atoms: C_17  and  O_35
REMARK   10  A    between atoms: C_19  and  O_34
REMARK   11  A    between atoms: C_22  and  C_33
REMARK   12  A    between atoms: C_30  and  O_32
REMARK   13  A    between atoms: C_39  and  O_40
REMARK                            x       y       z     vdW  Elec       q    Type
REMARK                         _______ _______ _______ _____ _____    ______ ____
ROOT
ATOM      1  C   LIG A   1      -4.042  -4.964 134.871  0.00  0.00    +0.013 C 
ATOM      2  C   LIG A   1      -5.120  -4.651 133.808  0.00  0.00    -0.008 C 
ATOM      3  C   LIG A   1      -4.612  -5.176 132.450  0.00  0.00    +0.010 C 
ATOM      4  C   LIG A   1      -5.509  -4.792 131.276  0.00  0.00    +0.019 C 
ATOM      5  C   LIG A   1      -5.734  -3.269 131.153  0.00  0.00    +0.076 C 
ATOM      6  C   LIG A   1      -6.839  -3.035 130.100  0.00  0.00    +0.019 C 
ATOM      7  C   LIG A   1      -7.084  -1.552 129.847  0.00  0.00    +0.012 C 
ATOM      8  C   LIG A   1      -7.340  -0.673 131.116  0.00  0.00    -0.005 C 
ATOM      9  C   LIG A   1      -6.910   0.862 130.831  0.00  0.00    -0.019 C 
ATOM     10  C   LIG A   1      -7.501   1.439 129.507  0.00  0.00    +0.008 C 
ATOM     11  C   LIG A   1      -8.726   2.335 129.609  0.00  0.00    +0.005 C 
ATOM     12  C   LIG A   1      -8.508   3.436 130.655  0.00  0.00    +0.006 C 
ATOM     13  C   LIG A   1      -9.449   4.687 130.483  0.00  0.00    +0.023 C 
ATOM     14  C   LIG A   1      -9.120   5.713 131.607  0.00  0.00    +0.151 C 
ATOM     15  C   LIG A   1      -9.126   5.104 133.013  0.00  0.00    +0.144 C 
ATOM     16  C   LIG A   1      -8.147   3.935 133.120  0.00  0.00    +0.041 C 
ATOM     17  C   LIG A   1      -8.406   2.795 132.087  0.00  0.00    -0.022 C 
ATOM     18  C   LIG A   1      -7.139   1.819 132.074  0.00  0.00    +0.006 C 
ATOM     19  C   LIG A   1      -6.809   1.142 133.429  0.00  0.00    +0.031 C 
ATOM     20  C   LIG A   1      -6.417  -0.306 133.401  0.00  0.00    -0.026 C 
ATOM     21  C   LIG A   1      -6.611  -1.173 132.383  0.00  0.00    -0.060 C 
ATOM     22  C   LIG A   1      -6.249  -2.671 132.495  0.00  0.00    +0.061 C 
ATOM     23  C   LIG A   1      -5.407  -3.120 133.746  0.00  0.00    +0.128 C 
ATOM     24  C   LIG A   1      -9.699   2.079 132.539  0.00  0.00    +0.012 C 
ATOM     25  C   LIG A   1      -9.111   5.400 129.136  0.00  0.00    +0.016 C 
ATOM     26  C   LIG A   1      -5.339   0.889 130.586  0.00  0.00    +0.012 C 
ATOM     27  C   LIG A   1      -8.847  -0.847 131.414  0.00  0.00    +0.016 C 
ATOM     28  C   LIG A   1      -6.402  -5.408 134.219  0.00  0.00    +0.013 C 
ENDROOT
BRANCH  23  29
ATOM     29  O   LIG A   1      -4.188  -2.390 133.885  0.00  0.00    -0.391 OA
ATOM     30  H   LIG A   1      -3.968  -1.955 133.036  0.00  0.00    +0.210 HD
ENDBRANCH  23  29
BRANCH  15  31
ATOM     31  O   LIG A   1      -8.731   6.113 133.951  0.00  0.00    -0.389 OA
ATOM     32  H   LIG A   1      -9.195   5.877 134.781  0.00  0.00    +0.210 HD
ENDBRANCH  15  31
BRANCH  14  33
ATOM     33  O   LIG A   1      -9.990   6.855 131.625  0.00  0.00    -0.389 OA
ATOM     34  H   LIG A   1      -9.422   7.657 131.607  0.00  0.00    +0.210 HD
ENDBRANCH  14  33
BRANCH   5  35
ATOM     35  C   LIG A   1      -4.407  -2.658 130.691  0.00  0.00    +0.312 C 
ATOM     36  O   LIG A   1      -3.718  -1.866 131.312  0.00  0.00    -0.250 OA
BRANCH  35  37
ATOM     37  O   LIG A   1      -3.945  -3.143 129.522  0.00  0.00    -0.480 OA
ATOM     38  H   LIG A   1      -4.695  -3.030 128.901  0.00  0.00    +0.295 HD
ENDBRANCH  35  37
ENDBRANCH   5  35
BRANCH  13  39
ATOM     39  C   LIG A   1     -10.949   4.312 130.425  0.00  0.00    +0.165 C 
BRANCH  39  40
ATOM     40  O   LIG A   1     -11.684   5.285 129.681  0.00  0.00    -0.394 OA
ATOM     41  H   LIG A   1     -11.534   5.092 128.737  0.00  0.00    +0.209 HD
ENDBRANCH  39  40
ENDBRANCH  13  39
TORSDOF 7
ENDMDL
MODEL 4
REMARK VINA RESULT:      -8.3      1.557      8.735
REMARK  Name = NuBBE_542
REMARK  13 active torsions:
REMARK  status: ('A' for Active; 'I' for Inactive)
REMARK    1  A    between atoms: C_1  and  C_2
REMARK    2  A    between atoms: C_2  and  C_42
REMARK    3  A    between atoms: C_5  and  C_39
REMARK    4  A    between atoms: C_8  and  C_38
REMARK    5  A    between atoms: C_9  and  C_37
REMARK    6  A    between atoms: C_14  and  C_15
REMARK    7  A    between atoms: C_14  and  C_36
REMARK    8  A    between atoms: C_15  and  O_16
REMARK    9  A    between atoms: C_17  and  O_35
REMARK   10  A    between atoms: C_19  and  O_34
REMARK   11  A    between atoms: C_22  and  C_33
REMARK   12  A    between atoms: C_30  and  O_32
REMARK   13  A    between atoms: C_39  and  O_40
REMARK                            x       y       z     vdW  Elec       q    Type
REMARK                         _______ _______ _______ _____ _____    ______ ____
ROOT
ATOM      1  C   LIG A   1      -9.761   1.958 123.537  0.00  0.00    +0.013 C 
ATOM      2  C   LIG A   1      -8.565   1.024 123.833  0.00  0.00    -0.008 C 
ATOM      3  C   LIG A   1      -8.735  -0.248 122.979  0.00  0.00    +0.010 C 
ATOM      4  C   LIG A   1      -7.705  -1.331 123.290  0.00  0.00    +0.019 C 
ATOM      5  C   LIG A   1      -7.687  -1.746 124.777  0.00  0.00    +0.076 C 
ATOM      6  C   LIG A   1      -6.455  -2.649 125.004  0.00  0.00    +0.019 C 
ATOM      7  C   LIG A   1      -6.388  -3.178 126.432  0.00  0.00    +0.012 C 
ATOM      8  C   LIG A   1      -6.499  -2.105 127.566  0.00  0.00    -0.005 C 
ATOM      9  C   LIG A   1      -7.090  -2.777 128.917  0.00  0.00    -0.019 C 
ATOM     10  C   LIG A   1      -6.358  -4.092 129.331  0.00  0.00    +0.008 C 
ATOM     11  C   LIG A   1      -5.317  -4.005 130.436  0.00  0.00    +0.005 C 
ATOM     12  C   LIG A   1      -5.881  -3.266 131.656  0.00  0.00    +0.006 C 
ATOM     13  C   LIG A   1      -5.118  -3.564 133.002  0.00  0.00    +0.023 C 
ATOM     14  C   LIG A   1      -5.793  -2.750 134.145  0.00  0.00    +0.151 C 
ATOM     15  C   LIG A   1      -5.954  -1.260 133.823  0.00  0.00    +0.144 C 
ATOM     16  C   LIG A   1      -6.754  -1.049 132.539  0.00  0.00    +0.041 C 
ATOM     17  C   LIG A   1      -6.147  -1.761 131.290  0.00  0.00    -0.022 C 
ATOM     18  C   LIG A   1      -7.233  -1.750 130.116  0.00  0.00    +0.006 C 
ATOM     19  C   LIG A   1      -7.702  -0.345 129.659  0.00  0.00    +0.031 C 
ATOM     20  C   LIG A   1      -7.866  -0.117 128.185  0.00  0.00    -0.026 C 
ATOM     21  C   LIG A   1      -7.365  -0.882 127.191  0.00  0.00    -0.060 C 
ATOM     22  C   LIG A   1      -7.518  -0.504 125.701  0.00  0.00    +0.061 C 
ATOM     23  C   LIG A   1      -8.499   0.676 125.352  0.00  0.00    +0.128 C 
ATOM     24  C   LIG A   1      -4.867  -0.978 130.918  0.00  0.00    +0.012 C 
ATOM     25  C   LIG A   1      -5.306  -5.068 133.375  0.00  0.00    +0.016 C 
ATOM     26  C   LIG A   1      -8.576  -3.251 128.613  0.00  0.00    +0.012 C 
ATOM     27  C   LIG A   1      -5.062  -1.557 127.727  0.00  0.00    +0.016 C 
ATOM     28  C   LIG A   1      -7.283   1.775 123.412  0.00  0.00    +0.013 C 
ENDROOT
BRANCH  23  29
ATOM     29  O   LIG A   1      -9.816   0.471 125.862  0.00  0.00    -0.391 OA
ATOM     30  H   LIG A   1      -9.952  -0.480 126.050  0.00  0.00    +0.210 HD
ENDBRANCH  23  29
BRANCH  15  31
ATOM     31  O   LIG A   1      -6.656  -0.632 134.903  0.00  0.00    -0.389 OA
ATOM     32  H   LIG A   1      -6.159   0.194 135.077  0.00  0.00    +0.210 HD
ENDBRANCH  15  31
BRANCH  14  33
ATOM     33  O   LIG A   1      -5.117  -2.851 135.408  0.00  0.00    -0.389 OA
ATOM     34  H   LIG A   1      -5.341  -3.728 135.791  0.00  0.00    +0.210 HD
ENDBRANCH  14  33
BRANCH   5  35
ATOM     35  C   LIG A   1      -8.983  -2.521 125.040  0.00  0.00    +0.312 C 
ATOM     36  O   LIG A   1      -9.851  -2.229 125.845  0.00  0.00    -0.250 OA
BRANCH  35  37
ATOM     37  O   LIG A   1      -9.188  -3.564 124.213  0.00  0.00    -0.480 OA
ATOM     38  H   LIG A   1      -9.239  -3.158 123.322  0.00  0.00    +0.295 HD
ENDBRANCH  35  37
ENDBRANCH   5  35
BRANCH  13  39
ATOM     39  C   LIG A   1      -3.593  -3.317 132.900  0.00  0.00    +0.165 C 
BRANCH  39  40
ATOM     40  O   LIG A   1      -2.876  -4.550 132.969  0.00  0.00    -0.394 OA
ATOM     41  H   LIG A   1      -3.446  -5.183 133.445  0.00  0.00    +0.209 HD
ENDBRANCH  39  40
ENDBRANCH  13  39
TORSDOF 7
ENDMDL
MODEL 5
REMARK VINA RESULT:      -8.1      4.535      8.670
REMARK  Name = NuBBE_542
REMARK  13 active torsions:
REMARK  status: ('A' for Active; 'I' for Inactive)
REMARK    1  A    between atoms: C_1  and  C_2
REMARK    2  A    between atoms: C_2  and  C_42
REMARK    3  A    between atoms: C_5  and  C_39
REMARK    4  A    between atoms: C_8  and  C_38
REMARK    5  A    between atoms: C_9  and  C_37
REMARK    6  A    between atoms: C_14  and  C_15
REMARK    7  A    between atoms: C_14  and  C_36
REMARK    8  A    between atoms: C_15  and  O_16
REMARK    9  A    between atoms: C_17  and  O_35
REMARK   10  A    between atoms: C_19  and  O_34
REMARK   11  A    between atoms: C_22  and  C_33
REMARK   12  A    between atoms: C_30  and  O_32
REMARK   13  A    between atoms: C_39  and  O_40
REMARK                            x       y       z     vdW  Elec       q    Type
REMARK                         _______ _______ _______ _____ _____    ______ ____
ROOT
ATOM      1  C   LIG A   1      -6.219  -2.323 122.235  0.00  0.00    +0.013 C 
ATOM      2  C   LIG A   1      -6.327  -2.240 123.775  0.00  0.00    -0.008 C 
ATOM      3  C   LIG A   1      -7.759  -2.650 124.171  0.00  0.00    +0.010 C 
ATOM      4  C   LIG A   1      -8.055  -2.462 125.657  0.00  0.00    +0.019 C 
ATOM      5  C   LIG A   1      -7.811  -1.018 126.149  0.00  0.00    +0.076 C 
ATOM      6  C   LIG A   1      -7.905  -1.019 127.690  0.00  0.00    +0.019 C 
ATOM      7  C   LIG A   1      -7.754   0.381 128.274  0.00  0.00    +0.012 C 
ATOM      8  C   LIG A   1      -6.500   1.189 127.800  0.00  0.00    -0.005 C 
ATOM      9  C   LIG A   1      -6.787   2.781 127.903  0.00  0.00    -0.019 C 
ATOM     10  C   LIG A   1      -7.365   3.221 129.284  0.00  0.00    +0.008 C 
ATOM     11  C   LIG A   1      -6.406   3.845 130.287  0.00  0.00    +0.005 C 
ATOM     12  C   LIG A   1      -5.591   4.968 129.633  0.00  0.00    +0.006 C 
ATOM     13  C   LIG A   1      -4.974   5.997 130.653  0.00  0.00    +0.023 C 
ATOM     14  C   LIG A   1      -4.178   7.071 129.854  0.00  0.00    +0.151 C 
ATOM     15  C   LIG A   1      -3.169   6.475 128.866  0.00  0.00    +0.144 C 
ATOM     16  C   LIG A   1      -3.849   5.534 127.872  0.00  0.00    +0.041 C 
ATOM     17  C   LIG A   1      -4.634   4.363 128.542  0.00  0.00    -0.022 C 
ATOM     18  C   LIG A   1      -5.560   3.671 127.438  0.00  0.00    +0.006 C 
ATOM     19  C   LIG A   1      -4.809   3.078 126.219  0.00  0.00    +0.031 C 
ATOM     20  C   LIG A   1      -5.265   1.742 125.708  0.00  0.00    -0.026 C 
ATOM     21  C   LIG A   1      -6.042   0.853 126.364  0.00  0.00    -0.060 C 
ATOM     22  C   LIG A   1      -6.377  -0.538 125.780  0.00  0.00    +0.061 C 
ATOM     23  C   LIG A   1      -5.995  -0.801 124.276  0.00  0.00    +0.128 C 
ATOM     24  C   LIG A   1      -3.573   3.396 129.115  0.00  0.00    +0.012 C 
ATOM     25  C   LIG A   1      -6.131   6.763 131.369  0.00  0.00    +0.016 C 
ATOM     26  C   LIG A   1      -7.950   3.131 126.878  0.00  0.00    +0.012 C 
ATOM     27  C   LIG A   1      -5.354   0.708 128.720  0.00  0.00    +0.016 C 
ATOM     28  C   LIG A   1      -5.310  -3.245 124.359  0.00  0.00    +0.013 C 
ENDROOT
BRANCH  23  29
ATOM     29  O   LIG A   1      -6.552   0.165 123.385  0.00  0.00    -0.391 OA
ATOM     30  H   LIG A   1      -7.518   0.225 123.528  0.00  0.00    +0.210 HD
ENDBRANCH  23  29
BRANCH  15  31
ATOM     31  O   LIG A   1      -2.559   7.545 128.133  0.00  0.00    -0.389 OA
ATOM     32  H   LIG A   1      -1.627   7.269 128.018  0.00  0.00    +0.210 HD
ENDBRANCH  15  31
BRANCH  14  33
ATOM     33  O   LIG A   1      -3.473   8.008 130.682  0.00  0.00    -0.389 OA
ATOM     34  H   LIG A   1      -2.569   8.108 130.309  0.00  0.00    +0.210 HD
ENDBRANCH  14  33
BRANCH   5  35
ATOM     35  C   LIG A   1      -8.914  -0.146 125.540  0.00  0.00    +0.312 C 
ATOM     36  O   LIG A   1      -8.756   0.815 124.806  0.00  0.00    -0.250 OA
BRANCH  35  37
ATOM     37  O   LIG A   1     -10.167  -0.577 125.785  0.00  0.00    -0.480 OA
ATOM     38  H   LIG A   1     -10.727   0.212 125.630  0.00  0.00    +0.295 HD
ENDBRANCH  35  37
ENDBRANCH   5  35
BRANCH  13  39
ATOM     39  C   LIG A   1      -4.133   5.320 131.762  0.00  0.00    +0.165 C 
BRANCH  39  40
ATOM     40  O   LIG A   1      -4.001   6.182 132.893  0.00  0.00    -0.394 OA
ATOM     41  H   LIG A   1      -3.592   7.008 132.573  0.00  0.00    +0.209 HD
ENDBRANCH  39  40
ENDBRANCH  13  39
TORSDOF 7
ENDMDL
MODEL 6
REMARK VINA RESULT:      -8.1      1.721      3.299
REMARK  Name = NuBBE_542
REMARK  13 active torsions:
REMARK  status: ('A' for Active; 'I' for Inactive)
REMARK    1  A    between atoms: C_1  and  C_2
REMARK    2  A    between atoms: C_2  and  C_42
REMARK    3  A    between atoms: C_5  and  C_39
REMARK    4  A    between atoms: C_8  and  C_38
REMARK    5  A    between atoms: C_9  and  C_37
REMARK    6  A    between atoms: C_14  and  C_15
REMARK    7  A    between atoms: C_14  and  C_36
REMARK    8  A    between atoms: C_15  and  O_16
REMARK    9  A    between atoms: C_17  and  O_35
REMARK   10  A    between atoms: C_19  and  O_34
REMARK   11  A    between atoms: C_22  and  C_33
REMARK   12  A    between atoms: C_30  and  O_32
REMARK   13  A    between atoms: C_39  and  O_40
REMARK                            x       y       z     vdW  Elec       q    Type
REMARK                         _______ _______ _______ _____ _____    ______ ____
ROOT
ATOM      1  C   LIG A   1      -7.171  -2.250 135.914  0.00  0.00    +0.013 C 
ATOM      2  C   LIG A   1      -7.128  -3.133 134.646  0.00  0.00    -0.008 C 
ATOM      3  C   LIG A   1      -5.793  -3.905 134.653  0.00  0.00    +0.010 C 
ATOM      4  C   LIG A   1      -5.546  -4.701 133.374  0.00  0.00    +0.019 C 
ATOM      5  C   LIG A   1      -5.598  -3.834 132.097  0.00  0.00    +0.076 C 
ATOM      6  C   LIG A   1      -5.581  -4.781 130.877  0.00  0.00    +0.019 C 
ATOM      7  C   LIG A   1      -5.552  -4.017 129.558  0.00  0.00    +0.012 C 
ATOM      8  C   LIG A   1      -6.648  -2.914 129.381  0.00  0.00    -0.005 C 
ATOM      9  C   LIG A   1      -6.133  -1.774 128.351  0.00  0.00    -0.019 C 
ATOM     10  C   LIG A   1      -5.566  -2.350 127.017  0.00  0.00    +0.008 C 
ATOM     11  C   LIG A   1      -6.470  -2.329 125.794  0.00  0.00    +0.005 C 
ATOM     12  C   LIG A   1      -7.077  -0.935 125.592  0.00  0.00    +0.006 C 
ATOM     13  C   LIG A   1      -7.584  -0.657 124.127  0.00  0.00    +0.023 C 
ATOM     14  C   LIG A   1      -8.173   0.784 124.071  0.00  0.00    +0.151 C 
ATOM     15  C   LIG A   1      -9.209   1.065 125.165  0.00  0.00    +0.144 C 
ATOM     16  C   LIG A   1      -8.627   0.831 126.559  0.00  0.00    +0.041 C 
ATOM     17  C   LIG A   1      -8.058  -0.606 126.775  0.00  0.00    -0.022 C 
ATOM     18  C   LIG A   1      -7.191  -0.616 128.119  0.00  0.00    +0.006 C 
ATOM     19  C   LIG A   1      -7.961  -0.231 129.408  0.00  0.00    +0.031 C 
ATOM     20  C   LIG A   1      -7.683  -1.033 130.646  0.00  0.00    -0.026 C 
ATOM     21  C   LIG A   1      -7.079  -2.240 130.703  0.00  0.00    -0.060 C 
ATOM     22  C   LIG A   1      -6.925  -3.023 132.026  0.00  0.00    +0.061 C 
ATOM     23  C   LIG A   1      -7.268  -2.263 133.360  0.00  0.00    +0.128 C 
ATOM     24  C   LIG A   1      -9.277  -1.554 126.851  0.00  0.00    +0.012 C 
ATOM     25  C   LIG A   1      -6.364  -0.662 123.153  0.00  0.00    +0.016 C 
ATOM     26  C   LIG A   1      -4.882  -1.050 129.012  0.00  0.00    +0.012 C 
ATOM     27  C   LIG A   1      -7.895  -3.679 128.884  0.00  0.00    +0.016 C 
ATOM     28  C   LIG A   1      -8.310  -4.124 134.739  0.00  0.00    +0.013 C 
ENDROOT
BRANCH  23  29
ATOM     29  O   LIG A   1      -6.531  -1.050 133.511  0.00  0.00    -0.391 OA
ATOM     30  H   LIG A   1      -6.677  -0.686 134.409  0.00  0.00    +0.210 HD
ENDBRANCH  23  29
BRANCH  15  31
ATOM     31  O   LIG A   1      -9.617   2.435 125.069  0.00  0.00    -0.389 OA
ATOM     32  H   LIG A   1      -9.949   2.532 124.153  0.00  0.00    +0.210 HD
ENDBRANCH  15  31
BRANCH  14  33
ATOM     33  O   LIG A   1      -8.771   1.119 122.810  0.00  0.00    -0.389 OA
ATOM     34  H   LIG A   1      -9.622   1.573 123.000  0.00  0.00    +0.210 HD
ENDBRANCH  14  33
BRANCH   5  35
ATOM     35  C   LIG A   1      -4.349  -2.945 132.109  0.00  0.00    +0.312 C 
ATOM     36  O   LIG A   1      -4.327  -1.727 132.171  0.00  0.00    -0.250 OA
BRANCH  35  37
ATOM     37  O   LIG A   1      -3.183  -3.619 132.152  0.00  0.00    -0.480 OA
ATOM     38  H   LIG A   1      -2.894  -3.659 131.217  0.00  0.00    +0.295 HD
ENDBRANCH  35  37
ENDBRANCH   5  35
BRANCH  13  39
ATOM     39  C   LIG A   1      -8.569  -1.734 123.613  0.00  0.00    +0.165 C 
BRANCH  39  40
ATOM     40  O   LIG A   1      -8.338  -2.011 122.231  0.00  0.00    -0.394 OA
ATOM     41  H   LIG A   1      -7.372  -1.988 122.095  0.00  0.00    +0.209 HD
ENDBRANCH  39  40
ENDBRANCH  13  39
TORSDOF 7
ENDMDL
MODEL 7
REMARK VINA RESULT:      -8.0      4.096      5.553
REMARK  Name = NuBBE_542
REMARK  13 active torsions:
REMARK  status: ('A' for Active; 'I' for Inactive)
REMARK    1  A    between atoms: C_1  and  C_2
REMARK    2  A    between atoms: C_2  and  C_42
REMARK    3  A    between atoms: C_5  and  C_39
REMARK    4  A    between atoms: C_8  and  C_38
REMARK    5  A    between atoms: C_9  and  C_37
REMARK    6  A    between atoms: C_14  and  C_15
REMARK    7  A    between atoms: C_14  and  C_36
REMARK    8  A    between atoms: C_15  and  O_16
REMARK    9  A    between atoms: C_17  and  O_35
REMARK   10  A    between atoms: C_19  and  O_34
REMARK   11  A    between atoms: C_22  and  C_33
REMARK   12  A    between atoms: C_30  and  O_32
REMARK   13  A    between atoms: C_39  and  O_40
REMARK                            x       y       z     vdW  Elec       q    Type
REMARK                         _______ _______ _______ _____ _____    ______ ____
ROOT
ATOM      1  C   LIG A   1      -7.606   5.006 134.283  0.00  0.00    +0.013 C 
ATOM      2  C   LIG A   1      -6.472   4.341 133.470  0.00  0.00    -0.008 C 
ATOM      3  C   LIG A   1      -5.529   5.455 132.975  0.00  0.00    +0.010 C 
ATOM      4  C   LIG A   1      -4.446   4.955 132.021  0.00  0.00    +0.019 C 
ATOM      5  C   LIG A   1      -5.013   4.218 130.789  0.00  0.00    +0.076 C 
ATOM      6  C   LIG A   1      -3.832   3.557 130.045  0.00  0.00    +0.019 C 
ATOM      7  C   LIG A   1      -4.279   2.863 128.763  0.00  0.00    +0.012 C 
ATOM      8  C   LIG A   1      -5.469   1.857 128.907  0.00  0.00    -0.005 C 
ATOM      9  C   LIG A   1      -6.267   1.730 127.503  0.00  0.00    -0.019 C 
ATOM     10  C   LIG A   1      -5.336   1.469 126.278  0.00  0.00    +0.008 C 
ATOM     11  C   LIG A   1      -5.227   0.042 125.762  0.00  0.00    +0.005 C 
ATOM     12  C   LIG A   1      -6.619  -0.566 125.551  0.00  0.00    +0.006 C 
ATOM     13  C   LIG A   1      -6.646  -1.792 124.562  0.00  0.00    +0.023 C 
ATOM     14  C   LIG A   1      -8.112  -2.305 124.447  0.00  0.00    +0.151 C 
ATOM     15  C   LIG A   1      -8.775  -2.570 125.803  0.00  0.00    +0.144 C 
ATOM     16  C   LIG A   1      -8.765  -1.321 126.683  0.00  0.00    +0.041 C 
ATOM     17  C   LIG A   1      -7.341  -0.736 126.937  0.00  0.00    -0.022 C 
ATOM     18  C   LIG A   1      -7.493   0.726 127.567  0.00  0.00    +0.006 C 
ATOM     19  C   LIG A   1      -8.260   0.792 128.913  0.00  0.00    +0.031 C 
ATOM     20  C   LIG A   1      -7.713   1.697 129.978  0.00  0.00    -0.026 C 
ATOM     21  C   LIG A   1      -6.471   2.225 130.024  0.00  0.00    -0.060 C 
ATOM     22  C   LIG A   1      -5.979   3.074 131.218  0.00  0.00    +0.061 C 
ATOM     23  C   LIG A   1      -7.054   3.524 132.275  0.00  0.00    +0.128 C 
ATOM     24  C   LIG A   1      -6.626  -1.720 127.892  0.00  0.00    +0.012 C 
ATOM     25  C   LIG A   1      -6.246  -1.305 123.133  0.00  0.00    +0.016 C 
ATOM     26  C   LIG A   1      -6.921   3.144 127.186  0.00  0.00    +0.012 C 
ATOM     27  C   LIG A   1      -4.810   0.536 129.365  0.00  0.00    +0.016 C 
ATOM     28  C   LIG A   1      -5.715   3.397 134.429  0.00  0.00    +0.013 C 
ENDROOT
BRANCH  23  29
ATOM     29  O   LIG A   1      -8.146   4.232 131.689  0.00  0.00    -0.391 OA
ATOM     30  H   LIG A   1      -7.829   4.747 130.919  0.00  0.00    +0.210 HD
ENDBRANCH  23  29
BRANCH  15  31
ATOM     31  O   LIG A   1     -10.138  -2.955 125.579  0.00  0.00    -0.389 OA
ATOM     32  H   LIG A   1     -10.107  -3.927 125.466  0.00  0.00    +0.210 HD
ENDBRANCH  15  31
BRANCH  14  33
ATOM     33  O   LIG A   1      -8.251  -3.495 123.656  0.00  0.00    -0.389 OA
ATOM     34  H   LIG A   1      -9.144  -3.864 123.836  0.00  0.00    +0.210 HD
ENDBRANCH  14  33
BRANCH   5  35
ATOM     35  C   LIG A   1      -5.686   5.275 129.905  0.00  0.00    +0.312 C 
ATOM     36  O   LIG A   1      -6.867   5.323 129.605  0.00  0.00    -0.250 OA
BRANCH  35  37
ATOM     37  O   LIG A   1      -4.877   6.282 129.525  0.00  0.00    -0.480 OA
ATOM     38  H   LIG A   1      -4.838   6.205 128.549  0.00  0.00    +0.295 HD
ENDBRANCH  35  37
ENDBRANCH   5  35
BRANCH  13  39
ATOM     39  C   LIG A   1      -5.643  -2.905 124.951  0.00  0.00    +0.165 C 
BRANCH  39  40
ATOM     40  O   LIG A   1      -5.308  -3.702 123.814  0.00  0.00    -0.394 OA
ATOM     41  H   LIG A   1      -4.559  -4.269 124.076  0.00  0.00    +0.209 HD
ENDBRANCH  39  40
ENDBRANCH  13  39
TORSDOF 7
ENDMDL
MODEL 8
REMARK VINA RESULT:      -7.9      4.252      6.593
REMARK  Name = NuBBE_542
REMARK  13 active torsions:
REMARK  status: ('A' for Active; 'I' for Inactive)
REMARK    1  A    between atoms: C_1  and  C_2
REMARK    2  A    between atoms: C_2  and  C_42
REMARK    3  A    between atoms: C_5  and  C_39
REMARK    4  A    between atoms: C_8  and  C_38
REMARK    5  A    between atoms: C_9  and  C_37
REMARK    6  A    between atoms: C_14  and  C_15
REMARK    7  A    between atoms: C_14  and  C_36
REMARK    8  A    between atoms: C_15  and  O_16
REMARK    9  A    between atoms: C_17  and  O_35
REMARK   10  A    between atoms: C_19  and  O_34
REMARK   11  A    between atoms: C_22  and  C_33
REMARK   12  A    between atoms: C_30  and  O_32
REMARK   13  A    between atoms: C_39  and  O_40
REMARK                            x       y       z     vdW  Elec       q    Type
REMARK                         _______ _______ _______ _____ _____    ______ ____
ROOT
ATOM      1  C   LIG A   1      -2.160   6.901 130.988  0.00  0.00    +0.013 C 
ATOM      2  C   LIG A   1      -3.572   6.751 130.376  0.00  0.00    -0.008 C 
ATOM      3  C   LIG A   1      -4.601   6.943 131.508  0.00  0.00    +0.010 C 
ATOM      4  C   LIG A   1      -6.038   6.665 131.076  0.00  0.00    +0.019 C 
ATOM      5  C   LIG A   1      -6.233   5.254 130.480  0.00  0.00    +0.076 C 
ATOM      6  C   LIG A   1      -7.647   5.188 129.864  0.00  0.00    +0.019 C 
ATOM      7  C   LIG A   1      -7.969   3.804 129.313  0.00  0.00    +0.012 C 
ATOM      8  C   LIG A   1      -6.914   3.195 128.331  0.00  0.00    -0.005 C 
ATOM      9  C   LIG A   1      -6.985   1.577 128.365  0.00  0.00    -0.019 C 
ATOM     10  C   LIG A   1      -8.430   1.013 128.202  0.00  0.00    +0.008 C 
ATOM     11  C   LIG A   1      -8.839   0.495 126.831  0.00  0.00    +0.005 C 
ATOM     12  C   LIG A   1      -7.788  -0.480 126.284  0.00  0.00    +0.006 C 
ATOM     13  C   LIG A   1      -8.327  -1.448 125.163  0.00  0.00    +0.023 C 
ATOM     14  C   LIG A   1      -7.160  -2.372 124.704  0.00  0.00    +0.151 C 
ATOM     15  C   LIG A   1      -5.887  -1.607 124.325  0.00  0.00    +0.144 C 
ATOM     16  C   LIG A   1      -5.392  -0.737 125.480  0.00  0.00    +0.041 C 
ATOM     17  C   LIG A   1      -6.448   0.289 125.997  0.00  0.00    -0.022 C 
ATOM     18  C   LIG A   1      -5.941   0.883 127.393  0.00  0.00    +0.006 C 
ATOM     19  C   LIG A   1      -4.576   1.616 127.346  0.00  0.00    +0.031 C 
ATOM     20  C   LIG A   1      -4.449   2.892 128.126  0.00  0.00    -0.026 C 
ATOM     21  C   LIG A   1      -5.462   3.641 128.613  0.00  0.00    -0.060 C 
ATOM     22  C   LIG A   1      -5.221   4.991 129.326  0.00  0.00    +0.061 C 
ATOM     23  C   LIG A   1      -3.737   5.356 129.698  0.00  0.00    +0.128 C 
ATOM     24  C   LIG A   1      -6.577   1.374 124.905  0.00  0.00    +0.012 C 
ATOM     25  C   LIG A   1      -9.407  -2.392 125.779  0.00  0.00    +0.016 C 
ATOM     26  C   LIG A   1      -6.556   1.102 129.820  0.00  0.00    +0.012 C 
ATOM     27  C   LIG A   1      -7.269   3.800 126.953  0.00  0.00    +0.016 C 
ATOM     28  C   LIG A   1      -3.734   7.868 129.321  0.00  0.00    +0.013 C 
ENDROOT
BRANCH  23  29
ATOM     29  O   LIG A   1      -3.100   4.353 130.490  0.00  0.00    -0.391 OA
ATOM     30  H   LIG A   1      -2.685   3.687 129.905  0.00  0.00    +0.210 HD
ENDBRANCH  23  29
BRANCH  15  31
ATOM     31  O   LIG A   1      -4.862  -2.556 124.001  0.00  0.00    -0.389 OA
ATOM     32  H   LIG A   1      -5.280  -3.164 123.357  0.00  0.00    +0.210 HD
ENDBRANCH  15  31
BRANCH  14  33
ATOM     33  O   LIG A   1      -7.497  -3.229 123.603  0.00  0.00    -0.389 OA
ATOM     34  H   LIG A   1      -8.062  -2.710 122.989  0.00  0.00    +0.210 HD
ENDBRANCH  14  33
BRANCH   5  35
ATOM     35  C   LIG A   1      -6.099   4.257 131.637  0.00  0.00    +0.312 C 
ATOM     36  O   LIG A   1      -5.236   3.405 131.764  0.00  0.00    -0.250 OA
BRANCH  35  37
ATOM     37  O   LIG A   1      -6.984   4.439 132.636  0.00  0.00    -0.480 OA
ATOM     38  H   LIG A   1      -6.993   5.410 132.776  0.00  0.00    +0.295 HD
ENDBRANCH  35  37
ENDBRANCH   5  35
BRANCH  13  39
ATOM     39  C   LIG A   1      -9.003  -0.698 123.991  0.00  0.00    +0.165 C 
BRANCH  39  40
ATOM     40  O   LIG A   1      -9.754  -1.603 123.180  0.00  0.00    -0.394 OA
ATOM     41  H   LIG A   1     -10.697  -1.425 123.355  0.00  0.00    +0.209 HD
ENDBRANCH  39  40
ENDBRANCH  13  39
TORSDOF 7
ENDMDL
MODEL 9
REMARK VINA RESULT:      -7.9      7.973     11.981
REMARK  Name = NuBBE_542
REMARK  13 active torsions:
REMARK  status: ('A' for Active; 'I' for Inactive)
REMARK    1  A    between atoms: C_1  and  C_2
REMARK    2  A    between atoms: C_2  and  C_42
REMARK    3  A    between atoms: C_5  and  C_39
REMARK    4  A    between atoms: C_8  and  C_38
REMARK    5  A    between atoms: C_9  and  C_37
REMARK    6  A    between atoms: C_14  and  C_15
REMARK    7  A    between atoms: C_14  and  C_36
REMARK    8  A    between atoms: C_15  and  O_16
REMARK    9  A    between atoms: C_17  and  O_35
REMARK   10  A    between atoms: C_19  and  O_34
REMARK   11  A    between atoms: C_22  and  C_33
REMARK   12  A    between atoms: C_30  and  O_32
REMARK   13  A    between atoms: C_39  and  O_40
REMARK                            x       y       z     vdW  Elec       q    Type
REMARK                         _______ _______ _______ _____ _____    ______ ____
ROOT
ATOM      1  C   LIG A   1      -4.146   3.837 125.373  0.00  0.00    +0.013 C 
ATOM      2  C   LIG A   1      -3.633   3.440 126.776  0.00  0.00    -0.008 C 
ATOM      3  C   LIG A   1      -4.570   2.348 127.330  0.00  0.00    +0.010 C 
ATOM      4  C   LIG A   1      -4.273   1.972 128.779  0.00  0.00    +0.019 C 
ATOM      5  C   LIG A   1      -4.314   3.179 129.742  0.00  0.00    +0.076 C 
ATOM      6  C   LIG A   1      -3.763   2.716 131.108  0.00  0.00    +0.019 C 
ATOM      7  C   LIG A   1      -3.832   3.819 132.158  0.00  0.00    +0.012 C 
ATOM      8  C   LIG A   1      -3.204   5.194 131.749  0.00  0.00    -0.005 C 
ATOM      9  C   LIG A   1      -3.906   6.397 132.576  0.00  0.00    -0.019 C 
ATOM     10  C   LIG A   1      -3.973   6.142 134.114  0.00  0.00    +0.008 C 
ATOM     11  C   LIG A   1      -2.935   6.824 134.991  0.00  0.00    +0.005 C 
ATOM     12  C   LIG A   1      -2.856   8.323 134.673  0.00  0.00    +0.006 C 
ATOM     13  C   LIG A   1      -2.231   9.197 135.825  0.00  0.00    +0.023 C 
ATOM     14  C   LIG A   1      -2.212  10.684 135.365  0.00  0.00    +0.151 C 
ATOM     15  C   LIG A   1      -1.567  10.891 133.990  0.00  0.00    +0.144 C 
ATOM     16  C   LIG A   1      -2.263  10.058 132.915  0.00  0.00    +0.041 C 
ATOM     17  C   LIG A   1      -2.294   8.528 133.219  0.00  0.00    -0.022 C 
ATOM     18  C   LIG A   1      -3.324   7.828 132.216  0.00  0.00    +0.006 C 
ATOM     19  C   LIG A   1      -2.994   7.986 130.709  0.00  0.00    +0.031 C 
ATOM     20  C   LIG A   1      -3.176   6.783 129.831  0.00  0.00    -0.026 C 
ATOM     21  C   LIG A   1      -3.295   5.501 130.238  0.00  0.00    -0.060 C 
ATOM     22  C   LIG A   1      -3.387   4.324 129.241  0.00  0.00    +0.061 C 
ATOM     23  C   LIG A   1      -3.593   4.679 127.722  0.00  0.00    +0.128 C 
ATOM     24  C   LIG A   1      -0.848   8.014 133.036  0.00  0.00    +0.012 C 
ATOM     25  C   LIG A   1      -3.168   9.143 137.073  0.00  0.00    +0.016 C 
ATOM     26  C   LIG A   1      -5.433   6.463 132.137  0.00  0.00    +0.012 C 
ATOM     27  C   LIG A   1      -1.695   5.038 132.047  0.00  0.00    +0.016 C 
ATOM     28  C   LIG A   1      -2.208   2.872 126.598  0.00  0.00    +0.013 C 
ENDROOT
BRANCH  23  29
ATOM     29  O   LIG A   1      -4.738   5.501 127.495  0.00  0.00    -0.391 OA
ATOM     30  H   LIG A   1      -4.497   6.441 127.618  0.00  0.00    +0.210 HD
ENDBRANCH  23  29
BRANCH  15  31
ATOM     31  O   LIG A   1      -1.679  12.275 133.635  0.00  0.00    -0.389 OA
ATOM     32  H   LIG A   1      -0.871  12.692 133.998  0.00  0.00    +0.210 HD
ENDBRANCH  15  31
BRANCH  14  33
ATOM     33  O   LIG A   1      -1.562  11.570 136.288  0.00  0.00    -0.389 OA
ATOM     34  H   LIG A   1      -2.019  11.478 137.154  0.00  0.00    +0.210 HD
ENDBRANCH  14  33
BRANCH   5  35
ATOM     35  C   LIG A   1      -5.782   3.602 129.866  0.00  0.00    +0.312 C 
ATOM     36  O   LIG A   1      -6.261   4.666 129.514  0.00  0.00    -0.250 OA
BRANCH  35  37
ATOM     37  O   LIG A   1      -6.605   2.639 130.325  0.00  0.00    -0.480 OA
ATOM     38  H   LIG A   1      -6.042   1.836 130.356  0.00  0.00    +0.295 HD
ENDBRANCH  35  37
ENDBRANCH   5  35
BRANCH  13  39
ATOM     39  C   LIG A   1      -0.845   8.687 136.286  0.00  0.00    +0.165 C 
BRANCH  39  40
ATOM     40  O   LIG A   1      -0.541   9.167 137.597  0.00  0.00    -0.394 OA
ATOM     41  H   LIG A   1      -0.740  10.122 137.602  0.00  0.00    +0.209 HD
ENDBRANCH  39  40
ENDBRANCH  13  39
TORSDOF 7
ENDMDL
