MODEL 1
REMARK VINA RESULT:      -8.4      0.000      0.000
REMARK  Name = NuBBE_1210
REMARK  13 active torsions:
REMARK  status: ('A' for Active; 'I' for Inactive)
REMARK    1  A    between atoms: O_1  and  C_2
REMARK    2  A    between atoms: C_11  and  C_28
REMARK    3  A    between atoms: C_12  and  C_27
REMARK    4  A    between atoms: C_15  and  C_17
REMARK    5  A    between atoms: C_17  and  C_19
REMARK    6  A    between atoms: C_17  and  C_20
REMARK    7  A    between atoms: C_20  and  C_21
REMARK    8  A    between atoms: C_22  and  C_23
REMARK    9  A    between atoms: C_23  and  C_24
REMARK   10  A    between atoms: C_23  and  O_25
REMARK   11  A    between atoms: C_23  and  C_26
REMARK   12  A    between atoms: C_33  and  C_34
REMARK   13  A    between atoms: C_33  and  C_35
REMARK                            x       y       z     vdW  Elec       q    Type
REMARK                         _______ _______ _______ _____ _____    ______ ____
ROOT
ATOM      1  C   LIG A   1      -8.741   2.814 130.652  0.00  0.00    +0.120 C 
ATOM      2  C   LIG A   1      -7.357   2.233 130.887  0.00  0.00    +0.032 C 
ATOM      3  C   LIG A   1      -6.755   2.901 132.106  0.00  0.00    +0.010 C 
ATOM      4  C   LIG A   1      -6.580   4.401 131.905  0.00  0.00    -0.019 C 
ATOM      5  C   LIG A   1      -5.811   5.072 133.030  0.00  0.00    +0.015 C 
ATOM      6  C   LIG A   1      -5.185   5.010 131.651  0.00  0.00    -0.019 C 
ATOM      7  C   LIG A   1      -4.040   4.045 131.469  0.00  0.00    +0.008 C 
ATOM      8  C   LIG A   1      -2.680   4.707 131.369  0.00  0.00    +0.008 C 
ATOM      9  C   LIG A   1      -2.565   5.847 130.355  0.00  0.00    -0.023 C 
ATOM     10  C   LIG A   1      -3.720   6.894 130.611  0.00  0.00    -0.023 C 
ATOM     11  C   LIG A   1      -3.623   7.771 129.347  0.00  0.00    +0.008 C 
ATOM     12  C   LIG A   1      -3.178   6.859 128.205  0.00  0.00    +0.005 C 
ATOM     13  C   LIG A   1      -2.602   5.544 128.802  0.00  0.00    -0.001 C 
ATOM     14  C   LIG A   1      -3.459   7.776 131.856  0.00  0.00    +0.012 C 
ATOM     15  C   LIG A   1      -1.143   6.462 130.602  0.00  0.00    +0.012 C 
ATOM     16  C   LIG A   1      -5.153   6.218 130.710  0.00  0.00    +0.002 C 
ATOM     17  C   LIG A   1      -6.268   7.212 131.098  0.00  0.00    +0.005 C 
ATOM     18  C   LIG A   1      -7.677   6.621 131.064  0.00  0.00    +0.005 C 
ATOM     19  C   LIG A   1      -7.861   5.122 131.422  0.00  0.00    +0.004 C 
ATOM     20  C   LIG A   1      -8.685   4.333 130.319  0.00  0.00    -0.006 C 
ATOM     21  C   LIG A   1      -8.117   4.536 128.891  0.00  0.00    +0.014 C 
ATOM     22  C   LIG A   1     -10.148   4.848 130.317  0.00  0.00    +0.014 C 
ENDROOT
BRANCH   1  23
ATOM     23  O   LIG A   1      -9.384   2.081 129.609  0.00  0.00    -0.391 OA
ATOM     24  H   LIG A   1     -10.335   2.048 129.813  0.00  0.00    +0.210 HD
ENDBRANCH   1  23
BRANCH  13  25
ATOM     25  C   LIG A   1      -3.257   4.271 128.161  0.00  0.00    -0.007 C 
ATOM     26  C   LIG A   1      -2.468   3.680 126.980  0.00  0.00    +0.008 C 
BRANCH  25  27
ATOM     27  C   LIG A   1      -4.684   4.615 127.611  0.00  0.00    +0.030 C 
BRANCH  27  28
ATOM     28  C   LIG A   1      -4.956   4.070 126.236  0.00  0.00    -0.028 C 
ATOM     29  C   LIG A   1      -6.119   4.286 125.579  0.00  0.00    +0.002 C 
BRANCH  29  30
ATOM     30  C   LIG A   1      -6.524   3.755 124.218  0.00  0.00    +0.079 C 
ATOM     31  C   LIG A   1      -6.568   2.225 124.246  0.00  0.00    +0.045 C 
ATOM     32  C   LIG A   1      -5.641   4.213 123.050  0.00  0.00    +0.045 C 
BRANCH  30  33
ATOM     33  O   LIG A   1      -7.854   4.213 123.972  0.00  0.00    -0.385 OA
ATOM     34  H   LIG A   1      -8.348   3.462 123.601  0.00  0.00    +0.211 HD
ENDBRANCH  30  33
ENDBRANCH  29  30
ENDBRANCH  27  28
ENDBRANCH  25  27
ENDBRANCH  13  25
TORSDOF 6
ENDMDL
MODEL 2
REMARK VINA RESULT:      -8.4      4.326      6.891
REMARK  Name = NuBBE_1210
REMARK  13 active torsions:
REMARK  status: ('A' for Active; 'I' for Inactive)
REMARK    1  A    between atoms: O_1  and  C_2
REMARK    2  A    between atoms: C_11  and  C_28
REMARK    3  A    between atoms: C_12  and  C_27
REMARK    4  A    between atoms: C_15  and  C_17
REMARK    5  A    between atoms: C_17  and  C_19
REMARK    6  A    between atoms: C_17  and  C_20
REMARK    7  A    between atoms: C_20  and  C_21
REMARK    8  A    between atoms: C_22  and  C_23
REMARK    9  A    between atoms: C_23  and  C_24
REMARK   10  A    between atoms: C_23  and  O_25
REMARK   11  A    between atoms: C_23  and  C_26
REMARK   12  A    between atoms: C_33  and  C_34
REMARK   13  A    between atoms: C_33  and  C_35
REMARK                            x       y       z     vdW  Elec       q    Type
REMARK                         _______ _______ _______ _____ _____    ______ ____
ROOT
ATOM      1  C   LIG A   1      -9.124   2.975 130.593  0.00  0.00    +0.120 C 
ATOM      2  C   LIG A   1      -9.615   1.662 131.181  0.00  0.00    +0.032 C 
ATOM      3  C   LIG A   1      -8.717   1.288 132.341  0.00  0.00    +0.010 C 
ATOM      4  C   LIG A   1      -7.276   1.066 131.897  0.00  0.00    -0.019 C 
ATOM      5  C   LIG A   1      -6.387   0.510 132.996  0.00  0.00    +0.015 C 
ATOM      6  C   LIG A   1      -6.689  -0.357 131.791  0.00  0.00    -0.019 C 
ATOM      7  C   LIG A   1      -7.641  -1.508 132.005  0.00  0.00    +0.008 C 
ATOM      8  C   LIG A   1      -6.974  -2.869 132.031  0.00  0.00    +0.008 C 
ATOM      9  C   LIG A   1      -6.041  -3.178 130.858  0.00  0.00    -0.023 C 
ATOM     10  C   LIG A   1      -4.995  -2.005 130.699  0.00  0.00    -0.023 C 
ATOM     11  C   LIG A   1      -4.367  -2.340 129.332  0.00  0.00    +0.008 C 
ATOM     12  C   LIG A   1      -5.464  -2.978 128.482  0.00  0.00    +0.005 C 
ATOM     13  C   LIG A   1      -6.629  -3.424 129.409  0.00  0.00    -0.001 C 
ATOM     14  C   LIG A   1      -3.890  -2.041 131.781  0.00  0.00    +0.012 C 
ATOM     15  C   LIG A   1      -5.354  -4.536 131.240  0.00  0.00    +0.012 C 
ATOM     16  C   LIG A   1      -5.678  -0.572 130.662  0.00  0.00    +0.002 C 
ATOM     17  C   LIG A   1      -4.657   0.586 130.646  0.00  0.00    +0.005 C 
ATOM     18  C   LIG A   1      -5.281   1.970 130.468  0.00  0.00    +0.005 C 
ATOM     19  C   LIG A   1      -6.692   2.230 131.063  0.00  0.00    +0.004 C 
ATOM     20  C   LIG A   1      -7.694   2.845 129.996  0.00  0.00    -0.006 C 
ATOM     21  C   LIG A   1      -7.745   2.023 128.684  0.00  0.00    +0.014 C 
ATOM     22  C   LIG A   1      -7.225   4.278 129.632  0.00  0.00    +0.014 C 
ENDROOT
BRANCH   1  23
ATOM     23  O   LIG A   1     -10.055   3.422 129.608  0.00  0.00    -0.391 OA
ATOM     24  H   LIG A   1      -9.726   4.265 129.251  0.00  0.00    +0.210 HD
ENDBRANCH   1  23
BRANCH  13  25
ATOM     25  C   LIG A   1      -8.016  -2.886 128.912  0.00  0.00    -0.007 C 
ATOM     26  C   LIG A   1      -8.897  -3.946 128.227  0.00  0.00    +0.008 C 
BRANCH  25  27
ATOM     27  C   LIG A   1      -7.807  -1.739 127.863  0.00  0.00    +0.030 C 
BRANCH  27  28
ATOM     28  C   LIG A   1      -8.503  -1.978 126.551  0.00  0.00    -0.028 C 
ATOM     29  C   LIG A   1      -7.897  -1.791 125.356  0.00  0.00    +0.002 C 
BRANCH  29  30
ATOM     30  C   LIG A   1      -8.504  -1.954 123.976  0.00  0.00    +0.079 C 
ATOM     31  C   LIG A   1      -9.273  -3.276 123.897  0.00  0.00    +0.045 C 
ATOM     32  C   LIG A   1      -7.506  -1.881 122.813  0.00  0.00    +0.045 C 
BRANCH  30  33
ATOM     33  O   LIG A   1      -9.452  -0.901 123.811  0.00  0.00    -0.385 OA
ATOM     34  H   LIG A   1      -8.953  -0.066 123.813  0.00  0.00    +0.211 HD
ENDBRANCH  30  33
ENDBRANCH  29  30
ENDBRANCH  27  28
ENDBRANCH  25  27
ENDBRANCH  13  25
TORSDOF 6
ENDMDL
MODEL 3
REMARK VINA RESULT:      -8.3      4.131      7.211
REMARK  Name = NuBBE_1210
REMARK  13 active torsions:
REMARK  status: ('A' for Active; 'I' for Inactive)
REMARK    1  A    between atoms: O_1  and  C_2
REMARK    2  A    between atoms: C_11  and  C_28
REMARK    3  A    between atoms: C_12  and  C_27
REMARK    4  A    between atoms: C_15  and  C_17
REMARK    5  A    between atoms: C_17  and  C_19
REMARK    6  A    between atoms: C_17  and  C_20
REMARK    7  A    between atoms: C_20  and  C_21
REMARK    8  A    between atoms: C_22  and  C_23
REMARK    9  A    between atoms: C_23  and  C_24
REMARK   10  A    between atoms: C_23  and  O_25
REMARK   11  A    between atoms: C_23  and  C_26
REMARK   12  A    between atoms: C_33  and  C_34
REMARK   13  A    between atoms: C_33  and  C_35
REMARK                            x       y       z     vdW  Elec       q    Type
REMARK                         _______ _______ _______ _____ _____    ______ ____
ROOT
ATOM      1  C   LIG A   1      -7.307  -1.696 124.101  0.00  0.00    +0.120 C 
ATOM      2  C   LIG A   1      -6.242  -0.763 124.654  0.00  0.00    +0.032 C 
ATOM      3  C   LIG A   1      -5.386  -1.536 125.635  0.00  0.00    +0.010 C 
ATOM      4  C   LIG A   1      -6.197  -2.040 126.823  0.00  0.00    -0.019 C 
ATOM      5  C   LIG A   1      -5.341  -2.658 127.916  0.00  0.00    +0.015 C 
ATOM      6  C   LIG A   1      -6.080  -1.367 128.206  0.00  0.00    -0.019 C 
ATOM      7  C   LIG A   1      -5.247  -0.112 128.288  0.00  0.00    +0.008 C 
ATOM      8  C   LIG A   1      -5.055   0.416 129.697  0.00  0.00    +0.008 C 
ATOM      9  C   LIG A   1      -6.330   0.583 130.526  0.00  0.00    -0.023 C 
ATOM     10  C   LIG A   1      -7.152  -0.766 130.501  0.00  0.00    -0.023 C 
ATOM     11  C   LIG A   1      -8.494  -0.317 131.112  0.00  0.00    +0.008 C 
ATOM     12  C   LIG A   1      -8.717   1.131 130.682  0.00  0.00    +0.005 C 
ATOM     13  C   LIG A   1      -7.371   1.722 130.174  0.00  0.00    -0.001 C 
ATOM     14  C   LIG A   1      -6.530  -1.858 131.404  0.00  0.00    +0.012 C 
ATOM     15  C   LIG A   1      -5.826   0.943 131.968  0.00  0.00    +0.012 C 
ATOM     16  C   LIG A   1      -7.369  -1.328 129.032  0.00  0.00    +0.002 C 
ATOM     17  C   LIG A   1      -8.048  -2.714 129.008  0.00  0.00    +0.005 C 
ATOM     18  C   LIG A   1      -8.397  -3.217 127.607  0.00  0.00    +0.005 C 
ATOM     19  C   LIG A   1      -7.472  -2.821 126.424  0.00  0.00    +0.004 C 
ATOM     20  C   LIG A   1      -8.277  -2.192 125.211  0.00  0.00    -0.006 C 
ATOM     21  C   LIG A   1      -9.209  -1.034 125.649  0.00  0.00    +0.014 C 
ATOM     22  C   LIG A   1      -9.168  -3.290 124.573  0.00  0.00    +0.014 C 
ENDROOT
BRANCH   1  23
ATOM     23  O   LIG A   1      -8.015  -1.029 123.056  0.00  0.00    -0.391 OA
ATOM     24  H   LIG A   1      -8.952  -0.987 123.314  0.00  0.00    +0.210 HD
ENDBRANCH   1  23
BRANCH  13  25
ATOM     25  C   LIG A   1      -7.517   2.385 128.759  0.00  0.00    -0.007 C 
ATOM     26  C   LIG A   1      -8.046   3.829 128.789  0.00  0.00    +0.008 C 
BRANCH  25  27
ATOM     27  C   LIG A   1      -8.520   1.564 127.877  0.00  0.00    +0.030 C 
BRANCH  27  28
ATOM     28  C   LIG A   1      -8.762   2.157 126.517  0.00  0.00    -0.028 C 
ATOM     29  C   LIG A   1      -7.792   2.262 125.580  0.00  0.00    +0.002 C 
BRANCH  29  30
ATOM     30  C   LIG A   1      -7.902   2.877 124.198  0.00  0.00    +0.079 C 
ATOM     31  C   LIG A   1      -9.079   2.255 123.442  0.00  0.00    +0.045 C 
ATOM     32  C   LIG A   1      -6.637   2.775 123.336  0.00  0.00    +0.045 C 
BRANCH  30  33
ATOM     33  O   LIG A   1      -8.201   4.261 124.382  0.00  0.00    -0.385 OA
ATOM     34  H   LIG A   1      -8.647   4.565 123.574  0.00  0.00    +0.211 HD
ENDBRANCH  30  33
ENDBRANCH  29  30
ENDBRANCH  27  28
ENDBRANCH  25  27
ENDBRANCH  13  25
TORSDOF 6
ENDMDL
MODEL 4
REMARK VINA RESULT:      -8.3      4.111      7.192
REMARK  Name = NuBBE_1210
REMARK  13 active torsions:
REMARK  status: ('A' for Active; 'I' for Inactive)
REMARK    1  A    between atoms: O_1  and  C_2
REMARK    2  A    between atoms: C_11  and  C_28
REMARK    3  A    between atoms: C_12  and  C_27
REMARK    4  A    between atoms: C_15  and  C_17
REMARK    5  A    between atoms: C_17  and  C_19
REMARK    6  A    between atoms: C_17  and  C_20
REMARK    7  A    between atoms: C_20  and  C_21
REMARK    8  A    between atoms: C_22  and  C_23
REMARK    9  A    between atoms: C_23  and  C_24
REMARK   10  A    between atoms: C_23  and  O_25
REMARK   11  A    between atoms: C_23  and  C_26
REMARK   12  A    between atoms: C_33  and  C_34
REMARK   13  A    between atoms: C_33  and  C_35
REMARK                            x       y       z     vdW  Elec       q    Type
REMARK                         _______ _______ _______ _____ _____    ______ ____
ROOT
ATOM      1  C   LIG A   1      -6.967   2.878 126.510  0.00  0.00    +0.120 C 
ATOM      2  C   LIG A   1      -8.158   2.329 127.279  0.00  0.00    +0.032 C 
ATOM      3  C   LIG A   1      -7.968   2.642 128.748  0.00  0.00    +0.010 C 
ATOM      4  C   LIG A   1      -6.724   1.970 129.317  0.00  0.00    -0.019 C 
ATOM      5  C   LIG A   1      -6.603   2.109 130.825  0.00  0.00    +0.015 C 
ATOM      6  C   LIG A   1      -6.838   0.734 130.232  0.00  0.00    -0.019 C 
ATOM      7  C   LIG A   1      -8.214   0.142 130.415  0.00  0.00    +0.008 C 
ATOM      8  C   LIG A   1      -8.279  -0.977 131.436  0.00  0.00    +0.008 C 
ATOM      9  C   LIG A   1      -7.250  -2.097 131.265  0.00  0.00    -0.023 C 
ATOM     10  C   LIG A   1      -5.805  -1.468 131.160  0.00  0.00    -0.023 C 
ATOM     11  C   LIG A   1      -4.976  -2.684 130.702  0.00  0.00    +0.008 C 
ATOM     12  C   LIG A   1      -5.887  -3.538 129.821  0.00  0.00    +0.005 C 
ATOM     13  C   LIG A   1      -7.363  -3.110 130.054  0.00  0.00    -0.001 C 
ATOM     14  C   LIG A   1      -5.266  -0.980 132.526  0.00  0.00    +0.012 C 
ATOM     15  C   LIG A   1      -7.416  -2.991 132.544  0.00  0.00    +0.012 C 
ATOM     16  C   LIG A   1      -5.718  -0.300 130.088  0.00  0.00    +0.002 C 
ATOM     17  C   LIG A   1      -4.348   0.412 130.077  0.00  0.00    +0.005 C 
ATOM     18  C   LIG A   1      -4.187   1.446 128.962  0.00  0.00    +0.005 C 
ATOM     19  C   LIG A   1      -5.439   2.236 128.497  0.00  0.00    +0.004 C 
ATOM     20  C   LIG A   1      -5.639   2.181 126.923  0.00  0.00    -0.006 C 
ATOM     21  C   LIG A   1      -5.610   0.735 126.368  0.00  0.00    +0.014 C 
ATOM     22  C   LIG A   1      -4.487   2.966 126.241  0.00  0.00    +0.014 C 
ENDROOT
BRANCH   1  23
ATOM     23  O   LIG A   1      -7.209   2.736 125.110  0.00  0.00    -0.391 OA
ATOM     24  H   LIG A   1      -7.984   2.158 125.001  0.00  0.00    +0.210 HD
ENDBRANCH   1  23
BRANCH  13  25
ATOM     25  C   LIG A   1      -8.106  -2.803 128.707  0.00  0.00    -0.007 C 
ATOM     26  C   LIG A   1      -8.921  -3.985 128.152  0.00  0.00    +0.008 C 
BRANCH  25  27
ATOM     27  C   LIG A   1      -7.072  -2.418 127.594  0.00  0.00    +0.030 C 
BRANCH  27  28
ATOM     28  C   LIG A   1      -7.544  -2.708 126.196  0.00  0.00    -0.028 C 
ATOM     29  C   LIG A   1      -8.042  -1.753 125.378  0.00  0.00    +0.002 C 
BRANCH  29  30
ATOM     30  C   LIG A   1      -8.587  -1.929 123.974  0.00  0.00    +0.079 C 
ATOM     31  C   LIG A   1      -9.302  -3.279 123.857  0.00  0.00    +0.045 C 
ATOM     32  C   LIG A   1      -7.547  -1.810 122.851  0.00  0.00    +0.045 C 
BRANCH  30  33
ATOM     33  O   LIG A   1      -9.568  -0.911 123.777  0.00  0.00    -0.385 OA
ATOM     34  H   LIG A   1      -9.143  -0.063 123.988  0.00  0.00    +0.211 HD
ENDBRANCH  30  33
ENDBRANCH  29  30
ENDBRANCH  27  28
ENDBRANCH  25  27
ENDBRANCH  13  25
TORSDOF 6
ENDMDL
MODEL 5
REMARK VINA RESULT:      -8.1      2.666      6.423
REMARK  Name = NuBBE_1210
REMARK  13 active torsions:
REMARK  status: ('A' for Active; 'I' for Inactive)
REMARK    1  A    between atoms: O_1  and  C_2
REMARK    2  A    between atoms: C_11  and  C_28
REMARK    3  A    between atoms: C_12  and  C_27
REMARK    4  A    between atoms: C_15  and  C_17
REMARK    5  A    between atoms: C_17  and  C_19
REMARK    6  A    between atoms: C_17  and  C_20
REMARK    7  A    between atoms: C_20  and  C_21
REMARK    8  A    between atoms: C_22  and  C_23
REMARK    9  A    between atoms: C_23  and  C_24
REMARK   10  A    between atoms: C_23  and  O_25
REMARK   11  A    between atoms: C_23  and  C_26
REMARK   12  A    between atoms: C_33  and  C_34
REMARK   13  A    between atoms: C_33  and  C_35
REMARK                            x       y       z     vdW  Elec       q    Type
REMARK                         _______ _______ _______ _____ _____    ______ ____
ROOT
ATOM      1  C   LIG A   1      -5.910   4.509 125.201  0.00  0.00    +0.120 C 
ATOM      2  C   LIG A   1      -5.155   4.813 126.485  0.00  0.00    +0.032 C 
ATOM      3  C   LIG A   1      -4.779   3.503 127.144  0.00  0.00    +0.010 C 
ATOM      4  C   LIG A   1      -6.007   2.688 127.532  0.00  0.00    -0.019 C 
ATOM      5  C   LIG A   1      -5.674   1.458 128.359  0.00  0.00    +0.015 C 
ATOM      6  C   LIG A   1      -6.457   2.584 129.004  0.00  0.00    -0.019 C 
ATOM      7  C   LIG A   1      -5.719   3.436 130.007  0.00  0.00    +0.008 C 
ATOM      8  C   LIG A   1      -6.113   3.179 131.448  0.00  0.00    +0.008 C 
ATOM      9  C   LIG A   1      -7.614   3.208 131.746  0.00  0.00    -0.023 C 
ATOM     10  C   LIG A   1      -8.365   2.246 130.743  0.00  0.00    -0.023 C 
ATOM     11  C   LIG A   1      -9.836   2.633 130.993  0.00  0.00    +0.008 C 
ATOM     12  C   LIG A   1      -9.853   4.122 131.333  0.00  0.00    +0.005 C 
ATOM     13  C   LIG A   1      -8.412   4.574 131.705  0.00  0.00    -0.001 C 
ATOM     14  C   LIG A   1      -8.173   0.751 131.094  0.00  0.00    +0.012 C 
ATOM     15  C   LIG A   1      -7.736   2.724 133.234  0.00  0.00    +0.012 C 
ATOM     16  C   LIG A   1      -7.970   2.507 129.227  0.00  0.00    +0.002 C 
ATOM     17  C   LIG A   1      -8.592   1.484 128.254  0.00  0.00    +0.005 C 
ATOM     18  C   LIG A   1      -8.344   1.792 126.777  0.00  0.00    +0.005 C 
ATOM     19  C   LIG A   1      -7.015   2.487 126.376  0.00  0.00    +0.004 C 
ATOM     20  C   LIG A   1      -7.252   3.773 125.477  0.00  0.00    -0.006 C 
ATOM     21  C   LIG A   1      -8.272   4.758 126.102  0.00  0.00    +0.014 C 
ATOM     22  C   LIG A   1      -7.815   3.330 124.101  0.00  0.00    +0.014 C 
ENDROOT
BRANCH   1  23
ATOM     23  O   LIG A   1      -6.128   5.727 124.488  0.00  0.00    -0.391 OA
ATOM     24  H   LIG A   1      -5.647   6.432 124.954  0.00  0.00    +0.210 HD
ENDBRANCH   1  23
BRANCH  13  25
ATOM     25  C   LIG A   1      -7.965   5.839 130.894  0.00  0.00    -0.007 C 
ATOM     26  C   LIG A   1      -6.670   6.494 131.407  0.00  0.00    +0.008 C 
BRANCH  25  27
ATOM     27  C   LIG A   1      -9.075   6.944 130.958  0.00  0.00    +0.030 C 
BRANCH  27  28
ATOM     28  C   LIG A   1      -9.708   7.250 129.628  0.00  0.00    -0.028 C 
ATOM     29  C   LIG A   1     -11.008   7.602 129.501  0.00  0.00    +0.002 C 
BRANCH  29  30
ATOM     30  C   LIG A   1     -11.767   7.889 128.219  0.00  0.00    +0.079 C 
ATOM     31  C   LIG A   1     -12.978   6.959 128.111  0.00  0.00    +0.045 C 
ATOM     32  C   LIG A   1     -10.936   7.788 126.933  0.00  0.00    +0.045 C 
BRANCH  30  33
ATOM     33  O   LIG A   1     -12.264   9.223 128.320  0.00  0.00    -0.385 OA
ATOM     34  H   LIG A   1     -13.041   9.281 127.739  0.00  0.00    +0.211 HD
ENDBRANCH  30  33
ENDBRANCH  29  30
ENDBRANCH  27  28
ENDBRANCH  25  27
ENDBRANCH  13  25
TORSDOF 6
ENDMDL
MODEL 6
REMARK VINA RESULT:      -8.1      3.881      7.883
REMARK  Name = NuBBE_1210
REMARK  13 active torsions:
REMARK  status: ('A' for Active; 'I' for Inactive)
REMARK    1  A    between atoms: O_1  and  C_2
REMARK    2  A    between atoms: C_11  and  C_28
REMARK    3  A    between atoms: C_12  and  C_27
REMARK    4  A    between atoms: C_15  and  C_17
REMARK    5  A    between atoms: C_17  and  C_19
REMARK    6  A    between atoms: C_17  and  C_20
REMARK    7  A    between atoms: C_20  and  C_21
REMARK    8  A    between atoms: C_22  and  C_23
REMARK    9  A    between atoms: C_23  and  C_24
REMARK   10  A    between atoms: C_23  and  O_25
REMARK   11  A    between atoms: C_23  and  C_26
REMARK   12  A    between atoms: C_33  and  C_34
REMARK   13  A    between atoms: C_33  and  C_35
REMARK                            x       y       z     vdW  Elec       q    Type
REMARK                         _______ _______ _______ _____ _____    ______ ____
ROOT
ATOM      1  C   LIG A   1      -7.251  -1.073 124.456  0.00  0.00    +0.120 C 
ATOM      2  C   LIG A   1      -6.227  -0.201 125.165  0.00  0.00    +0.032 C 
ATOM      3  C   LIG A   1      -5.370  -1.085 126.046  0.00  0.00    +0.010 C 
ATOM      4  C   LIG A   1      -6.189  -1.779 127.127  0.00  0.00    -0.019 C 
ATOM      5  C   LIG A   1      -5.338  -2.525 128.141  0.00  0.00    +0.015 C 
ATOM      6  C   LIG A   1      -6.122  -1.311 128.596  0.00  0.00    -0.019 C 
ATOM      7  C   LIG A   1      -5.330  -0.058 128.879  0.00  0.00    +0.008 C 
ATOM      8  C   LIG A   1      -5.185   0.264 130.354  0.00  0.00    +0.008 C 
ATOM      9  C   LIG A   1      -6.481   0.274 131.166  0.00  0.00    -0.023 C 
ATOM     10  C   LIG A   1      -7.260  -1.079 130.926  0.00  0.00    -0.023 C 
ATOM     11  C   LIG A   1      -8.628  -0.761 131.561  0.00  0.00    +0.008 C 
ATOM     12  C   LIG A   1      -8.886   0.728 131.339  0.00  0.00    +0.005 C 
ATOM     13  C   LIG A   1      -7.549   1.424 130.956  0.00  0.00    -0.001 C 
ATOM     14  C   LIG A   1      -6.624  -2.274 131.677  0.00  0.00    +0.012 C 
ATOM     15  C   LIG A   1      -6.019   0.435 132.657  0.00  0.00    +0.012 C 
ATOM     16  C   LIG A   1      -7.429  -1.427 129.386  0.00  0.00    +0.002 C 
ATOM     17  C   LIG A   1      -8.064  -2.813 129.144  0.00  0.00    +0.005 C 
ATOM     18  C   LIG A   1      -8.367  -3.116 127.677  0.00  0.00    +0.005 C 
ATOM     19  C   LIG A   1      -7.431  -2.528 126.588  0.00  0.00    +0.004 C 
ATOM     20  C   LIG A   1      -8.229  -1.751 125.458  0.00  0.00    -0.006 C 
ATOM     21  C   LIG A   1      -9.205  -0.695 126.035  0.00  0.00    +0.014 C 
ATOM     22  C   LIG A   1      -9.072  -2.770 124.646  0.00  0.00    +0.014 C 
ENDROOT
BRANCH   1  23
ATOM     23  O   LIG A   1      -7.958  -0.281 123.502  0.00  0.00    -0.391 OA
ATOM     24  H   LIG A   1      -8.888  -0.240 123.782  0.00  0.00    +0.210 HD
ENDBRANCH   1  23
BRANCH  13  25
ATOM     25  C   LIG A   1      -7.685   2.280 129.649  0.00  0.00    -0.007 C 
ATOM     26  C   LIG A   1      -6.696   3.455 129.558  0.00  0.00    +0.008 C 
BRANCH  25  27
ATOM     27  C   LIG A   1      -9.121   2.902 129.556  0.00  0.00    +0.030 C 
BRANCH  27  28
ATOM     28  C   LIG A   1      -9.189   4.346 129.971  0.00  0.00    -0.028 C 
ATOM     29  C   LIG A   1     -10.282   4.891 130.552  0.00  0.00    +0.002 C 
BRANCH  29  30
ATOM     30  C   LIG A   1     -10.485   6.335 130.970  0.00  0.00    +0.079 C 
ATOM     31  C   LIG A   1     -11.939   6.555 131.396  0.00  0.00    +0.045 C 
ATOM     32  C   LIG A   1     -10.105   7.379 129.913  0.00  0.00    +0.045 C 
BRANCH  30  33
ATOM     33  O   LIG A   1      -9.668   6.553 132.120  0.00  0.00    -0.385 OA
ATOM     34  H   LIG A   1      -9.779   5.779 132.698  0.00  0.00    +0.211 HD
ENDBRANCH  30  33
ENDBRANCH  29  30
ENDBRANCH  27  28
ENDBRANCH  25  27
ENDBRANCH  13  25
TORSDOF 6
ENDMDL
MODEL 7
REMARK VINA RESULT:      -7.9      2.792      6.553
REMARK  Name = NuBBE_1210
REMARK  13 active torsions:
REMARK  status: ('A' for Active; 'I' for Inactive)
REMARK    1  A    between atoms: O_1  and  C_2
REMARK    2  A    between atoms: C_11  and  C_28
REMARK    3  A    between atoms: C_12  and  C_27
REMARK    4  A    between atoms: C_15  and  C_17
REMARK    5  A    between atoms: C_17  and  C_19
REMARK    6  A    between atoms: C_17  and  C_20
REMARK    7  A    between atoms: C_20  and  C_21
REMARK    8  A    between atoms: C_22  and  C_23
REMARK    9  A    between atoms: C_23  and  C_24
REMARK   10  A    between atoms: C_23  and  O_25
REMARK   11  A    between atoms: C_23  and  C_26
REMARK   12  A    between atoms: C_33  and  C_34
REMARK   13  A    between atoms: C_33  and  C_35
REMARK                            x       y       z     vdW  Elec       q    Type
REMARK                         _______ _______ _______ _____ _____    ______ ____
ROOT
ATOM      1  C   LIG A   1      -3.422   7.655 129.922  0.00  0.00    +0.120 C 
ATOM      2  C   LIG A   1      -3.325   7.869 131.424  0.00  0.00    +0.032 C 
ATOM      3  C   LIG A   1      -2.272   6.932 131.977  0.00  0.00    +0.010 C 
ATOM      4  C   LIG A   1      -2.640   5.469 131.758  0.00  0.00    -0.019 C 
ATOM      5  C   LIG A   1      -1.703   4.502 132.461  0.00  0.00    +0.015 C 
ATOM      6  C   LIG A   1      -3.142   4.594 132.926  0.00  0.00    -0.019 C 
ATOM      7  C   LIG A   1      -3.387   5.287 134.244  0.00  0.00    +0.008 C 
ATOM      8  C   LIG A   1      -3.738   4.350 135.382  0.00  0.00    +0.008 C 
ATOM      9  C   LIG A   1      -4.864   3.352 135.103  0.00  0.00    -0.023 C 
ATOM     10  C   LIG A   1      -4.554   2.574 133.764  0.00  0.00    -0.023 C 
ATOM     11  C   LIG A   1      -5.898   1.866 133.504  0.00  0.00    +0.008 C 
ATOM     12  C   LIG A   1      -6.996   2.790 134.027  0.00  0.00    +0.005 C 
ATOM     13  C   LIG A   1      -6.361   3.851 134.968  0.00  0.00    -0.001 C 
ATOM     14  C   LIG A   1      -3.449   1.505 133.939  0.00  0.00    +0.012 C 
ATOM     15  C   LIG A   1      -4.877   2.402 136.351  0.00  0.00    +0.012 C 
ATOM     16  C   LIG A   1      -4.192   3.542 132.558  0.00  0.00    +0.002 C 
ATOM     17  C   LIG A   1      -3.752   2.787 131.286  0.00  0.00    +0.005 C 
ATOM     18  C   LIG A   1      -3.533   3.685 130.068  0.00  0.00    +0.005 C 
ATOM     19  C   LIG A   1      -3.009   5.129 130.295  0.00  0.00    +0.004 C 
ATOM     20  C   LIG A   1      -3.906   6.219 129.570  0.00  0.00    -0.006 C 
ATOM     21  C   LIG A   1      -5.411   6.075 129.909  0.00  0.00    +0.014 C 
ATOM     22  C   LIG A   1      -3.755   6.056 128.035  0.00  0.00    +0.014 C 
ENDROOT
BRANCH   1  23
ATOM     23  O   LIG A   1      -4.290   8.642 129.365  0.00  0.00    -0.391 OA
ATOM     24  H   LIG A   1      -3.941   8.882 128.489  0.00  0.00    +0.210 HD
ENDBRANCH   1  23
BRANCH  13  25
ATOM     25  C   LIG A   1      -6.777   5.311 134.575  0.00  0.00    -0.007 C 
ATOM     26  C   LIG A   1      -8.132   5.759 135.152  0.00  0.00    +0.008 C 
BRANCH  25  27
ATOM     27  C   LIG A   1      -6.896   5.440 133.017  0.00  0.00    +0.030 C 
BRANCH  27  28
ATOM     28  C   LIG A   1      -8.213   5.994 132.549  0.00  0.00    -0.028 C 
ATOM     29  C   LIG A   1      -8.824   5.573 131.418  0.00  0.00    +0.002 C 
BRANCH  29  30
ATOM     30  C   LIG A   1     -10.122   6.084 130.823  0.00  0.00    +0.079 C 
ATOM     31  C   LIG A   1      -9.854   7.334 129.980  0.00  0.00    +0.045 C 
ATOM     32  C   LIG A   1     -11.230   6.390 131.840  0.00  0.00    +0.045 C 
BRANCH  30  33
ATOM     33  O   LIG A   1     -10.602   5.071 129.939  0.00  0.00    -0.385 OA
ATOM     34  H   LIG A   1     -10.996   5.524 129.175  0.00  0.00    +0.211 HD
ENDBRANCH  30  33
ENDBRANCH  29  30
ENDBRANCH  27  28
ENDBRANCH  25  27
ENDBRANCH  13  25
TORSDOF 6
ENDMDL
MODEL 8
REMARK VINA RESULT:      -7.7      2.239      4.304
REMARK  Name = NuBBE_1210
REMARK  13 active torsions:
REMARK  status: ('A' for Active; 'I' for Inactive)
REMARK    1  A    between atoms: O_1  and  C_2
REMARK    2  A    between atoms: C_11  and  C_28
REMARK    3  A    between atoms: C_12  and  C_27
REMARK    4  A    between atoms: C_15  and  C_17
REMARK    5  A    between atoms: C_17  and  C_19
REMARK    6  A    between atoms: C_17  and  C_20
REMARK    7  A    between atoms: C_20  and  C_21
REMARK    8  A    between atoms: C_22  and  C_23
REMARK    9  A    between atoms: C_23  and  C_24
REMARK   10  A    between atoms: C_23  and  O_25
REMARK   11  A    between atoms: C_23  and  C_26
REMARK   12  A    between atoms: C_33  and  C_34
REMARK   13  A    between atoms: C_33  and  C_35
REMARK                            x       y       z     vdW  Elec       q    Type
REMARK                         _______ _______ _______ _____ _____    ______ ____
ROOT
ATOM      1  C   LIG A   1      -7.364  -0.102 129.039  0.00  0.00    +0.120 C 
ATOM      2  C   LIG A   1      -6.664  -0.170 130.387  0.00  0.00    +0.032 C 
ATOM      3  C   LIG A   1      -7.668   0.168 131.468  0.00  0.00    +0.010 C 
ATOM      4  C   LIG A   1      -8.210   1.584 131.320  0.00  0.00    -0.019 C 
ATOM      5  C   LIG A   1      -9.076   2.022 132.489  0.00  0.00    +0.015 C 
ATOM      6  C   LIG A   1      -7.747   2.714 132.263  0.00  0.00    -0.019 C 
ATOM      7  C   LIG A   1      -6.637   2.385 133.231  0.00  0.00    +0.008 C 
ATOM      8  C   LIG A   1      -6.330   3.490 134.222  0.00  0.00    +0.008 C 
ATOM      9  C   LIG A   1      -6.103   4.880 133.624  0.00  0.00    -0.023 C 
ATOM     10  C   LIG A   1      -7.314   5.247 132.678  0.00  0.00    -0.023 C 
ATOM     11  C   LIG A   1      -6.772   6.500 131.961  0.00  0.00    +0.008 C 
ATOM     12  C   LIG A   1      -5.263   6.313 131.818  0.00  0.00    +0.005 C 
ATOM     13  C   LIG A   1      -4.797   5.186 132.783  0.00  0.00    -0.001 C 
ATOM     14  C   LIG A   1      -8.589   5.631 133.465  0.00  0.00    +0.012 C 
ATOM     15  C   LIG A   1      -6.007   5.839 134.863  0.00  0.00    +0.012 C 
ATOM     16  C   LIG A   1      -7.643   4.103 131.627  0.00  0.00    +0.002 C 
ATOM     17  C   LIG A   1      -8.909   4.392 130.793  0.00  0.00    +0.005 C 
ATOM     18  C   LIG A   1      -9.171   3.378 129.679  0.00  0.00    +0.005 C 
ATOM     19  C   LIG A   1      -8.752   1.901 129.906  0.00  0.00    +0.004 C 
ATOM     20  C   LIG A   1      -7.865   1.335 128.718  0.00  0.00    -0.006 C 
ATOM     21  C   LIG A   1      -6.660   2.249 128.384  0.00  0.00    +0.014 C 
ATOM     22  C   LIG A   1      -8.740   1.232 127.441  0.00  0.00    +0.014 C 
ENDROOT
BRANCH   1  23
ATOM     23  O   LIG A   1      -6.476  -0.576 128.027  0.00  0.00    -0.391 OA
ATOM     24  H   LIG A   1      -5.860   0.146 127.812  0.00  0.00    +0.210 HD
ENDBRANCH   1  23
BRANCH  13  25
ATOM     25  C   LIG A   1      -3.941   4.098 132.046  0.00  0.00    -0.007 C 
ATOM     26  C   LIG A   1      -2.767   3.549 132.876  0.00  0.00    +0.008 C 
BRANCH  25  27
ATOM     27  C   LIG A   1      -3.318   4.694 130.737  0.00  0.00    +0.030 C 
BRANCH  27  28
ATOM     28  C   LIG A   1      -3.530   3.841 129.517  0.00  0.00    -0.028 C 
ATOM     29  C   LIG A   1      -2.817   4.001 128.379  0.00  0.00    +0.002 C 
BRANCH  29  30
ATOM     30  C   LIG A   1      -2.969   3.237 127.077  0.00  0.00    +0.079 C 
ATOM     31  C   LIG A   1      -1.597   3.035 126.427  0.00  0.00    +0.045 C 
ATOM     32  C   LIG A   1      -3.922   3.873 126.056  0.00  0.00    +0.045 C 
BRANCH  30  33
ATOM     33  O   LIG A   1      -3.476   1.945 127.410  0.00  0.00    -0.385 OA
ATOM     34  H   LIG A   1      -4.275   1.807 126.874  0.00  0.00    +0.211 HD
ENDBRANCH  30  33
ENDBRANCH  29  30
ENDBRANCH  27  28
ENDBRANCH  25  27
ENDBRANCH  13  25
TORSDOF 6
ENDMDL
MODEL 9
REMARK VINA RESULT:      -7.4      2.618      5.691
REMARK  Name = NuBBE_1210
REMARK  13 active torsions:
REMARK  status: ('A' for Active; 'I' for Inactive)
REMARK    1  A    between atoms: O_1  and  C_2
REMARK    2  A    between atoms: C_11  and  C_28
REMARK    3  A    between atoms: C_12  and  C_27
REMARK    4  A    between atoms: C_15  and  C_17
REMARK    5  A    between atoms: C_17  and  C_19
REMARK    6  A    between atoms: C_17  and  C_20
REMARK    7  A    between atoms: C_20  and  C_21
REMARK    8  A    between atoms: C_22  and  C_23
REMARK    9  A    between atoms: C_23  and  C_24
REMARK   10  A    between atoms: C_23  and  O_25
REMARK   11  A    between atoms: C_23  and  C_26
REMARK   12  A    between atoms: C_33  and  C_34
REMARK   13  A    between atoms: C_33  and  C_35
REMARK                            x       y       z     vdW  Elec       q    Type
REMARK                         _______ _______ _______ _____ _____    ______ ____
ROOT
ATOM      1  C   LIG A   1      -8.912   5.676 131.368  0.00  0.00    +0.120 C 
ATOM      2  C   LIG A   1      -9.073   4.845 130.105  0.00  0.00    +0.032 C 
ATOM      3  C   LIG A   1      -9.814   3.572 130.458  0.00  0.00    +0.010 C 
ATOM      4  C   LIG A   1      -9.039   2.720 131.456  0.00  0.00    -0.019 C 
ATOM      5  C   LIG A   1      -9.661   1.354 131.690  0.00  0.00    +0.015 C 
ATOM      6  C   LIG A   1      -8.311   1.436 131.006  0.00  0.00    -0.019 C 
ATOM      7  C   LIG A   1      -8.282   1.150 129.525  0.00  0.00    +0.008 C 
ATOM      8  C   LIG A   1      -7.681  -0.195 129.164  0.00  0.00    +0.008 C 
ATOM      9  C   LIG A   1      -6.313  -0.501 129.780  0.00  0.00    -0.023 C 
ATOM     10  C   LIG A   1      -6.381  -0.277 131.342  0.00  0.00    -0.023 C 
ATOM     11  C   LIG A   1      -4.888  -0.337 131.723  0.00  0.00    +0.008 C 
ATOM     12  C   LIG A   1      -4.105   0.244 130.547  0.00  0.00    +0.005 C 
ATOM     13  C   LIG A   1      -5.024   0.278 129.293  0.00  0.00    -0.001 C 
ATOM     14  C   LIG A   1      -7.131  -1.416 132.075  0.00  0.00    +0.012 C 
ATOM     15  C   LIG A   1      -6.033  -1.999 129.407  0.00  0.00    +0.012 C 
ATOM     16  C   LIG A   1      -7.001   1.130 131.737  0.00  0.00    +0.002 C 
ATOM     17  C   LIG A   1      -7.199   1.300 133.258  0.00  0.00    +0.005 C 
ATOM     18  C   LIG A   1      -7.662   2.695 133.678  0.00  0.00    +0.005 C 
ATOM     19  C   LIG A   1      -8.581   3.493 132.716  0.00  0.00    +0.004 C 
ATOM     20  C   LIG A   1      -8.034   4.955 132.429  0.00  0.00    -0.006 C 
ATOM     21  C   LIG A   1      -6.553   4.959 131.975  0.00  0.00    +0.014 C 
ATOM     22  C   LIG A   1      -8.124   5.791 133.733  0.00  0.00    +0.014 C 
ENDROOT
BRANCH   1  23
ATOM     23  O   LIG A   1      -8.364   6.948 131.023  0.00  0.00    -0.391 OA
ATOM     24  H   LIG A   1      -9.090   7.503 130.691  0.00  0.00    +0.210 HD
ENDBRANCH   1  23
BRANCH  13  25
ATOM     25  C   LIG A   1      -5.044   1.693 128.617  0.00  0.00    -0.007 C 
ATOM     26  C   LIG A   1      -4.638   1.690 127.132  0.00  0.00    +0.008 C 
BRANCH  25  27
ATOM     27  C   LIG A   1      -4.046   2.656 129.347  0.00  0.00    +0.030 C 
BRANCH  27  28
ATOM     28  C   LIG A   1      -3.844   3.971 128.644  0.00  0.00    -0.028 C 
ATOM     29  C   LIG A   1      -3.764   5.149 129.305  0.00  0.00    +0.002 C 
BRANCH  29  30
ATOM     30  C   LIG A   1      -3.607   6.534 128.708  0.00  0.00    +0.079 C 
ATOM     31  C   LIG A   1      -2.152   6.759 128.287  0.00  0.00    +0.045 C 
ATOM     32  C   LIG A   1      -4.054   7.689 129.615  0.00  0.00    +0.045 C 
BRANCH  30  33
ATOM     33  O   LIG A   1      -4.402   6.570 127.523  0.00  0.00    -0.385 OA
ATOM     34  H   LIG A   1      -3.788   6.635 126.772  0.00  0.00    +0.211 HD
ENDBRANCH  30  33
ENDBRANCH  29  30
ENDBRANCH  27  28
ENDBRANCH  25  27
ENDBRANCH  13  25
TORSDOF 6
ENDMDL
