MODEL 1
REMARK VINA RESULT:      -8.4      0.000      0.000
REMARK  Name = NuBBE_1634
REMARK  2 active torsions:
REMARK  status: ('A' for Active; 'I' for Inactive)
REMARK    1  A    between atoms: C_1  and  C_2
REMARK    2  A    between atoms: C_19  and  C_20
REMARK                            x       y       z     vdW  Elec       q    Type
REMARK                         _______ _______ _______ _____ _____    ______ ____
ROOT
ATOM      1  C   LIG A   1      -8.198   4.723 134.676  0.00  0.00    +0.046 C 
ATOM      2  C   LIG A   1      -7.895   5.482 133.410  0.00  0.00    -0.019 A 
ATOM      3  C   LIG A   1      -8.919   5.948 132.559  0.00  0.00    +0.051 A 
ATOM      4  C   LIG A   1      -8.674   6.650 131.384  0.00  0.00    +0.008 A 
ATOM      5  C   LIG A   1      -9.934   6.961 130.781  0.00  0.00    +0.007 A 
ATOM      6  C   LIG A   1     -10.928   6.438 131.603  0.00  0.00    +0.048 A 
ATOM      7  N   LIG A   1     -10.291   5.836 132.662  0.00  0.00    -0.354 N 
ATOM      8  H   LIG A   1     -10.773   5.373 133.417  0.00  0.00    +0.166 HD
ATOM      9  C   LIG A   1     -12.292   6.557 131.315  0.00  0.00    +0.026 A 
ATOM     10  C   LIG A   1     -12.648   7.236 130.145  0.00  0.00    +0.002 A 
ATOM     11  C   LIG A   1     -11.678   7.770 129.301  0.00  0.00    +0.001 A 
ATOM     12  C   LIG A   1     -10.318   7.640 129.605  0.00  0.00    +0.010 A 
ATOM     13  C   LIG A   1      -7.341   6.913 131.024  0.00  0.00    +0.021 A 
ATOM     14  C   LIG A   1      -6.267   6.477 131.831  0.00  0.00    +0.004 A 
ATOM     15  C   LIG A   1      -6.545   5.763 133.021  0.00  0.00    -0.010 A 
ATOM     16  C   LIG A   1      -5.445   5.346 133.793  0.00  0.00    +0.028 A 
ATOM     17  C   LIG A   1      -4.157   5.637 133.381  0.00  0.00    +0.112 A 
ATOM     18  N   LIG A   1      -3.868   6.313 132.259  0.00  0.00    -0.260 NA
ATOM     19  C   LIG A   1      -4.913   6.724 131.499  0.00  0.00    +0.046 A 
ATOM     20  C   LIG A   1      -4.527   7.476 130.255  0.00  0.00    +0.066 C 
ENDROOT
TORSDOF 0
ENDMDL
MODEL 2
REMARK VINA RESULT:      -7.8      8.680      9.760
REMARK  Name = NuBBE_1634
REMARK  2 active torsions:
REMARK  status: ('A' for Active; 'I' for Inactive)
REMARK    1  A    between atoms: C_1  and  C_2
REMARK    2  A    between atoms: C_19  and  C_20
REMARK                            x       y       z     vdW  Elec       q    Type
REMARK                         _______ _______ _______ _____ _____    ______ ____
ROOT
ATOM      1  C   LIG A   1      -9.754   1.949 124.205  0.00  0.00    +0.046 C 
ATOM      2  C   LIG A   1      -8.346   2.478 124.110  0.00  0.00    -0.019 A 
ATOM      3  C   LIG A   1      -7.846   3.054 122.923  0.00  0.00    +0.051 A 
ATOM      4  C   LIG A   1      -6.553   3.550 122.802  0.00  0.00    +0.008 A 
ATOM      5  C   LIG A   1      -6.393   4.055 121.473  0.00  0.00    +0.007 A 
ATOM      6  C   LIG A   1      -7.598   3.855 120.806  0.00  0.00    +0.048 A 
ATOM      7  N   LIG A   1      -8.451   3.253 121.699  0.00  0.00    -0.354 N 
ATOM      8  H   LIG A   1      -9.401   2.993 121.480  0.00  0.00    +0.166 HD
ATOM      9  C   LIG A   1      -7.799   4.233 119.473  0.00  0.00    +0.026 A 
ATOM     10  C   LIG A   1      -6.729   4.835 118.803  0.00  0.00    +0.002 A 
ATOM     11  C   LIG A   1      -5.511   5.049 119.443  0.00  0.00    +0.001 A 
ATOM     12  C   LIG A   1      -5.328   4.664 120.776  0.00  0.00    +0.010 A 
ATOM     13  C   LIG A   1      -5.698   3.477 123.916  0.00  0.00    +0.021 A 
ATOM     14  C   LIG A   1      -6.134   2.913 125.135  0.00  0.00    +0.004 A 
ATOM     15  C   LIG A   1      -7.456   2.414 125.230  0.00  0.00    -0.010 A 
ATOM     16  C   LIG A   1      -7.846   1.860 126.463  0.00  0.00    +0.028 A 
ATOM     17  C   LIG A   1      -6.956   1.818 127.520  0.00  0.00    +0.112 A 
ATOM     18  N   LIG A   1      -5.700   2.285 127.455  0.00  0.00    -0.260 NA
ATOM     19  C   LIG A   1      -5.301   2.823 126.276  0.00  0.00    +0.046 A 
ATOM     20  C   LIG A   1      -3.884   3.329 126.264  0.00  0.00    +0.066 C 
ENDROOT
TORSDOF 0
ENDMDL
MODEL 3
REMARK VINA RESULT:      -7.3      9.520     10.078
REMARK  Name = NuBBE_1634
REMARK  2 active torsions:
REMARK  status: ('A' for Active; 'I' for Inactive)
REMARK    1  A    between atoms: C_1  and  C_2
REMARK    2  A    between atoms: C_19  and  C_20
REMARK                            x       y       z     vdW  Elec       q    Type
REMARK                         _______ _______ _______ _____ _____    ______ ____
ROOT
ATOM      1  C   LIG A   1      -5.780   1.393 127.379  0.00  0.00    +0.046 C 
ATOM      2  C   LIG A   1      -6.289   1.341 125.962  0.00  0.00    -0.019 A 
ATOM      3  C   LIG A   1      -6.997   0.225 125.466  0.00  0.00    +0.051 A 
ATOM      4  C   LIG A   1      -7.480   0.145 124.165  0.00  0.00    +0.008 A 
ATOM      5  C   LIG A   1      -8.141  -1.115 124.013  0.00  0.00    +0.007 A 
ATOM      6  C   LIG A   1      -8.047  -1.782 125.231  0.00  0.00    +0.048 A 
ATOM      7  N   LIG A   1      -7.356  -0.955 126.084  0.00  0.00    -0.354 N 
ATOM      8  H   LIG A   1      -7.142  -1.190 127.041  0.00  0.00    +0.166 HD
ATOM      9  C   LIG A   1      -8.588  -3.055 125.442  0.00  0.00    +0.026 A 
ATOM     10  C   LIG A   1      -9.248  -3.663 124.369  0.00  0.00    +0.002 A 
ATOM     11  C   LIG A   1      -9.360  -3.022 123.138  0.00  0.00    +0.001 A 
ATOM     12  C   LIG A   1      -8.811  -1.749 122.945  0.00  0.00    +0.010 A 
ATOM     13  C   LIG A   1      -7.256   1.228 123.297  0.00  0.00    +0.021 A 
ATOM     14  C   LIG A   1      -6.555   2.376 123.727  0.00  0.00    +0.004 A 
ATOM     15  C   LIG A   1      -6.073   2.431 125.058  0.00  0.00    -0.010 A 
ATOM     16  C   LIG A   1      -5.379   3.593 125.442  0.00  0.00    +0.028 A 
ATOM     17  C   LIG A   1      -5.192   4.622 124.539  0.00  0.00    +0.112 A 
ATOM     18  N   LIG A   1      -5.640   4.594 123.275  0.00  0.00    -0.260 NA
ATOM     19  C   LIG A   1      -6.311   3.484 122.881  0.00  0.00    +0.046 A 
ATOM     20  C   LIG A   1      -6.789   3.511 121.454  0.00  0.00    +0.066 C 
ENDROOT
TORSDOF 0
ENDMDL
MODEL 4
REMARK VINA RESULT:      -7.2      9.201     10.622
REMARK  Name = NuBBE_1634
REMARK  2 active torsions:
REMARK  status: ('A' for Active; 'I' for Inactive)
REMARK    1  A    between atoms: C_1  and  C_2
REMARK    2  A    between atoms: C_19  and  C_20
REMARK                            x       y       z     vdW  Elec       q    Type
REMARK                         _______ _______ _______ _____ _____    ______ ____
ROOT
ATOM      1  C   LIG A   1      -5.632  -2.509 125.873  0.00  0.00    +0.046 C 
ATOM      2  C   LIG A   1      -6.341  -1.305 125.308  0.00  0.00    -0.019 A 
ATOM      3  C   LIG A   1      -5.886   0.008 125.550  0.00  0.00    +0.051 A 
ATOM      4  C   LIG A   1      -6.517   1.139 125.043  0.00  0.00    +0.008 A 
ATOM      5  C   LIG A   1      -5.789   2.289 125.486  0.00  0.00    +0.007 A 
ATOM      6  C   LIG A   1      -4.724   1.834 126.258  0.00  0.00    +0.048 A 
ATOM      7  N   LIG A   1      -4.807   0.463 126.279  0.00  0.00    -0.354 N 
ATOM      8  H   LIG A   1      -4.155  -0.131 126.770  0.00  0.00    +0.166 HD
ATOM      9  C   LIG A   1      -3.799   2.696 126.857  0.00  0.00    +0.026 A 
ATOM     10  C   LIG A   1      -3.971   4.070 126.657  0.00  0.00    +0.002 A 
ATOM     11  C   LIG A   1      -5.026   4.557 125.890  0.00  0.00    +0.001 A 
ATOM     12  C   LIG A   1      -5.943   3.679 125.299  0.00  0.00    +0.010 A 
ATOM     13  C   LIG A   1      -7.664   0.970 124.249  0.00  0.00    +0.021 A 
ATOM     14  C   LIG A   1      -8.173  -0.316 123.966  0.00  0.00    +0.004 A 
ATOM     15  C   LIG A   1      -7.512  -1.451 124.495  0.00  0.00    -0.010 A 
ATOM     16  C   LIG A   1      -8.056  -2.712 124.189  0.00  0.00    +0.028 A 
ATOM     17  C   LIG A   1      -9.188  -2.809 123.401  0.00  0.00    +0.112 A 
ATOM     18  N   LIG A   1      -9.830  -1.750 122.888  0.00  0.00    -0.260 NA
ATOM     19  C   LIG A   1      -9.325  -0.523 123.170  0.00  0.00    +0.046 A 
ATOM     20  C   LIG A   1     -10.088   0.625 122.566  0.00  0.00    +0.066 C 
ENDROOT
TORSDOF 0
ENDMDL
MODEL 5
REMARK VINA RESULT:      -7.2     10.242     10.549
REMARK  Name = NuBBE_1634
REMARK  2 active torsions:
REMARK  status: ('A' for Active; 'I' for Inactive)
REMARK    1  A    between atoms: C_1  and  C_2
REMARK    2  A    between atoms: C_19  and  C_20
REMARK                            x       y       z     vdW  Elec       q    Type
REMARK                         _______ _______ _______ _____ _____    ______ ____
ROOT
ATOM      1  C   LIG A   1      -9.715  -4.299 128.490  0.00  0.00    +0.046 C 
ATOM      2  C   LIG A   1      -8.529  -3.433 128.150  0.00  0.00    -0.019 A 
ATOM      3  C   LIG A   1      -8.258  -3.028 126.826  0.00  0.00    +0.051 A 
ATOM      4  C   LIG A   1      -7.174  -2.231 126.479  0.00  0.00    +0.008 A 
ATOM      5  C   LIG A   1      -7.211  -2.020 125.064  0.00  0.00    +0.007 A 
ATOM      6  C   LIG A   1      -8.324  -2.697 124.574  0.00  0.00    +0.048 A 
ATOM      7  N   LIG A   1      -8.933  -3.293 125.652  0.00  0.00    -0.354 N 
ATOM      8  H   LIG A   1      -9.770  -3.852 125.585  0.00  0.00    +0.166 HD
ATOM      9  C   LIG A   1      -8.669  -2.708 123.218  0.00  0.00    +0.026 A 
ATOM     10  C   LIG A   1      -7.846  -2.000 122.336  0.00  0.00    +0.002 A 
ATOM     11  C   LIG A   1      -6.725  -1.312 122.795  0.00  0.00    +0.001 A 
ATOM     12  C   LIG A   1      -6.396  -1.314 124.155  0.00  0.00    +0.010 A 
ATOM     13  C   LIG A   1      -6.301  -1.804 127.495  0.00  0.00    +0.021 A 
ATOM     14  C   LIG A   1      -6.513  -2.172 128.842  0.00  0.00    +0.004 A 
ATOM     15  C   LIG A   1      -7.625  -2.985 129.167  0.00  0.00    -0.010 A 
ATOM     16  C   LIG A   1      -7.795  -3.329 130.521  0.00  0.00    +0.028 A 
ATOM     17  C   LIG A   1      -6.900  -2.875 131.472  0.00  0.00    +0.112 A 
ATOM     18  N   LIG A   1      -5.840  -2.103 131.189  0.00  0.00    -0.260 NA
ATOM     19  C   LIG A   1      -5.655  -1.760 129.890  0.00  0.00    +0.046 A 
ATOM     20  C   LIG A   1      -4.451  -0.893 129.635  0.00  0.00    +0.066 C 
ENDROOT
TORSDOF 0
ENDMDL
MODEL 6
REMARK VINA RESULT:      -7.2      3.322      3.731
REMARK  Name = NuBBE_1634
REMARK  2 active torsions:
REMARK  status: ('A' for Active; 'I' for Inactive)
REMARK    1  A    between atoms: C_1  and  C_2
REMARK    2  A    between atoms: C_19  and  C_20
REMARK                            x       y       z     vdW  Elec       q    Type
REMARK                         _______ _______ _______ _____ _____    ______ ____
ROOT
ATOM      1  C   LIG A   1      -8.683   4.159 134.376  0.00  0.00    +0.046 C 
ATOM      2  C   LIG A   1      -9.016   3.924 132.925  0.00  0.00    -0.019 A 
ATOM      3  C   LIG A   1      -9.944   4.733 132.235  0.00  0.00    +0.051 A 
ATOM      4  C   LIG A   1     -10.274   4.543 130.898  0.00  0.00    +0.008 A 
ATOM      5  C   LIG A   1     -11.238   5.536 130.533  0.00  0.00    +0.007 A 
ATOM      6  C   LIG A   1     -11.478   6.315 131.661  0.00  0.00    +0.048 A 
ATOM      7  N   LIG A   1     -10.689   5.811 132.667  0.00  0.00    -0.354 N 
ATOM      8  H   LIG A   1     -10.663   6.188 133.602  0.00  0.00    +0.166 HD
ATOM      9  C   LIG A   1     -12.376   7.388 131.665  0.00  0.00    +0.026 A 
ATOM     10  C   LIG A   1     -13.049   7.672 130.471  0.00  0.00    +0.002 A 
ATOM     11  C   LIG A   1     -12.831   6.912 129.326  0.00  0.00    +0.001 A 
ATOM     12  C   LIG A   1     -11.929   5.841 129.342  0.00  0.00    +0.010 A 
ATOM     13  C   LIG A   1      -9.653   3.497 130.194  0.00  0.00    +0.021 A 
ATOM     14  C   LIG A   1      -8.714   2.650 130.823  0.00  0.00    +0.004 A 
ATOM     15  C   LIG A   1      -8.397   2.865 132.186  0.00  0.00    -0.010 A 
ATOM     16  C   LIG A   1      -7.458   1.996 132.772  0.00  0.00    +0.028 A 
ATOM     17  C   LIG A   1      -6.884   0.985 132.023  0.00  0.00    +0.112 A 
ATOM     18  N   LIG A   1      -7.167   0.763 130.731  0.00  0.00    -0.260 NA
ATOM     19  C   LIG A   1      -8.070   1.587 130.145  0.00  0.00    +0.046 A 
ATOM     20  C   LIG A   1      -8.345   1.289 128.696  0.00  0.00    +0.066 C 
ENDROOT
TORSDOF 0
ENDMDL
MODEL 7
REMARK VINA RESULT:      -7.1      9.472     10.245
REMARK  Name = NuBBE_1634
REMARK  2 active torsions:
REMARK  status: ('A' for Active; 'I' for Inactive)
REMARK    1  A    between atoms: C_1  and  C_2
REMARK    2  A    between atoms: C_19  and  C_20
REMARK                            x       y       z     vdW  Elec       q    Type
REMARK                         _______ _______ _______ _____ _____    ______ ____
ROOT
ATOM      1  C   LIG A   1      -9.137  -2.783 123.940  0.00  0.00    +0.046 C 
ATOM      2  C   LIG A   1      -8.496  -1.919 124.994  0.00  0.00    -0.019 A 
ATOM      3  C   LIG A   1      -7.939  -0.660 124.686  0.00  0.00    +0.051 A 
ATOM      4  C   LIG A   1      -7.340   0.161 125.635  0.00  0.00    +0.008 A 
ATOM      5  C   LIG A   1      -6.890   1.349 124.975  0.00  0.00    +0.007 A 
ATOM      6  C   LIG A   1      -7.226   1.228 123.630  0.00  0.00    +0.048 A 
ATOM      7  N   LIG A   1      -7.853   0.014 123.485  0.00  0.00    -0.354 N 
ATOM      8  H   LIG A   1      -8.205  -0.335 122.606  0.00  0.00    +0.166 HD
ATOM      9  C   LIG A   1      -6.932   2.215 122.683  0.00  0.00    +0.026 A 
ATOM     10  C   LIG A   1      -6.274   3.365 123.131  0.00  0.00    +0.002 A 
ATOM     11  C   LIG A   1      -5.925   3.517 124.470  0.00  0.00    +0.001 A 
ATOM     12  C   LIG A   1      -6.226   2.518 125.403  0.00  0.00    +0.010 A 
ATOM     13  C   LIG A   1      -7.285  -0.280 126.969  0.00  0.00    +0.021 A 
ATOM     14  C   LIG A   1      -7.824  -1.530 127.346  0.00  0.00    +0.004 A 
ATOM     15  C   LIG A   1      -8.428  -2.347 126.360  0.00  0.00    -0.010 A 
ATOM     16  C   LIG A   1      -8.950  -3.584 126.781  0.00  0.00    +0.028 A 
ATOM     17  C   LIG A   1      -8.863  -3.959 128.109  0.00  0.00    +0.112 A 
ATOM     18  N   LIG A   1      -8.298  -3.202 129.061  0.00  0.00    -0.260 NA
ATOM     19  C   LIG A   1      -7.787  -2.006 128.679  0.00  0.00    +0.046 A 
ATOM     20  C   LIG A   1      -7.168  -1.203 129.790  0.00  0.00    +0.066 C 
ENDROOT
TORSDOF 0
ENDMDL
MODEL 8
REMARK VINA RESULT:      -6.9      9.211     10.341
REMARK  Name = NuBBE_1634
REMARK  2 active torsions:
REMARK  status: ('A' for Active; 'I' for Inactive)
REMARK    1  A    between atoms: C_1  and  C_2
REMARK    2  A    between atoms: C_19  and  C_20
REMARK                            x       y       z     vdW  Elec       q    Type
REMARK                         _______ _______ _______ _____ _____    ______ ____
ROOT
ATOM      1  C   LIG A   1      -5.058   1.890 126.245  0.00  0.00    +0.046 C 
ATOM      2  C   LIG A   1      -6.286   1.147 125.786  0.00  0.00    -0.019 A 
ATOM      3  C   LIG A   1      -6.732  -0.025 126.433  0.00  0.00    +0.051 A 
ATOM      4  C   LIG A   1      -7.860  -0.734 126.035  0.00  0.00    +0.008 A 
ATOM      5  C   LIG A   1      -8.011  -1.856 126.910  0.00  0.00    +0.007 A 
ATOM      6  C   LIG A   1      -6.967  -1.809 127.829  0.00  0.00    +0.048 A 
ATOM      7  N   LIG A   1      -6.215  -0.701 127.520  0.00  0.00    -0.354 N 
ATOM      8  H   LIG A   1      -5.390  -0.423 128.028  0.00  0.00    +0.166 HD
ATOM      9  C   LIG A   1      -6.802  -2.763 128.840  0.00  0.00    +0.026 A 
ATOM     10  C   LIG A   1      -7.740  -3.798 128.911  0.00  0.00    +0.002 A 
ATOM     11  C   LIG A   1      -8.796  -3.873 128.006  0.00  0.00    +0.001 A 
ATOM     12  C   LIG A   1      -8.944  -2.911 127.001  0.00  0.00    +0.010 A 
ATOM     13  C   LIG A   1      -8.596  -0.263 124.934  0.00  0.00    +0.021 A 
ATOM     14  C   LIG A   1      -8.206   0.904 124.241  0.00  0.00    +0.004 A 
ATOM     15  C   LIG A   1      -7.053   1.606 124.667  0.00  0.00    -0.010 A 
ATOM     16  C   LIG A   1      -6.702   2.762 123.945  0.00  0.00    +0.028 A 
ATOM     17  C   LIG A   1      -7.469   3.171 122.870  0.00  0.00    +0.112 A 
ATOM     18  N   LIG A   1      -8.566   2.524 122.449  0.00  0.00    -0.260 NA
ATOM     19  C   LIG A   1      -8.924   1.406 123.128  0.00  0.00    +0.046 A 
ATOM     20  C   LIG A   1     -10.161   0.725 122.610  0.00  0.00    +0.066 C 
ENDROOT
TORSDOF 0
ENDMDL
MODEL 9
REMARK VINA RESULT:      -6.7      9.241     10.584
REMARK  Name = NuBBE_1634
REMARK  2 active torsions:
REMARK  status: ('A' for Active; 'I' for Inactive)
REMARK    1  A    between atoms: C_1  and  C_2
REMARK    2  A    between atoms: C_19  and  C_20
REMARK                            x       y       z     vdW  Elec       q    Type
REMARK                         _______ _______ _______ _____ _____    ______ ____
ROOT
ATOM      1  C   LIG A   1      -8.263   2.005 127.134  0.00  0.00    +0.046 C 
ATOM      2  C   LIG A   1      -8.241   0.513 126.926  0.00  0.00    -0.019 A 
ATOM      3  C   LIG A   1      -7.820  -0.373 127.940  0.00  0.00    +0.051 A 
ATOM      4  C   LIG A   1      -7.787  -1.754 127.780  0.00  0.00    +0.008 A 
ATOM      5  C   LIG A   1      -7.312  -2.332 129.000  0.00  0.00    +0.007 A 
ATOM      6  C   LIG A   1      -7.063  -1.286 129.884  0.00  0.00    +0.048 A 
ATOM      7  N   LIG A   1      -7.376  -0.123 129.222  0.00  0.00    -0.354 N 
ATOM      8  H   LIG A   1      -7.289   0.796 129.630  0.00  0.00    +0.166 HD
ATOM      9  C   LIG A   1      -6.582  -1.489 131.183  0.00  0.00    +0.026 A 
ATOM     10  C   LIG A   1      -6.351  -2.807 131.588  0.00  0.00    +0.002 A 
ATOM     11  C   LIG A   1      -6.590  -3.875 130.728  0.00  0.00    +0.001 A 
ATOM     12  C   LIG A   1      -7.070  -3.653 129.431  0.00  0.00    +0.010 A 
ATOM     13  C   LIG A   1      -8.195  -2.299 126.550  0.00  0.00    +0.021 A 
ATOM     14  C   LIG A   1      -8.629  -1.469 125.492  0.00  0.00    +0.004 A 
ATOM     15  C   LIG A   1      -8.651  -0.066 125.681  0.00  0.00    -0.010 A 
ATOM     16  C   LIG A   1      -9.089   0.721 124.601  0.00  0.00    +0.028 A 
ATOM     17  C   LIG A   1      -9.476   0.122 123.416  0.00  0.00    +0.112 A 
ATOM     18  N   LIG A   1      -9.465  -1.203 123.213  0.00  0.00    -0.260 NA
ATOM     19  C   LIG A   1      -9.046  -1.983 124.241  0.00  0.00    +0.046 A 
ATOM     20  C   LIG A   1      -9.056  -3.460 123.954  0.00  0.00    +0.066 C 
ENDROOT
TORSDOF 0
ENDMDL
