MODEL 1
REMARK VINA RESULT:      -7.2      0.000      0.000
REMARK  Name = NuBBE_1776
REMARK  7 active torsions:
REMARK  status: ('A' for Active; 'I' for Inactive)
REMARK    1  A    between atoms: O_1  and  C_2
REMARK    2  A    between atoms: O_1  and  C_3
REMARK    3  A    between atoms: C_7  and  C_10
REMARK    4  A    between atoms: C_12  and  O_13
REMARK    5  A    between atoms: C_14  and  O_17
REMARK    6  A    between atoms: C_19  and  O_21
REMARK    7  A    between atoms: O_21  and  C_22
REMARK                            x       y       z     vdW  Elec       q    Type
REMARK                         _______ _______ _______ _____ _____    ______ ____
ROOT
ATOM      1  C   LIG A   1      -7.017  -0.166 126.307  0.00  0.00    +0.130 A 
ATOM      2  C   LIG A   1      -6.809   0.851 125.358  0.00  0.00    +0.036 A 
ATOM      3  C   LIG A   1      -7.095   0.588 124.017  0.00  0.00    +0.132 A 
ATOM      4  O   LIG A   1      -6.948   1.487 123.002  0.00  0.00    -0.484 OA
ATOM      5  C   LIG A   1      -6.793   2.856 123.400  0.00  0.00    +0.204 C 
ATOM      6  C   LIG A   1      -5.782   2.978 124.538  0.00  0.00    +0.054 C 
ATOM      7  C   LIG A   1      -6.309   2.216 125.752  0.00  0.00    +0.046 C 
ATOM      8  C   LIG A   1      -7.530  -0.668 123.609  0.00  0.00    +0.091 A 
ATOM      9  C   LIG A   1      -7.734  -1.679 124.536  0.00  0.00    +0.127 A 
ATOM     10  C   LIG A   1      -7.487  -1.423 125.892  0.00  0.00    +0.091 A 
ENDROOT
BRANCH   5  11
ATOM     11  C   LIG A   1      -6.368   3.642 122.170  0.00  0.00    -0.004 A 
ATOM     12  C   LIG A   1      -5.288   4.544 122.221  0.00  0.00    +0.056 A 
ATOM     13  C   LIG A   1      -4.906   5.243 121.083  0.00  0.00    +0.159 A 
ATOM     14  C   LIG A   1      -5.591   5.062 119.887  0.00  0.00    +0.158 A 
ATOM     15  C   LIG A   1      -6.662   4.184 119.810  0.00  0.00    +0.049 A 
ATOM     16  C   LIG A   1      -7.052   3.473 120.950  0.00  0.00    +0.011 A 
BRANCH  13  17
ATOM     17  O   LIG A   1      -3.859   6.124 121.094  0.00  0.00    -0.503 OA
ATOM     18  H   LIG A   1      -3.575   6.256 120.172  0.00  0.00    +0.292 HD
ENDBRANCH  13  17
BRANCH  14  19
ATOM     19  O   LIG A   1      -5.211   5.757 118.774  0.00  0.00    -0.503 OA
ATOM     20  H   LIG A   1      -4.269   5.961 118.927  0.00  0.00    +0.292 HD
ENDBRANCH  14  19
ENDBRANCH   5  11
BRANCH   1  21
ATOM     21  O   LIG A   1      -6.790   0.176 127.613  0.00  0.00    -0.495 OA
ATOM     22  C   LIG A   1      -5.724  -0.505 128.263  0.00  0.00    +0.277 C 
ENDBRANCH   1  21
BRANCH   9  23
ATOM     23  O   LIG A   1      -8.181  -2.937 124.227  0.00  0.00    -0.495 OA
ATOM     24  C   LIG A   1      -9.177  -3.005 123.202  0.00  0.00    +0.277 C 
ENDBRANCH   9  23
TORSDOF 5
ENDMDL
MODEL 2
REMARK VINA RESULT:      -7.0      7.220      8.875
REMARK  Name = NuBBE_1776
REMARK  7 active torsions:
REMARK  status: ('A' for Active; 'I' for Inactive)
REMARK    1  A    between atoms: O_1  and  C_2
REMARK    2  A    between atoms: O_1  and  C_3
REMARK    3  A    between atoms: C_7  and  C_10
REMARK    4  A    between atoms: C_12  and  O_13
REMARK    5  A    between atoms: C_14  and  O_17
REMARK    6  A    between atoms: C_19  and  O_21
REMARK    7  A    between atoms: O_21  and  C_22
REMARK                            x       y       z     vdW  Elec       q    Type
REMARK                         _______ _______ _______ _____ _____    ______ ____
ROOT
ATOM      1  C   LIG A   1      -8.254   2.068 132.031  0.00  0.00    +0.130 A 
ATOM      2  C   LIG A   1      -9.016   3.215 131.749  0.00  0.00    +0.036 A 
ATOM      3  C   LIG A   1      -9.406   3.456 130.430  0.00  0.00    +0.132 A 
ATOM      4  O   LIG A   1     -10.153   4.523 130.025  0.00  0.00    -0.484 OA
ATOM      5  C   LIG A   1     -10.824   5.246 131.066  0.00  0.00    +0.204 C 
ATOM      6  C   LIG A   1      -9.879   5.511 132.237  0.00  0.00    +0.054 C 
ATOM      7  C   LIG A   1      -9.439   4.174 132.831  0.00  0.00    +0.046 C 
ATOM      8  C   LIG A   1      -9.011   2.611 129.399  0.00  0.00    +0.091 A 
ATOM      9  C   LIG A   1      -8.256   1.479 129.666  0.00  0.00    +0.127 A 
ATOM     10  C   LIG A   1      -7.886   1.200 130.989  0.00  0.00    +0.091 A 
ENDROOT
BRANCH   5  11
ATOM     11  C   LIG A   1     -11.356   6.533 130.457  0.00  0.00    -0.004 A 
ATOM     12  C   LIG A   1     -10.767   7.090 129.305  0.00  0.00    +0.056 A 
ATOM     13  C   LIG A   1     -11.277   8.260 128.756  0.00  0.00    +0.159 A 
ATOM     14  C   LIG A   1     -12.366   8.893 129.344  0.00  0.00    +0.158 A 
ATOM     15  C   LIG A   1     -12.960   8.370 130.481  0.00  0.00    +0.049 A 
ATOM     16  C   LIG A   1     -12.457   7.190 131.040  0.00  0.00    +0.011 A 
BRANCH  13  17
ATOM     17  O   LIG A   1     -10.734   8.827 127.635  0.00  0.00    -0.503 OA
ATOM     18  H   LIG A   1     -10.879   8.213 126.894  0.00  0.00    +0.292 HD
ENDBRANCH  13  17
BRANCH  14  19
ATOM     19  O   LIG A   1     -12.856  10.046 128.799  0.00  0.00    -0.503 OA
ATOM     20  H   LIG A   1     -12.250  10.741 129.117  0.00  0.00    +0.292 HD
ENDBRANCH  14  19
ENDBRANCH   5  11
BRANCH   1  21
ATOM     21  O   LIG A   1      -7.967   1.846 133.352  0.00  0.00    -0.495 OA
ATOM     22  C   LIG A   1      -6.589   1.731 133.682  0.00  0.00    +0.277 C 
ENDBRANCH   1  21
BRANCH   9  23
ATOM     23  O   LIG A   1      -7.842   0.581 128.717  0.00  0.00    -0.495 OA
ATOM     24  C   LIG A   1      -8.277   0.848 127.381  0.00  0.00    +0.277 C 
ENDBRANCH   9  23
TORSDOF 5
ENDMDL
MODEL 3
REMARK VINA RESULT:      -7.0      8.585      9.439
REMARK  Name = NuBBE_1776
REMARK  7 active torsions:
REMARK  status: ('A' for Active; 'I' for Inactive)
REMARK    1  A    between atoms: O_1  and  C_2
REMARK    2  A    between atoms: O_1  and  C_3
REMARK    3  A    between atoms: C_7  and  C_10
REMARK    4  A    between atoms: C_12  and  O_13
REMARK    5  A    between atoms: C_14  and  O_17
REMARK    6  A    between atoms: C_19  and  O_21
REMARK    7  A    between atoms: O_21  and  C_22
REMARK                            x       y       z     vdW  Elec       q    Type
REMARK                         _______ _______ _______ _____ _____    ______ ____
ROOT
ATOM      1  C   LIG A   1      -7.464   2.986 132.910  0.00  0.00    +0.130 A 
ATOM      2  C   LIG A   1      -8.227   4.058 132.414  0.00  0.00    +0.036 A 
ATOM      3  C   LIG A   1      -9.430   3.781 131.761  0.00  0.00    +0.132 A 
ATOM      4  O   LIG A   1     -10.267   4.726 131.244  0.00  0.00    -0.484 OA
ATOM      5  C   LIG A   1     -10.034   6.071 131.682  0.00  0.00    +0.204 C 
ATOM      6  C   LIG A   1      -8.545   6.409 131.626  0.00  0.00    +0.054 C 
ATOM      7  C   LIG A   1      -7.792   5.489 132.585  0.00  0.00    +0.046 C 
ATOM      8  C   LIG A   1      -9.851   2.472 131.558  0.00  0.00    +0.091 A 
ATOM      9  C   LIG A   1      -9.104   1.408 132.040  0.00  0.00    +0.127 A 
ATOM     10  C   LIG A   1      -7.911   1.666 132.729  0.00  0.00    +0.091 A 
ENDROOT
BRANCH   5  11
ATOM     11  C   LIG A   1     -10.863   6.988 130.796  0.00  0.00    -0.004 A 
ATOM     12  C   LIG A   1     -10.332   7.525 129.608  0.00  0.00    +0.056 A 
ATOM     13  C   LIG A   1     -11.110   8.350 128.805  0.00  0.00    +0.159 A 
ATOM     14  C   LIG A   1     -12.415   8.656 129.173  0.00  0.00    +0.158 A 
ATOM     15  C   LIG A   1     -12.960   8.146 130.340  0.00  0.00    +0.049 A 
ATOM     16  C   LIG A   1     -12.186   7.311 131.154  0.00  0.00    +0.011 A 
BRANCH  13  17
ATOM     17  O   LIG A   1     -10.630   8.887 127.642  0.00  0.00    -0.503 OA
ATOM     18  H   LIG A   1      -9.664   8.760 127.635  0.00  0.00    +0.292 HD
ENDBRANCH  13  17
BRANCH  14  19
ATOM     19  O   LIG A   1     -13.170   9.472 128.379  0.00  0.00    -0.503 OA
ATOM     20  H   LIG A   1     -12.795  10.362 128.520  0.00  0.00    +0.292 HD
ENDBRANCH  14  19
ENDBRANCH   5  11
BRANCH   1  21
ATOM     21  O   LIG A   1      -6.333   3.325 133.605  0.00  0.00    -0.495 OA
ATOM     22  C   LIG A   1      -5.131   2.684 133.196  0.00  0.00    +0.277 C 
ENDBRANCH   1  21
BRANCH   9  23
ATOM     23  O   LIG A   1      -9.453   0.089 131.904  0.00  0.00    -0.495 OA
ATOM     24  C   LIG A   1      -8.371  -0.844 131.948  0.00  0.00    +0.277 C 
ENDBRANCH   9  23
TORSDOF 5
ENDMDL
MODEL 4
REMARK VINA RESULT:      -6.9      1.503      3.075
REMARK  Name = NuBBE_1776
REMARK  7 active torsions:
REMARK  status: ('A' for Active; 'I' for Inactive)
REMARK    1  A    between atoms: O_1  and  C_2
REMARK    2  A    between atoms: O_1  and  C_3
REMARK    3  A    between atoms: C_7  and  C_10
REMARK    4  A    between atoms: C_12  and  O_13
REMARK    5  A    between atoms: C_14  and  O_17
REMARK    6  A    between atoms: C_19  and  O_21
REMARK    7  A    between atoms: O_21  and  C_22
REMARK                            x       y       z     vdW  Elec       q    Type
REMARK                         _______ _______ _______ _____ _____    ______ ____
ROOT
ATOM      1  C   LIG A   1      -8.174   0.561 125.996  0.00  0.00    +0.130 A 
ATOM      2  C   LIG A   1      -7.841   1.249 124.816  0.00  0.00    +0.036 A 
ATOM      3  C   LIG A   1      -6.689   2.038 124.801  0.00  0.00    +0.132 A 
ATOM      4  O   LIG A   1      -6.249   2.746 123.721  0.00  0.00    -0.484 OA
ATOM      5  C   LIG A   1      -6.840   2.396 122.463  0.00  0.00    +0.204 C 
ATOM      6  C   LIG A   1      -8.357   2.270 122.593  0.00  0.00    +0.054 C 
ATOM      7  C   LIG A   1      -8.678   1.140 123.569  0.00  0.00    +0.046 C 
ATOM      8  C   LIG A   1      -5.906   2.187 125.940  0.00  0.00    +0.091 A 
ATOM      9  C   LIG A   1      -6.229   1.517 127.110  0.00  0.00    +0.127 A 
ATOM     10  C   LIG A   1      -7.361   0.690 127.135  0.00  0.00    +0.091 A 
ENDROOT
BRANCH   5  11
ATOM     11  C   LIG A   1      -6.438   3.464 121.458  0.00  0.00    -0.004 A 
ATOM     12  C   LIG A   1      -5.360   4.332 121.713  0.00  0.00    +0.056 A 
ATOM     13  C   LIG A   1      -5.000   5.292 120.775  0.00  0.00    +0.159 A 
ATOM     14  C   LIG A   1      -5.706   5.408 119.583  0.00  0.00    +0.158 A 
ATOM     15  C   LIG A   1      -6.775   4.569 119.310  0.00  0.00    +0.049 A 
ATOM     16  C   LIG A   1      -7.144   3.596 120.246  0.00  0.00    +0.011 A 
BRANCH  13  17
ATOM     17  O   LIG A   1      -3.955   6.151 120.986  0.00  0.00    -0.503 OA
ATOM     18  H   LIG A   1      -3.137   5.686 120.739  0.00  0.00    +0.292 HD
ENDBRANCH  13  17
BRANCH  14  19
ATOM     19  O   LIG A   1      -5.348   6.358 118.671  0.00  0.00    -0.503 OA
ATOM     20  H   LIG A   1      -6.196   6.710 118.341  0.00  0.00    +0.292 HD
ENDBRANCH  14  19
ENDBRANCH   5  11
BRANCH   1  21
ATOM     21  O   LIG A   1      -9.272  -0.255 125.926  0.00  0.00    -0.495 OA
ATOM     22  C   LIG A   1      -9.013  -1.653 125.878  0.00  0.00    +0.277 C 
ENDBRANCH   1  21
BRANCH   9  23
ATOM     23  O   LIG A   1      -5.504   1.588 128.271  0.00  0.00    -0.495 OA
ATOM     24  C   LIG A   1      -5.759   0.552 129.223  0.00  0.00    +0.277 C 
ENDBRANCH   9  23
TORSDOF 5
ENDMDL
MODEL 5
REMARK VINA RESULT:      -6.8      2.725      4.359
REMARK  Name = NuBBE_1776
REMARK  7 active torsions:
REMARK  status: ('A' for Active; 'I' for Inactive)
REMARK    1  A    between atoms: O_1  and  C_2
REMARK    2  A    between atoms: O_1  and  C_3
REMARK    3  A    between atoms: C_7  and  C_10
REMARK    4  A    between atoms: C_12  and  O_13
REMARK    5  A    between atoms: C_14  and  O_17
REMARK    6  A    between atoms: C_19  and  O_21
REMARK    7  A    between atoms: O_21  and  C_22
REMARK                            x       y       z     vdW  Elec       q    Type
REMARK                         _______ _______ _______ _____ _____    ______ ____
ROOT
ATOM      1  C   LIG A   1      -6.947   2.458 126.981  0.00  0.00    +0.130 A 
ATOM      2  C   LIG A   1      -6.877   2.760 125.609  0.00  0.00    +0.036 A 
ATOM      3  C   LIG A   1      -5.783   3.489 125.137  0.00  0.00    +0.132 A 
ATOM      4  O   LIG A   1      -5.589   3.838 123.832  0.00  0.00    -0.484 OA
ATOM      5  C   LIG A   1      -6.397   3.141 122.874  0.00  0.00    +0.204 C 
ATOM      6  C   LIG A   1      -7.854   3.087 123.331  0.00  0.00    +0.054 C 
ATOM      7  C   LIG A   1      -7.933   2.302 124.639  0.00  0.00    +0.046 C 
ATOM      8  C   LIG A   1      -4.802   3.954 126.005  0.00  0.00    +0.091 A 
ATOM      9  C   LIG A   1      -4.864   3.666 127.359  0.00  0.00    +0.127 A 
ATOM     10  C   LIG A   1      -5.936   2.904 127.848  0.00  0.00    +0.091 A 
ENDROOT
BRANCH   5  11
ATOM     11  C   LIG A   1      -6.241   3.857 121.542  0.00  0.00    -0.004 A 
ATOM     12  C   LIG A   1      -7.252   3.799 120.563  0.00  0.00    +0.056 A 
ATOM     13  C   LIG A   1      -7.096   4.471 119.357  0.00  0.00    +0.159 A 
ATOM     14  C   LIG A   1      -5.939   5.199 119.105  0.00  0.00    +0.158 A 
ATOM     15  C   LIG A   1      -4.926   5.268 120.049  0.00  0.00    +0.049 A 
ATOM     16  C   LIG A   1      -5.075   4.598 121.268  0.00  0.00    +0.011 A 
BRANCH  13  17
ATOM     17  O   LIG A   1      -8.058   4.441 118.384  0.00  0.00    -0.503 OA
ATOM     18  H   LIG A   1      -7.870   3.678 117.808  0.00  0.00    +0.292 HD
ENDBRANCH  13  17
BRANCH  14  19
ATOM     19  O   LIG A   1      -5.794   5.852 117.915  0.00  0.00    -0.503 OA
ATOM     20  H   LIG A   1      -5.532   5.154 117.285  0.00  0.00    +0.292 HD
ENDBRANCH  14  19
ENDBRANCH   5  11
BRANCH   1  21
ATOM     21  O   LIG A   1      -8.003   1.678 127.370  0.00  0.00    -0.495 OA
ATOM     22  C   LIG A   1      -8.604   2.014 128.615  0.00  0.00    +0.277 C 
ENDBRANCH   1  21
BRANCH   9  23
ATOM     23  O   LIG A   1      -3.932   4.064 128.282  0.00  0.00    -0.495 OA
ATOM     24  C   LIG A   1      -2.588   4.156 127.803  0.00  0.00    +0.277 C 
ENDBRANCH   9  23
TORSDOF 5
ENDMDL
MODEL 6
REMARK VINA RESULT:      -6.6      3.780      9.717
REMARK  Name = NuBBE_1776
REMARK  7 active torsions:
REMARK  status: ('A' for Active; 'I' for Inactive)
REMARK    1  A    between atoms: O_1  and  C_2
REMARK    2  A    between atoms: O_1  and  C_3
REMARK    3  A    between atoms: C_7  and  C_10
REMARK    4  A    between atoms: C_12  and  O_13
REMARK    5  A    between atoms: C_14  and  O_17
REMARK    6  A    between atoms: C_19  and  O_21
REMARK    7  A    between atoms: O_21  and  C_22
REMARK                            x       y       z     vdW  Elec       q    Type
REMARK                         _______ _______ _______ _____ _____    ______ ____
ROOT
ATOM      1  C   LIG A   1      -8.785  -1.908 125.217  0.00  0.00    +0.130 A 
ATOM      2  C   LIG A   1      -8.446  -2.358 126.505  0.00  0.00    +0.036 A 
ATOM      3  C   LIG A   1      -7.465  -1.669 127.221  0.00  0.00    +0.132 A 
ATOM      4  O   LIG A   1      -7.052  -1.993 128.480  0.00  0.00    -0.484 OA
ATOM      5  C   LIG A   1      -7.903  -2.894 129.202  0.00  0.00    +0.204 C 
ATOM      6  C   LIG A   1      -8.317  -4.071 128.321  0.00  0.00    +0.054 C 
ATOM      7  C   LIG A   1      -9.125  -3.544 127.138  0.00  0.00    +0.046 C 
ATOM      8  C   LIG A   1      -6.794  -0.587 126.661  0.00  0.00    +0.091 A 
ATOM      9  C   LIG A   1      -7.118  -0.139 125.390  0.00  0.00    +0.127 A 
ATOM     10  C   LIG A   1      -8.126  -0.795 124.669  0.00  0.00    +0.091 A 
ENDROOT
BRANCH   5  11
ATOM     11  C   LIG A   1      -7.143  -3.344 130.440  0.00  0.00    -0.004 A 
ATOM     12  C   LIG A   1      -7.443  -2.815 131.709  0.00  0.00    +0.056 A 
ATOM     13  C   LIG A   1      -6.746  -3.250 132.830  0.00  0.00    +0.159 A 
ATOM     14  C   LIG A   1      -5.743  -4.205 132.705  0.00  0.00    +0.158 A 
ATOM     15  C   LIG A   1      -5.424  -4.737 131.466  0.00  0.00    +0.049 A 
ATOM     16  C   LIG A   1      -6.122  -4.309 130.331  0.00  0.00    +0.011 A 
BRANCH  13  17
ATOM     17  O   LIG A   1      -7.013  -2.762 134.081  0.00  0.00    -0.503 OA
ATOM     18  H   LIG A   1      -6.856  -1.801 134.061  0.00  0.00    +0.292 HD
ENDBRANCH  13  17
BRANCH  14  19
ATOM     19  O   LIG A   1      -5.061  -4.622 133.812  0.00  0.00    -0.503 OA
ATOM     20  H   LIG A   1      -4.325  -3.985 133.897  0.00  0.00    +0.292 HD
ENDBRANCH  14  19
ENDBRANCH   5  11
BRANCH   1  21
ATOM     21  O   LIG A   1      -9.805  -2.578 124.596  0.00  0.00    -0.495 OA
ATOM     22  C   LIG A   1      -9.480  -3.215 123.366  0.00  0.00    +0.277 C 
ENDBRANCH   1  21
BRANCH   9  23
ATOM     23  O   LIG A   1      -6.526   0.930 124.769  0.00  0.00    -0.495 OA
ATOM     24  C   LIG A   1      -7.156   1.373 123.564  0.00  0.00    +0.277 C 
ENDBRANCH   9  23
TORSDOF 5
ENDMDL
MODEL 7
REMARK VINA RESULT:      -6.4      8.352     10.137
REMARK  Name = NuBBE_1776
REMARK  7 active torsions:
REMARK  status: ('A' for Active; 'I' for Inactive)
REMARK    1  A    between atoms: O_1  and  C_2
REMARK    2  A    between atoms: O_1  and  C_3
REMARK    3  A    between atoms: C_7  and  C_10
REMARK    4  A    between atoms: C_12  and  O_13
REMARK    5  A    between atoms: C_14  and  O_17
REMARK    6  A    between atoms: C_19  and  O_21
REMARK    7  A    between atoms: O_21  and  C_22
REMARK                            x       y       z     vdW  Elec       q    Type
REMARK                         _______ _______ _______ _____ _____    ______ ____
ROOT
ATOM      1  C   LIG A   1      -8.082   2.009 132.688  0.00  0.00    +0.130 A 
ATOM      2  C   LIG A   1      -8.800   3.012 132.013  0.00  0.00    +0.036 A 
ATOM      3  C   LIG A   1      -8.678   4.334 132.448  0.00  0.00    +0.132 A 
ATOM      4  O   LIG A   1      -9.310   5.399 131.876  0.00  0.00    -0.484 OA
ATOM      5  C   LIG A   1      -9.869   5.168 130.576  0.00  0.00    +0.204 C 
ATOM      6  C   LIG A   1     -10.642   3.850 130.545  0.00  0.00    +0.054 C 
ATOM      7  C   LIG A   1      -9.675   2.703 130.827  0.00  0.00    +0.046 C 
ATOM      8  C   LIG A   1      -7.904   4.656 133.556  0.00  0.00    +0.091 A 
ATOM      9  C   LIG A   1      -7.195   3.674 134.231  0.00  0.00    +0.127 A 
ATOM     10  C   LIG A   1      -7.275   2.346 133.788  0.00  0.00    +0.091 A 
ENDROOT
BRANCH   5  11
ATOM     11  C   LIG A   1     -10.754   6.359 130.243  0.00  0.00    -0.004 A 
ATOM     12  C   LIG A   1     -10.479   7.182 129.134  0.00  0.00    +0.056 A 
ATOM     13  C   LIG A   1     -11.308   8.256 128.839  0.00  0.00    +0.159 A 
ATOM     14  C   LIG A   1     -12.411   8.532 129.639  0.00  0.00    +0.158 A 
ATOM     15  C   LIG A   1     -12.701   7.741 130.740  0.00  0.00    +0.049 A 
ATOM     16  C   LIG A   1     -11.875   6.654 131.044  0.00  0.00    +0.011 A 
BRANCH  13  17
ATOM     17  O   LIG A   1     -11.074   9.076 127.768  0.00  0.00    -0.503 OA
ATOM     18  H   LIG A   1     -10.315   9.644 127.992  0.00  0.00    +0.292 HD
ENDBRANCH  13  17
BRANCH  14  19
ATOM     19  O   LIG A   1     -13.216   9.594 129.343  0.00  0.00    -0.503 OA
ATOM     20  H   LIG A   1     -14.119   9.223 129.355  0.00  0.00    +0.292 HD
ENDBRANCH  14  19
ENDBRANCH   5  11
BRANCH   1  21
ATOM     21  O   LIG A   1      -8.183   0.746 132.169  0.00  0.00    -0.495 OA
ATOM     22  C   LIG A   1      -6.977   0.168 131.685  0.00  0.00    +0.277 C 
ENDBRANCH   1  21
BRANCH   9  23
ATOM     23  O   LIG A   1      -6.392   3.904 135.317  0.00  0.00    -0.495 OA
ATOM     24  C   LIG A   1      -6.530   5.190 135.928  0.00  0.00    +0.277 C 
ENDBRANCH   9  23
TORSDOF 5
ENDMDL
MODEL 8
REMARK VINA RESULT:      -6.4      5.020      7.781
REMARK  Name = NuBBE_1776
REMARK  7 active torsions:
REMARK  status: ('A' for Active; 'I' for Inactive)
REMARK    1  A    between atoms: O_1  and  C_2
REMARK    2  A    between atoms: O_1  and  C_3
REMARK    3  A    between atoms: C_7  and  C_10
REMARK    4  A    between atoms: C_12  and  O_13
REMARK    5  A    between atoms: C_14  and  O_17
REMARK    6  A    between atoms: C_19  and  O_21
REMARK    7  A    between atoms: O_21  and  C_22
REMARK                            x       y       z     vdW  Elec       q    Type
REMARK                         _______ _______ _______ _____ _____    ______ ____
ROOT
ATOM      1  C   LIG A   1      -7.663  -1.771 131.984  0.00  0.00    +0.130 A 
ATOM      2  C   LIG A   1      -7.614  -1.990 130.596  0.00  0.00    +0.036 A 
ATOM      3  C   LIG A   1      -7.698  -0.890 129.739  0.00  0.00    +0.132 A 
ATOM      4  O   LIG A   1      -7.652  -0.963 128.378  0.00  0.00    -0.484 OA
ATOM      5  C   LIG A   1      -7.177  -2.202 127.835  0.00  0.00    +0.204 C 
ATOM      6  C   LIG A   1      -7.837  -3.389 128.536  0.00  0.00    +0.054 C 
ATOM      7  C   LIG A   1      -7.451  -3.369 130.013  0.00  0.00    +0.046 C 
ATOM      8  C   LIG A   1      -7.877   0.395 130.237  0.00  0.00    +0.091 A 
ATOM      9  C   LIG A   1      -7.932   0.621 131.603  0.00  0.00    +0.127 A 
ATOM     10  C   LIG A   1      -7.812  -0.466 132.482  0.00  0.00    +0.091 A 
ENDROOT
BRANCH   5  11
ATOM     11  C   LIG A   1      -7.465  -2.186 126.342  0.00  0.00    -0.004 A 
ATOM     12  C   LIG A   1      -8.640  -2.763 125.823  0.00  0.00    +0.056 A 
ATOM     13  C   LIG A   1      -8.891  -2.725 124.457  0.00  0.00    +0.159 A 
ATOM     14  C   LIG A   1      -7.981  -2.125 123.593  0.00  0.00    +0.158 A 
ATOM     15  C   LIG A   1      -6.814  -1.556 124.078  0.00  0.00    +0.049 A 
ATOM     16  C   LIG A   1      -6.554  -1.585 125.452  0.00  0.00    +0.011 A 
BRANCH  13  17
ATOM     17  O   LIG A   1     -10.023  -3.271 123.915  0.00  0.00    -0.503 OA
ATOM     18  H   LIG A   1     -10.310  -2.692 123.187  0.00  0.00    +0.292 HD
ENDBRANCH  13  17
BRANCH  14  19
ATOM     19  O   LIG A   1      -8.235  -2.098 122.251  0.00  0.00    -0.503 OA
ATOM     20  H   LIG A   1      -8.824  -1.329 122.132  0.00  0.00    +0.292 HD
ENDBRANCH  14  19
ENDBRANCH   5  11
BRANCH   1  21
ATOM     21  O   LIG A   1      -7.500  -2.879 132.772  0.00  0.00    -0.495 OA
ATOM     22  C   LIG A   1      -8.284  -2.924 133.959  0.00  0.00    +0.277 C 
ENDBRANCH   1  21
BRANCH   9  23
ATOM     23  O   LIG A   1      -8.084   1.855 132.182  0.00  0.00    -0.495 OA
ATOM     24  C   LIG A   1      -9.427   2.221 132.511  0.00  0.00    +0.277 C 
ENDBRANCH   9  23
TORSDOF 5
ENDMDL
MODEL 9
REMARK VINA RESULT:      -6.3      3.698      5.151
REMARK  Name = NuBBE_1776
REMARK  7 active torsions:
REMARK  status: ('A' for Active; 'I' for Inactive)
REMARK    1  A    between atoms: O_1  and  C_2
REMARK    2  A    between atoms: O_1  and  C_3
REMARK    3  A    between atoms: C_7  and  C_10
REMARK    4  A    between atoms: C_12  and  O_13
REMARK    5  A    between atoms: C_14  and  O_17
REMARK    6  A    between atoms: C_19  and  O_21
REMARK    7  A    between atoms: O_21  and  C_22
REMARK                            x       y       z     vdW  Elec       q    Type
REMARK                         _______ _______ _______ _____ _____    ______ ____
ROOT
ATOM      1  C   LIG A   1      -8.490  -0.743 125.255  0.00  0.00    +0.130 A 
ATOM      2  C   LIG A   1      -7.506   0.239 125.461  0.00  0.00    +0.036 A 
ATOM      3  C   LIG A   1      -6.679   0.137 126.582  0.00  0.00    +0.132 A 
ATOM      4  O   LIG A   1      -5.681   1.015 126.892  0.00  0.00    -0.484 OA
ATOM      5  C   LIG A   1      -5.276   1.895 125.835  0.00  0.00    +0.204 C 
ATOM      6  C   LIG A   1      -6.492   2.502 125.138  0.00  0.00    +0.054 C 
ATOM      7  C   LIG A   1      -7.307   1.379 124.498  0.00  0.00    +0.046 C 
ATOM      8  C   LIG A   1      -6.850  -0.884 127.510  0.00  0.00    +0.091 A 
ATOM      9  C   LIG A   1      -7.820  -1.855 127.318  0.00  0.00    +0.127 A 
ATOM     10  C   LIG A   1      -8.637  -1.791 126.180  0.00  0.00    +0.091 A 
ENDROOT
BRANCH   5  11
ATOM     11  C   LIG A   1      -4.378   2.958 126.448  0.00  0.00    -0.004 A 
ATOM     12  C   LIG A   1      -4.903   4.191 126.880  0.00  0.00    +0.056 A 
ATOM     13  C   LIG A   1      -4.068   5.144 127.451  0.00  0.00    +0.159 A 
ATOM     14  C   LIG A   1      -2.708   4.891 127.592  0.00  0.00    +0.158 A 
ATOM     15  C   LIG A   1      -2.165   3.688 127.169  0.00  0.00    +0.049 A 
ATOM     16  C   LIG A   1      -2.998   2.720 126.597  0.00  0.00    +0.011 A 
BRANCH  13  17
ATOM     17  O   LIG A   1      -4.542   6.352 127.886  0.00  0.00    -0.503 OA
ATOM     18  H   LIG A   1      -4.626   6.933 127.109  0.00  0.00    +0.292 HD
ENDBRANCH  13  17
BRANCH  14  19
ATOM     19  O   LIG A   1      -1.895   5.836 128.149  0.00  0.00    -0.503 OA
ATOM     20  H   LIG A   1      -2.378   6.675 128.022  0.00  0.00    +0.292 HD
ENDBRANCH  14  19
ENDBRANCH   5  11
BRANCH   1  21
ATOM     21  O   LIG A   1      -9.219  -0.631 124.101  0.00  0.00    -0.495 OA
ATOM     22  C   LIG A   1      -9.048  -1.673 123.148  0.00  0.00    +0.277 C 
ENDBRANCH   1  21
BRANCH   9  23
ATOM     23  O   LIG A   1      -8.044  -2.907 128.167  0.00  0.00    -0.495 OA
ATOM     24  C   LIG A   1      -8.945  -3.908 127.687  0.00  0.00    +0.277 C 
ENDBRANCH   9  23
TORSDOF 5
ENDMDL
