MODEL 1
REMARK VINA RESULT:      -8.0      0.000      0.000
REMARK  Name = NuBBE_11
REMARK  11 active torsions:
REMARK  status: ('A' for Active; 'I' for Inactive)
REMARK    1  A    between atoms: O_1  and  C_2
REMARK    2  A    between atoms: O_1  and  C_17
REMARK    3  A    between atoms: C_4  and  O_6
REMARK    4  A    between atoms: C_7  and  O_9
REMARK    5  A    between atoms: C_10  and  O_16
REMARK    6  A    between atoms: C_12  and  C_15
REMARK    7  A    between atoms: C_19  and  C_32
REMARK    8  A    between atoms: C_26  and  O_27
REMARK    9  A    between atoms: C_29  and  O_31
REMARK   10  A    between atoms: C_34  and  O_35
REMARK   11  A    between atoms: C_36  and  O_39
REMARK                            x       y       z     vdW  Elec       q    Type
REMARK                         _______ _______ _______ _____ _____    ______ ____
ROOT
ATOM      1  C   LIG A   1      -8.317   0.991 126.177  0.00  0.00    +0.237 C 
ATOM      2  C   LIG A   1      -7.096   0.650 127.054  0.00  0.00    +0.240 C 
ATOM      3  O   LIG A   1      -6.170  -0.238 126.390  0.00  0.00    -0.480 OA
ATOM      4  C   LIG A   1      -6.708  -1.247 125.640  0.00  0.00    +0.139 A 
ATOM      5  C   LIG A   1      -8.071  -1.394 125.378  0.00  0.00    +0.103 A 
ATOM      6  C   LIG A   1      -8.973  -0.308 125.772  0.00  0.00    +0.203 C 
ATOM      7  O   LIG A   1     -10.195  -0.443 125.666  0.00  0.00    -0.289 OA
ATOM      8  C   LIG A   1      -8.547  -2.544 124.737  0.00  0.00    +0.134 A 
ATOM      9  C   LIG A   1      -7.654  -3.509 124.280  0.00  0.00    +0.091 A 
ATOM     10  C   LIG A   1      -6.290  -3.318 124.479  0.00  0.00    +0.124 A 
ATOM     11  C   LIG A   1      -5.813  -2.205 125.169  0.00  0.00    +0.092 A 
ENDROOT
BRANCH   2  12
ATOM     12  C   LIG A   1      -7.439   0.188 128.470  0.00  0.00    -0.001 A 
ATOM     13  C   LIG A   1      -7.123  -1.102 128.930  0.00  0.00    +0.056 A 
ATOM     14  C   LIG A   1      -7.454  -1.492 130.221  0.00  0.00    +0.159 A 
ATOM     15  C   LIG A   1      -8.089  -0.608 131.082  0.00  0.00    +0.158 A 
ATOM     16  C   LIG A   1      -8.418   0.669 130.660  0.00  0.00    +0.049 A 
ATOM     17  C   LIG A   1      -8.102   1.066 129.354  0.00  0.00    +0.011 A 
BRANCH  14  18
ATOM     18  O   LIG A   1      -7.168  -2.747 130.685  0.00  0.00    -0.503 OA
ATOM     19  H   LIG A   1      -7.790  -3.374 130.276  0.00  0.00    +0.292 HD
ENDBRANCH  14  18
BRANCH  15  20
ATOM     20  O   LIG A   1      -8.392  -1.000 132.353  0.00  0.00    -0.503 OA
ATOM     21  H   LIG A   1      -9.219  -1.515 132.260  0.00  0.00    +0.292 HD
ENDBRANCH  15  20
ENDBRANCH   2  12
BRANCH   8  22
ATOM     22  O   LIG A   1      -9.877  -2.788 124.531  0.00  0.00    -0.506 OA
ATOM     23  H   LIG A   1     -10.308  -2.946 125.401  0.00  0.00    +0.292 HD
ENDBRANCH   8  22
BRANCH  10  24
ATOM     24  O   LIG A   1      -5.375  -4.217 124.019  0.00  0.00    -0.506 OA
ATOM     25  H   LIG A   1      -5.314  -4.956 124.648  0.00  0.00    +0.292 HD
ENDBRANCH  10  24
BRANCH   1  26
ATOM     26  O   LIG A   1      -7.851   1.731 125.044  0.00  0.00    -0.334 OA
BRANCH  26  27
ATOM     27  C   LIG A   1      -8.473   2.988 124.795  0.00  0.00    +0.283 C 
ATOM     28  C   LIG A   1      -7.864   4.162 125.578  0.00  0.00    +0.201 C 
ATOM     29  C   LIG A   1      -6.376   4.254 125.234  0.00  0.00    +0.179 C 
ATOM     30  C   LIG A   1      -6.165   4.396 123.721  0.00  0.00    +0.174 C 
ATOM     31  C   LIG A   1      -6.992   3.359 122.940  0.00  0.00    +0.149 C 
ATOM     32  O   LIG A   1      -8.358   3.307 123.393  0.00  0.00    -0.343 OA
ATOM     33  C   LIG A   1      -7.017   3.702 121.452  0.00  0.00    +0.040 C 
BRANCH  28  34
ATOM     34  O   LIG A   1      -8.495   5.410 125.228  0.00  0.00    -0.384 OA
ATOM     35  H   LIG A   1      -9.023   5.248 124.420  0.00  0.00    +0.210 HD
ENDBRANCH  28  34
BRANCH  29  36
ATOM     36  O   LIG A   1      -5.785   5.388 125.889  0.00  0.00    -0.386 OA
ATOM     37  H   LIG A   1      -5.270   5.023 126.638  0.00  0.00    +0.210 HD
ENDBRANCH  29  36
BRANCH  30  38
ATOM     38  O   LIG A   1      -4.771   4.255 123.430  0.00  0.00    -0.387 OA
ATOM     39  H   LIG A   1      -4.721   3.638 122.672  0.00  0.00    +0.210 HD
ENDBRANCH  30  38
ENDBRANCH  26  27
ENDBRANCH   1  26
TORSDOF 10
ENDMDL
MODEL 2
REMARK VINA RESULT:      -7.8      4.750      8.146
REMARK  Name = NuBBE_11
REMARK  11 active torsions:
REMARK  status: ('A' for Active; 'I' for Inactive)
REMARK    1  A    between atoms: O_1  and  C_2
REMARK    2  A    between atoms: O_1  and  C_17
REMARK    3  A    between atoms: C_4  and  O_6
REMARK    4  A    between atoms: C_7  and  O_9
REMARK    5  A    between atoms: C_10  and  O_16
REMARK    6  A    between atoms: C_12  and  C_15
REMARK    7  A    between atoms: C_19  and  C_32
REMARK    8  A    between atoms: C_26  and  O_27
REMARK    9  A    between atoms: C_29  and  O_31
REMARK   10  A    between atoms: C_34  and  O_35
REMARK   11  A    between atoms: C_36  and  O_39
REMARK                            x       y       z     vdW  Elec       q    Type
REMARK                         _______ _______ _______ _____ _____    ______ ____
ROOT
ATOM      1  C   LIG A   1      -8.671   4.888 129.210  0.00  0.00    +0.237 C 
ATOM      2  C   LIG A   1      -8.627   6.339 129.728  0.00  0.00    +0.240 C 
ATOM      3  O   LIG A   1      -7.986   6.446 131.018  0.00  0.00    -0.480 OA
ATOM      4  C   LIG A   1      -8.254   5.459 131.927  0.00  0.00    +0.139 A 
ATOM      5  C   LIG A   1      -8.996   4.310 131.649  0.00  0.00    +0.103 A 
ATOM      6  C   LIG A   1      -9.363   4.045 130.254  0.00  0.00    +0.203 C 
ATOM      7  O   LIG A   1     -10.114   3.106 129.976  0.00  0.00    -0.289 OA
ATOM      8  C   LIG A   1      -9.355   3.435 132.680  0.00  0.00    +0.134 A 
ATOM      9  C   LIG A   1      -8.903   3.660 133.976  0.00  0.00    +0.091 A 
ATOM     10  C   LIG A   1      -8.100   4.768 134.231  0.00  0.00    +0.124 A 
ATOM     11  C   LIG A   1      -7.787   5.676 133.222  0.00  0.00    +0.092 A 
ENDROOT
BRANCH   2  12
ATOM     12  C   LIG A   1      -9.967   7.074 129.677  0.00  0.00    -0.001 A 
ATOM     13  C   LIG A   1     -10.966   6.871 130.646  0.00  0.00    +0.056 A 
ATOM     14  C   LIG A   1     -12.175   7.550 130.567  0.00  0.00    +0.159 A 
ATOM     15  C   LIG A   1     -12.409   8.451 129.539  0.00  0.00    +0.158 A 
ATOM     16  C   LIG A   1     -11.449   8.673 128.566  0.00  0.00    +0.049 A 
ATOM     17  C   LIG A   1     -10.233   7.980 128.628  0.00  0.00    +0.011 A 
BRANCH  14  18
ATOM     18  O   LIG A   1     -13.165   7.358 131.491  0.00  0.00    -0.503 OA
ATOM     19  H   LIG A   1     -13.458   6.431 131.438  0.00  0.00    +0.292 HD
ENDBRANCH  14  18
BRANCH  15  20
ATOM     20  O   LIG A   1     -13.595   9.124 129.484  0.00  0.00    -0.503 OA
ATOM     21  H   LIG A   1     -13.569   9.728 130.254  0.00  0.00    +0.292 HD
ENDBRANCH  15  20
ENDBRANCH   2  12
BRANCH   8  22
ATOM     22  O   LIG A   1     -10.155   2.342 132.486  0.00  0.00    -0.506 OA
ATOM     23  H   LIG A   1      -9.808   1.597 133.027  0.00  0.00    +0.292 HD
ENDBRANCH   8  22
BRANCH  10  24
ATOM     24  O   LIG A   1      -7.603   5.010 135.477  0.00  0.00    -0.506 OA
ATOM     25  H   LIG A   1      -6.858   4.407 135.642  0.00  0.00    +0.292 HD
ENDBRANCH  10  24
BRANCH   1  26
ATOM     26  O   LIG A   1      -7.324   4.462 128.982  0.00  0.00    -0.334 OA
BRANCH  26  27
ATOM     27  C   LIG A   1      -7.143   3.292 128.192  0.00  0.00    +0.283 C 
ATOM     28  C   LIG A   1      -8.110   3.175 127.002  0.00  0.00    +0.201 C 
ATOM     29  C   LIG A   1      -7.945   4.413 126.120  0.00  0.00    +0.179 C 
ATOM     30  C   LIG A   1      -6.489   4.581 125.668  0.00  0.00    +0.174 C 
ATOM     31  C   LIG A   1      -5.514   4.442 126.852  0.00  0.00    +0.149 C 
ATOM     32  O   LIG A   1      -5.805   3.282 127.654  0.00  0.00    -0.343 OA
ATOM     33  C   LIG A   1      -4.078   4.303 126.352  0.00  0.00    +0.040 C 
BRANCH  28  34
ATOM     34  O   LIG A   1      -7.827   2.004 126.209  0.00  0.00    -0.384 OA
ATOM     35  H   LIG A   1      -8.637   1.455 126.209  0.00  0.00    +0.210 HD
ENDBRANCH  28  34
BRANCH  29  36
ATOM     36  O   LIG A   1      -8.779   4.307 124.955  0.00  0.00    -0.386 OA
ATOM     37  H   LIG A   1      -8.306   3.705 124.344  0.00  0.00    +0.210 HD
ENDBRANCH  29  36
BRANCH  30  38
ATOM     38  O   LIG A   1      -6.341   5.859 125.040  0.00  0.00    -0.387 OA
ATOM     39  H   LIG A   1      -6.921   5.835 124.252  0.00  0.00    +0.210 HD
ENDBRANCH  30  38
ENDBRANCH  26  27
ENDBRANCH   1  26
TORSDOF 10
ENDMDL
MODEL 3
REMARK VINA RESULT:      -7.7      2.267      6.013
REMARK  Name = NuBBE_11
REMARK  11 active torsions:
REMARK  status: ('A' for Active; 'I' for Inactive)
REMARK    1  A    between atoms: O_1  and  C_2
REMARK    2  A    between atoms: O_1  and  C_17
REMARK    3  A    between atoms: C_4  and  O_6
REMARK    4  A    between atoms: C_7  and  O_9
REMARK    5  A    between atoms: C_10  and  O_16
REMARK    6  A    between atoms: C_12  and  C_15
REMARK    7  A    between atoms: C_19  and  C_32
REMARK    8  A    between atoms: C_26  and  O_27
REMARK    9  A    between atoms: C_29  and  O_31
REMARK   10  A    between atoms: C_34  and  O_35
REMARK   11  A    between atoms: C_36  and  O_39
REMARK                            x       y       z     vdW  Elec       q    Type
REMARK                         _______ _______ _______ _____ _____    ______ ____
ROOT
ATOM      1  C   LIG A   1      -7.170   0.462 127.857  0.00  0.00    +0.237 C 
ATOM      2  C   LIG A   1      -8.451   1.313 127.954  0.00  0.00    +0.240 C 
ATOM      3  O   LIG A   1      -8.483   2.379 126.980  0.00  0.00    -0.480 OA
ATOM      4  C   LIG A   1      -7.306   3.036 126.742  0.00  0.00    +0.139 A 
ATOM      5  C   LIG A   1      -6.073   2.665 127.280  0.00  0.00    +0.103 A 
ATOM      6  C   LIG A   1      -5.987   1.390 127.999  0.00  0.00    +0.203 C 
ATOM      7  O   LIG A   1      -4.949   1.076 128.589  0.00  0.00    -0.289 OA
ATOM      8  C   LIG A   1      -4.954   3.488 127.112  0.00  0.00    +0.134 A 
ATOM      9  C   LIG A   1      -5.044   4.639 126.336  0.00  0.00    +0.091 A 
ATOM     10  C   LIG A   1      -6.260   4.961 125.740  0.00  0.00    +0.124 A 
ATOM     11  C   LIG A   1      -7.393   4.179 125.951  0.00  0.00    +0.092 A 
ENDROOT
BRANCH   2  12
ATOM     12  C   LIG A   1      -8.788   1.797 129.364  0.00  0.00    -0.001 A 
ATOM     13  C   LIG A   1      -9.388   3.047 129.600  0.00  0.00    +0.056 A 
ATOM     14  C   LIG A   1      -9.675   3.460 130.895  0.00  0.00    +0.159 A 
ATOM     15  C   LIG A   1      -9.388   2.638 131.975  0.00  0.00    +0.158 A 
ATOM     16  C   LIG A   1      -8.794   1.402 131.779  0.00  0.00    +0.049 A 
ATOM     17  C   LIG A   1      -8.486   0.985 130.478  0.00  0.00    +0.011 A 
BRANCH  14  18
ATOM     18  O   LIG A   1     -10.246   4.677 131.147  0.00  0.00    -0.503 OA
ATOM     19  H   LIG A   1      -9.785   5.081 131.903  0.00  0.00    +0.292 HD
ENDBRANCH  14  18
BRANCH  15  20
ATOM     20  O   LIG A   1      -9.692   3.050 133.239  0.00  0.00    -0.503 OA
ATOM     21  H   LIG A   1     -10.637   3.299 133.195  0.00  0.00    +0.292 HD
ENDBRANCH  15  20
ENDBRANCH   2  12
BRANCH   8  22
ATOM     22  O   LIG A   1      -3.741   3.225 127.688  0.00  0.00    -0.506 OA
ATOM     23  H   LIG A   1      -3.208   4.052 127.692  0.00  0.00    +0.292 HD
ENDBRANCH   8  22
BRANCH  10  24
ATOM     24  O   LIG A   1      -6.387   6.058 124.942  0.00  0.00    -0.506 OA
ATOM     25  H   LIG A   1      -7.022   5.860 124.232  0.00  0.00    +0.292 HD
ENDBRANCH  10  24
BRANCH   1  26
ATOM     26  O   LIG A   1      -7.180  -0.204 126.590  0.00  0.00    -0.334 OA
BRANCH  26  27
ATOM     27  C   LIG A   1      -7.904  -1.427 126.510  0.00  0.00    +0.283 C 
ATOM     28  C   LIG A   1      -9.118  -1.384 125.568  0.00  0.00    +0.201 C 
ATOM     29  C   LIG A   1      -8.634  -0.988 124.172  0.00  0.00    +0.179 C 
ATOM     30  C   LIG A   1      -7.546  -1.945 123.670  0.00  0.00    +0.174 C 
ATOM     31  C   LIG A   1      -6.461  -2.171 124.739  0.00  0.00    +0.149 C 
ATOM     32  O   LIG A   1      -7.030  -2.468 126.028  0.00  0.00    -0.343 OA
ATOM     33  C   LIG A   1      -5.564  -3.345 124.355  0.00  0.00    +0.040 C 
BRANCH  28  34
ATOM     34  O   LIG A   1      -9.763  -2.670 125.483  0.00  0.00    -0.384 OA
ATOM     35  H   LIG A   1      -9.426  -3.107 124.675  0.00  0.00    +0.210 HD
ENDBRANCH  28  34
BRANCH  29  36
ATOM     36  O   LIG A   1      -9.729  -1.009 123.242  0.00  0.00    -0.386 OA
ATOM     37  H   LIG A   1      -9.807  -1.939 122.944  0.00  0.00    +0.210 HD
ENDBRANCH  29  36
BRANCH  30  38
ATOM     38  O   LIG A   1      -6.972  -1.412 122.473  0.00  0.00    -0.387 OA
ATOM     39  H   LIG A   1      -6.143  -0.973 122.750  0.00  0.00    +0.210 HD
ENDBRANCH  30  38
ENDBRANCH  26  27
ENDBRANCH   1  26
TORSDOF 10
ENDMDL
MODEL 4
REMARK VINA RESULT:      -7.5      3.007      5.442
REMARK  Name = NuBBE_11
REMARK  11 active torsions:
REMARK  status: ('A' for Active; 'I' for Inactive)
REMARK    1  A    between atoms: O_1  and  C_2
REMARK    2  A    between atoms: O_1  and  C_17
REMARK    3  A    between atoms: C_4  and  O_6
REMARK    4  A    between atoms: C_7  and  O_9
REMARK    5  A    between atoms: C_10  and  O_16
REMARK    6  A    between atoms: C_12  and  C_15
REMARK    7  A    between atoms: C_19  and  C_32
REMARK    8  A    between atoms: C_26  and  O_27
REMARK    9  A    between atoms: C_29  and  O_31
REMARK   10  A    between atoms: C_34  and  O_35
REMARK   11  A    between atoms: C_36  and  O_39
REMARK                            x       y       z     vdW  Elec       q    Type
REMARK                         _______ _______ _______ _____ _____    ______ ____
ROOT
ATOM      1  C   LIG A   1      -8.021   2.714 127.395  0.00  0.00    +0.237 C 
ATOM      2  C   LIG A   1      -8.096   4.114 128.036  0.00  0.00    +0.240 C 
ATOM      3  O   LIG A   1      -6.897   4.889 127.815  0.00  0.00    -0.480 OA
ATOM      4  C   LIG A   1      -5.705   4.222 127.896  0.00  0.00    +0.139 A 
ATOM      5  C   LIG A   1      -5.583   2.840 128.051  0.00  0.00    +0.103 A 
ATOM      6  C   LIG A   1      -6.795   2.022 127.941  0.00  0.00    +0.203 C 
ATOM      7  O   LIG A   1      -6.754   0.813 128.184  0.00  0.00    -0.289 OA
ATOM      8  C   LIG A   1      -4.330   2.264 128.285  0.00  0.00    +0.134 A 
ATOM      9  C   LIG A   1      -3.185   3.056 128.280  0.00  0.00    +0.091 A 
ATOM     10  C   LIG A   1      -3.309   4.423 128.049  0.00  0.00    +0.124 A 
ATOM     11  C   LIG A   1      -4.558   5.013 127.874  0.00  0.00    +0.092 A 
ENDROOT
BRANCH   2  12
ATOM     12  C   LIG A   1      -8.537   4.121 129.499  0.00  0.00    -0.001 A 
ATOM     13  C   LIG A   1      -9.337   3.099 130.041  0.00  0.00    +0.056 A 
ATOM     14  C   LIG A   1      -9.726   3.138 131.374  0.00  0.00    +0.159 A 
ATOM     15  C   LIG A   1      -9.317   4.179 132.196  0.00  0.00    +0.158 A 
ATOM     16  C   LIG A   1      -8.532   5.202 131.694  0.00  0.00    +0.049 A 
ATOM     17  C   LIG A   1      -8.149   5.180 130.347  0.00  0.00    +0.011 A 
BRANCH  14  18
ATOM     18  O   LIG A   1     -10.515   2.161 131.918  0.00  0.00    -0.503 OA
ATOM     19  H   LIG A   1     -10.777   2.443 132.813  0.00  0.00    +0.292 HD
ENDBRANCH  14  18
BRANCH  15  20
ATOM     20  O   LIG A   1      -9.692   4.194 133.507  0.00  0.00    -0.503 OA
ATOM     21  H   LIG A   1     -10.607   4.543 133.497  0.00  0.00    +0.292 HD
ENDBRANCH  15  20
ENDBRANCH   2  12
BRANCH   8  22
ATOM     22  O   LIG A   1      -4.155   0.930 128.533  0.00  0.00    -0.506 OA
ATOM     23  H   LIG A   1      -3.411   0.821 129.167  0.00  0.00    +0.292 HD
ENDBRANCH   8  22
BRANCH  10  24
ATOM     24  O   LIG A   1      -2.214   5.234 127.999  0.00  0.00    -0.506 OA
ATOM     25  H   LIG A   1      -1.432   4.695 127.789  0.00  0.00    +0.292 HD
ENDBRANCH  10  24
BRANCH   1  26
ATOM     26  O   LIG A   1      -7.954   2.884 125.976  0.00  0.00    -0.334 OA
BRANCH  26  27
ATOM     27  C   LIG A   1      -7.335   1.841 125.230  0.00  0.00    +0.283 C 
ATOM     28  C   LIG A   1      -8.303   1.023 124.360  0.00  0.00    +0.201 C 
ATOM     29  C   LIG A   1      -9.016   1.978 123.401  0.00  0.00    +0.179 C 
ATOM     30  C   LIG A   1      -8.010   2.771 122.559  0.00  0.00    +0.174 C 
ATOM     31  C   LIG A   1      -6.898   3.376 123.435  0.00  0.00    +0.149 C 
ATOM     32  O   LIG A   1      -6.346   2.408 124.347  0.00  0.00    -0.343 OA
ATOM     33  C   LIG A   1      -5.752   3.893 122.569  0.00  0.00    +0.040 C 
BRANCH  28  34
ATOM     34  O   LIG A   1      -7.601   0.032 123.584  0.00  0.00    -0.384 OA
ATOM     35  H   LIG A   1      -6.650   0.125 123.792  0.00  0.00    +0.210 HD
ENDBRANCH  28  34
BRANCH  29  36
ATOM     36  O   LIG A   1      -9.877   1.242 122.517  0.00  0.00    -0.386 OA
ATOM     37  H   LIG A   1     -10.488   1.903 122.130  0.00  0.00    +0.210 HD
ENDBRANCH  29  36
BRANCH  30  38
ATOM     38  O   LIG A   1      -8.707   3.799 121.846  0.00  0.00    -0.387 OA
ATOM     39  H   LIG A   1      -9.360   3.334 121.285  0.00  0.00    +0.210 HD
ENDBRANCH  30  38
ENDBRANCH  26  27
ENDBRANCH   1  26
TORSDOF 10
ENDMDL
MODEL 5
REMARK VINA RESULT:      -7.5      3.612      6.888
REMARK  Name = NuBBE_11
REMARK  11 active torsions:
REMARK  status: ('A' for Active; 'I' for Inactive)
REMARK    1  A    between atoms: O_1  and  C_2
REMARK    2  A    between atoms: O_1  and  C_17
REMARK    3  A    between atoms: C_4  and  O_6
REMARK    4  A    between atoms: C_7  and  O_9
REMARK    5  A    between atoms: C_10  and  O_16
REMARK    6  A    between atoms: C_12  and  C_15
REMARK    7  A    between atoms: C_19  and  C_32
REMARK    8  A    between atoms: C_26  and  O_27
REMARK    9  A    between atoms: C_29  and  O_31
REMARK   10  A    between atoms: C_34  and  O_35
REMARK   11  A    between atoms: C_36  and  O_39
REMARK                            x       y       z     vdW  Elec       q    Type
REMARK                         _______ _______ _______ _____ _____    ______ ____
ROOT
ATOM      1  C   LIG A   1      -8.140   3.094 128.732  0.00  0.00    +0.237 C 
ATOM      2  C   LIG A   1      -7.601   1.651 128.756  0.00  0.00    +0.240 C 
ATOM      3  O   LIG A   1      -6.161   1.600 128.860  0.00  0.00    -0.480 OA
ATOM      4  C   LIG A   1      -5.455   2.524 128.140  0.00  0.00    +0.139 A 
ATOM      5  C   LIG A   1      -6.032   3.574 127.423  0.00  0.00    +0.103 A 
ATOM      6  C   LIG A   1      -7.467   3.820 127.591  0.00  0.00    +0.203 C 
ATOM      7  O   LIG A   1      -8.041   4.661 126.893  0.00  0.00    -0.289 OA
ATOM      8  C   LIG A   1      -5.245   4.374 126.587  0.00  0.00    +0.134 A 
ATOM      9  C   LIG A   1      -3.868   4.181 126.530  0.00  0.00    +0.091 A 
ATOM     10  C   LIG A   1      -3.291   3.180 127.306  0.00  0.00    +0.124 A 
ATOM     11  C   LIG A   1      -4.074   2.342 128.096  0.00  0.00    +0.092 A 
ENDROOT
BRANCH   2  12
ATOM     12  C   LIG A   1      -8.141   0.752 127.644  0.00  0.00    -0.001 A 
ATOM     13  C   LIG A   1      -9.052   1.223 126.681  0.00  0.00    +0.056 A 
ATOM     14  C   LIG A   1      -9.528   0.378 125.686  0.00  0.00    +0.159 A 
ATOM     15  C   LIG A   1      -9.100  -0.941 125.620  0.00  0.00    +0.158 A 
ATOM     16  C   LIG A   1      -8.207  -1.438 126.553  0.00  0.00    +0.049 A 
ATOM     17  C   LIG A   1      -7.734  -0.597 127.570  0.00  0.00    +0.011 A 
BRANCH  14  18
ATOM     18  O   LIG A   1     -10.424   0.811 124.748  0.00  0.00    -0.503 OA
ATOM     19  H   LIG A   1      -9.944   1.346 124.091  0.00  0.00    +0.292 HD
ENDBRANCH  14  18
BRANCH  15  20
ATOM     20  O   LIG A   1      -9.563  -1.753 124.627  0.00  0.00    -0.503 OA
ATOM     21  H   LIG A   1      -9.733  -1.150 123.875  0.00  0.00    +0.292 HD
ENDBRANCH  15  20
ENDBRANCH   2  12
BRANCH   8  22
ATOM     22  O   LIG A   1      -5.763   5.359 125.792  0.00  0.00    -0.506 OA
ATOM     23  H   LIG A   1      -5.475   5.202 124.865  0.00  0.00    +0.292 HD
ENDBRANCH   8  22
BRANCH  10  24
ATOM     24  O   LIG A   1      -1.943   2.977 127.311  0.00  0.00    -0.506 OA
ATOM     25  H   LIG A   1      -1.670   2.647 126.438  0.00  0.00    +0.292 HD
ENDBRANCH  10  24
BRANCH   1  26
ATOM     26  O   LIG A   1      -7.846   3.695 129.997  0.00  0.00    -0.334 OA
BRANCH  26  27
ATOM     27  C   LIG A   1      -7.994   5.108 130.091  0.00  0.00    +0.283 C 
ATOM     28  C   LIG A   1      -9.453   5.589 130.147  0.00  0.00    +0.201 C 
ATOM     29  C   LIG A   1     -10.136   4.926 131.344  0.00  0.00    +0.179 C 
ATOM     30  C   LIG A   1      -9.379   5.220 132.646  0.00  0.00    +0.174 C 
ATOM     31  C   LIG A   1      -7.869   4.968 132.486  0.00  0.00    +0.149 C 
ATOM     32  O   LIG A   1      -7.346   5.577 131.290  0.00  0.00    -0.343 OA
ATOM     33  C   LIG A   1      -7.098   5.548 133.669  0.00  0.00    +0.040 C 
BRANCH  28  34
ATOM     34  O   LIG A   1      -9.528   7.019 130.309  0.00  0.00    -0.384 OA
ATOM     35  H   LIG A   1     -10.037   7.368 129.549  0.00  0.00    +0.210 HD
ENDBRANCH  28  34
BRANCH  29  36
ATOM     36  O   LIG A   1     -11.483   5.408 131.477  0.00  0.00    -0.386 OA
ATOM     37  H   LIG A   1     -11.823   5.021 132.310  0.00  0.00    +0.210 HD
ENDBRANCH  29  36
BRANCH  30  38
ATOM     38  O   LIG A   1      -9.919   4.406 133.692  0.00  0.00    -0.387 OA
ATOM     39  H   LIG A   1     -10.375   3.666 133.243  0.00  0.00    +0.210 HD
ENDBRANCH  30  38
ENDBRANCH  26  27
ENDBRANCH   1  26
TORSDOF 10
ENDMDL
MODEL 6
REMARK VINA RESULT:      -7.4      5.613      8.809
REMARK  Name = NuBBE_11
REMARK  11 active torsions:
REMARK  status: ('A' for Active; 'I' for Inactive)
REMARK    1  A    between atoms: O_1  and  C_2
REMARK    2  A    between atoms: O_1  and  C_17
REMARK    3  A    between atoms: C_4  and  O_6
REMARK    4  A    between atoms: C_7  and  O_9
REMARK    5  A    between atoms: C_10  and  O_16
REMARK    6  A    between atoms: C_12  and  C_15
REMARK    7  A    between atoms: C_19  and  C_32
REMARK    8  A    between atoms: C_26  and  O_27
REMARK    9  A    between atoms: C_29  and  O_31
REMARK   10  A    between atoms: C_34  and  O_35
REMARK   11  A    between atoms: C_36  and  O_39
REMARK                            x       y       z     vdW  Elec       q    Type
REMARK                         _______ _______ _______ _____ _____    ______ ____
ROOT
ATOM      1  C   LIG A   1      -7.350   6.006 130.923  0.00  0.00    +0.237 C 
ATOM      2  C   LIG A   1      -8.646   6.070 131.755  0.00  0.00    +0.240 C 
ATOM      3  O   LIG A   1      -8.960   4.809 132.386  0.00  0.00    -0.480 OA
ATOM      4  C   LIG A   1      -8.738   3.676 131.652  0.00  0.00    +0.139 A 
ATOM      5  C   LIG A   1      -8.119   3.656 130.401  0.00  0.00    +0.103 A 
ATOM      6  C   LIG A   1      -7.503   4.894 129.913  0.00  0.00    +0.203 C 
ATOM      7  O   LIG A   1      -7.048   4.953 128.768  0.00  0.00    -0.289 OA
ATOM      8  C   LIG A   1      -8.079   2.474 129.653  0.00  0.00    +0.134 A 
ATOM      9  C   LIG A   1      -8.579   1.291 130.189  0.00  0.00    +0.091 A 
ATOM     10  C   LIG A   1      -9.127   1.305 131.469  0.00  0.00    +0.124 A 
ATOM     11  C   LIG A   1      -9.224   2.489 132.196  0.00  0.00    +0.092 A 
ENDROOT
BRANCH   2  12
ATOM     12  C   LIG A   1      -9.843   6.674 131.022  0.00  0.00    -0.001 A 
ATOM     13  C   LIG A   1      -9.689   7.466 129.871  0.00  0.00    +0.056 A 
ATOM     14  C   LIG A   1     -10.799   8.005 129.231  0.00  0.00    +0.159 A 
ATOM     15  C   LIG A   1     -12.077   7.757 129.711  0.00  0.00    +0.158 A 
ATOM     16  C   LIG A   1     -12.264   6.983 130.844  0.00  0.00    +0.049 A 
ATOM     17  C   LIG A   1     -11.150   6.449 131.505  0.00  0.00    +0.011 A 
BRANCH  14  18
ATOM     18  O   LIG A   1     -10.672   8.790 128.118  0.00  0.00    -0.503 OA
ATOM     19  H   LIG A   1     -11.246   9.569 128.225  0.00  0.00    +0.292 HD
ENDBRANCH  14  18
BRANCH  15  20
ATOM     20  O   LIG A   1     -13.157   8.278 129.062  0.00  0.00    -0.503 OA
ATOM     21  H   LIG A   1     -12.885   9.187 128.823  0.00  0.00    +0.292 HD
ENDBRANCH  15  20
ENDBRANCH   2  12
BRANCH   8  22
ATOM     22  O   LIG A   1      -7.567   2.409 128.386  0.00  0.00    -0.506 OA
ATOM     23  H   LIG A   1      -7.227   3.298 128.137  0.00  0.00    +0.292 HD
ENDBRANCH   8  22
BRANCH  10  24
ATOM     24  O   LIG A   1      -9.596   0.165 132.049  0.00  0.00    -0.506 OA
ATOM     25  H   LIG A   1     -10.569   0.187 132.046  0.00  0.00    +0.292 HD
ENDBRANCH  10  24
BRANCH   1  26
ATOM     26  O   LIG A   1      -6.262   5.768 131.822  0.00  0.00    -0.334 OA
BRANCH  26  27
ATOM     27  C   LIG A   1      -4.947   5.932 131.300  0.00  0.00    +0.283 C 
ATOM     28  C   LIG A   1      -4.072   6.921 132.087  0.00  0.00    +0.201 C 
ATOM     29  C   LIG A   1      -3.987   6.444 133.538  0.00  0.00    +0.179 C 
ATOM     30  C   LIG A   1      -3.453   5.008 133.619  0.00  0.00    +0.174 C 
ATOM     31  C   LIG A   1      -4.183   4.082 132.629  0.00  0.00    +0.149 C 
ATOM     32  O   LIG A   1      -4.267   4.660 131.313  0.00  0.00    -0.343 OA
ATOM     33  C   LIG A   1      -3.448   2.750 132.497  0.00  0.00    +0.040 C 
BRANCH  28  34
ATOM     34  O   LIG A   1      -2.738   6.987 131.546  0.00  0.00    -0.384 OA
ATOM     35  H   LIG A   1      -2.126   6.698 132.253  0.00  0.00    +0.210 HD
ENDBRANCH  28  34
BRANCH  29  36
ATOM     36  O   LIG A   1      -3.115   7.302 134.292  0.00  0.00    -0.386 OA
ATOM     37  H   LIG A   1      -3.683   8.022 134.635  0.00  0.00    +0.210 HD
ENDBRANCH  29  36
BRANCH  30  38
ATOM     38  O   LIG A   1      -3.601   4.531 134.960  0.00  0.00    -0.387 OA
ATOM     39  H   LIG A   1      -4.522   4.209 135.026  0.00  0.00    +0.210 HD
ENDBRANCH  30  38
ENDBRANCH  26  27
ENDBRANCH   1  26
TORSDOF 10
ENDMDL
MODEL 7
REMARK VINA RESULT:      -7.3      2.501      6.499
REMARK  Name = NuBBE_11
REMARK  11 active torsions:
REMARK  status: ('A' for Active; 'I' for Inactive)
REMARK    1  A    between atoms: O_1  and  C_2
REMARK    2  A    between atoms: O_1  and  C_17
REMARK    3  A    between atoms: C_4  and  O_6
REMARK    4  A    between atoms: C_7  and  O_9
REMARK    5  A    between atoms: C_10  and  O_16
REMARK    6  A    between atoms: C_12  and  C_15
REMARK    7  A    between atoms: C_19  and  C_32
REMARK    8  A    between atoms: C_26  and  O_27
REMARK    9  A    between atoms: C_29  and  O_31
REMARK   10  A    between atoms: C_34  and  O_35
REMARK   11  A    between atoms: C_36  and  O_39
REMARK                            x       y       z     vdW  Elec       q    Type
REMARK                         _______ _______ _______ _____ _____    ______ ____
ROOT
ATOM      1  C   LIG A   1      -7.386   2.568 126.775  0.00  0.00    +0.237 C 
ATOM      2  C   LIG A   1      -8.429   2.703 125.648  0.00  0.00    +0.240 C 
ATOM      3  O   LIG A   1      -9.327   1.573 125.588  0.00  0.00    -0.480 OA
ATOM      4  C   LIG A   1      -8.781   0.336 125.797  0.00  0.00    +0.139 A 
ATOM      5  C   LIG A   1      -7.458   0.112 126.182  0.00  0.00    +0.103 A 
ATOM      6  C   LIG A   1      -6.644   1.270 126.565  0.00  0.00    +0.203 C 
ATOM      7  O   LIG A   1      -5.440   1.133 126.801  0.00  0.00    -0.289 OA
ATOM      8  C   LIG A   1      -6.944  -1.188 126.216  0.00  0.00    +0.134 A 
ATOM      9  C   LIG A   1      -7.772  -2.274 125.948  0.00  0.00    +0.091 A 
ATOM     10  C   LIG A   1      -9.109  -2.046 125.638  0.00  0.00    +0.124 A 
ATOM     11  C   LIG A   1      -9.615  -0.751 125.545  0.00  0.00    +0.092 A 
ENDROOT
BRANCH   2  12
ATOM     12  C   LIG A   1      -7.846   3.063 124.282  0.00  0.00    -0.001 A 
ATOM     13  C   LIG A   1      -6.603   3.709 124.148  0.00  0.00    +0.056 A 
ATOM     14  C   LIG A   1      -6.104   4.027 122.891  0.00  0.00    +0.159 A 
ATOM     15  C   LIG A   1      -6.818   3.698 121.748  0.00  0.00    +0.158 A 
ATOM     16  C   LIG A   1      -8.045   3.064 121.843  0.00  0.00    +0.049 A 
ATOM     17  C   LIG A   1      -8.564   2.755 123.107  0.00  0.00    +0.011 A 
BRANCH  14  18
ATOM     18  O   LIG A   1      -4.905   4.667 122.739  0.00  0.00    -0.503 OA
ATOM     19  H   LIG A   1      -5.031   5.609 122.950  0.00  0.00    +0.292 HD
ENDBRANCH  14  18
BRANCH  15  20
ATOM     20  O   LIG A   1      -6.307   4.001 120.520  0.00  0.00    -0.503 OA
ATOM     21  H   LIG A   1      -6.118   4.960 120.563  0.00  0.00    +0.292 HD
ENDBRANCH  15  20
ENDBRANCH   2  12
BRANCH   8  22
ATOM     22  O   LIG A   1      -5.634  -1.466 126.498  0.00  0.00    -0.506 OA
ATOM     23  H   LIG A   1      -5.468  -2.419 126.319  0.00  0.00    +0.292 HD
ENDBRANCH   8  22
BRANCH  10  24
ATOM     24  O   LIG A   1      -9.967  -3.078 125.404  0.00  0.00    -0.506 OA
ATOM     25  H   LIG A   1     -10.818  -2.719 125.098  0.00  0.00    +0.292 HD
ENDBRANCH  10  24
BRANCH   1  26
ATOM     26  O   LIG A   1      -8.083   2.591 128.024  0.00  0.00    -0.334 OA
BRANCH  26  27
ATOM     27  C   LIG A   1      -7.355   3.044 129.161  0.00  0.00    +0.283 C 
ATOM     28  C   LIG A   1      -7.426   4.561 129.396  0.00  0.00    +0.201 C 
ATOM     29  C   LIG A   1      -8.895   4.961 129.542  0.00  0.00    +0.179 C 
ATOM     30  C   LIG A   1      -9.575   4.169 130.666  0.00  0.00    +0.174 C 
ATOM     31  C   LIG A   1      -9.278   2.663 130.551  0.00  0.00    +0.149 C 
ATOM     32  O   LIG A   1      -7.876   2.406 130.346  0.00  0.00    -0.343 OA
ATOM     33  C   LIG A   1      -9.694   1.934 131.826  0.00  0.00    +0.040 C 
BRANCH  28  34
ATOM     34  O   LIG A   1      -6.725   4.940 130.597  0.00  0.00    -0.384 OA
ATOM     35  H   LIG A   1      -5.768   4.852 130.411  0.00  0.00    +0.210 HD
ENDBRANCH  28  34
BRANCH  29  36
ATOM     36  O   LIG A   1      -9.001   6.363 129.838  0.00  0.00    -0.386 OA
ATOM     37  H   LIG A   1      -8.298   6.799 129.313  0.00  0.00    +0.210 HD
ENDBRANCH  29  36
BRANCH  30  38
ATOM     38  O   LIG A   1     -10.985   4.411 130.618  0.00  0.00    -0.387 OA
ATOM     39  H   LIG A   1     -11.223   4.401 129.669  0.00  0.00    +0.210 HD
ENDBRANCH  30  38
ENDBRANCH  26  27
ENDBRANCH   1  26
TORSDOF 10
ENDMDL
MODEL 8
REMARK VINA RESULT:      -7.3      3.725      6.127
REMARK  Name = NuBBE_11
REMARK  11 active torsions:
REMARK  status: ('A' for Active; 'I' for Inactive)
REMARK    1  A    between atoms: O_1  and  C_2
REMARK    2  A    between atoms: O_1  and  C_17
REMARK    3  A    between atoms: C_4  and  O_6
REMARK    4  A    between atoms: C_7  and  O_9
REMARK    5  A    between atoms: C_10  and  O_16
REMARK    6  A    between atoms: C_12  and  C_15
REMARK    7  A    between atoms: C_19  and  C_32
REMARK    8  A    between atoms: C_26  and  O_27
REMARK    9  A    between atoms: C_29  and  O_31
REMARK   10  A    between atoms: C_34  and  O_35
REMARK   11  A    between atoms: C_36  and  O_39
REMARK                            x       y       z     vdW  Elec       q    Type
REMARK                         _______ _______ _______ _____ _____    ______ ____
ROOT
ATOM      1  C   LIG A   1      -7.970   3.278 128.846  0.00  0.00    +0.237 C 
ATOM      2  C   LIG A   1      -7.474   3.899 127.525  0.00  0.00    +0.240 C 
ATOM      3  O   LIG A   1      -8.123   3.328 126.368  0.00  0.00    -0.480 OA
ATOM      4  C   LIG A   1      -8.346   1.978 126.385  0.00  0.00    +0.139 A 
ATOM      5  C   LIG A   1      -8.104   1.153 127.483  0.00  0.00    +0.103 A 
ATOM      6  C   LIG A   1      -7.761   1.784 128.762  0.00  0.00    +0.203 C 
ATOM      7  O   LIG A   1      -7.426   1.093 129.728  0.00  0.00    -0.289 OA
ATOM      8  C   LIG A   1      -8.208  -0.237 127.358  0.00  0.00    +0.134 A 
ATOM      9  C   LIG A   1      -8.638  -0.800 126.161  0.00  0.00    +0.091 A 
ATOM     10  C   LIG A   1      -8.950   0.036 125.093  0.00  0.00    +0.124 A 
ATOM     11  C   LIG A   1      -8.792   1.416 125.190  0.00  0.00    +0.092 A 
ENDROOT
BRANCH   2  12
ATOM     12  C   LIG A   1      -5.954   3.951 127.379  0.00  0.00    -0.001 A 
ATOM     13  C   LIG A   1      -5.107   4.180 128.478  0.00  0.00    +0.056 A 
ATOM     14  C   LIG A   1      -3.729   4.227 128.310  0.00  0.00    +0.159 A 
ATOM     15  C   LIG A   1      -3.166   4.035 127.056  0.00  0.00    +0.158 A 
ATOM     16  C   LIG A   1      -3.971   3.811 125.952  0.00  0.00    +0.049 A 
ATOM     17  C   LIG A   1      -5.363   3.777 126.109  0.00  0.00    +0.011 A 
BRANCH  14  18
ATOM     18  O   LIG A   1      -2.887   4.461 129.363  0.00  0.00    -0.503 OA
ATOM     19  H   LIG A   1      -1.970   4.371 129.048  0.00  0.00    +0.292 HD
ENDBRANCH  14  18
BRANCH  15  20
ATOM     20  O   LIG A   1      -1.810   4.067 126.910  0.00  0.00    -0.503 OA
ATOM     21  H   LIG A   1      -1.522   4.822 127.461  0.00  0.00    +0.292 HD
ENDBRANCH  15  20
ENDBRANCH   2  12
BRANCH   8  22
ATOM     22  O   LIG A   1      -7.898  -1.103 128.371  0.00  0.00    -0.506 OA
ATOM     23  H   LIG A   1      -6.920  -1.145 128.463  0.00  0.00    +0.292 HD
ENDBRANCH   8  22
BRANCH  10  24
ATOM     24  O   LIG A   1      -9.409  -0.467 123.912  0.00  0.00    -0.506 OA
ATOM     25  H   LIG A   1      -9.883  -1.298 124.086  0.00  0.00    +0.292 HD
ENDBRANCH  10  24
BRANCH   1  26
ATOM     26  O   LIG A   1      -9.352   3.617 129.000  0.00  0.00    -0.334 OA
BRANCH  26  27
ATOM     27  C   LIG A   1      -9.811   3.866 130.324  0.00  0.00    +0.283 C 
ATOM     28  C   LIG A   1      -8.844   4.695 131.184  0.00  0.00    +0.201 C 
ATOM     29  C   LIG A   1      -8.587   6.027 130.477  0.00  0.00    +0.179 C 
ATOM     30  C   LIG A   1      -9.899   6.771 130.202  0.00  0.00    +0.174 C 
ATOM     31  C   LIG A   1     -10.948   5.842 129.564  0.00  0.00    +0.149 C 
ATOM     32  O   LIG A   1     -11.057   4.590 130.268  0.00  0.00    -0.343 OA
ATOM     33  C   LIG A   1     -12.327   6.496 129.579  0.00  0.00    +0.040 C 
BRANCH  28  34
ATOM     34  O   LIG A   1      -9.401   4.966 132.486  0.00  0.00    -0.384 OA
ATOM     35  H   LIG A   1      -8.994   4.330 133.110  0.00  0.00    +0.210 HD
ENDBRANCH  28  34
BRANCH  29  36
ATOM     36  O   LIG A   1      -7.745   6.864 131.287  0.00  0.00    -0.386 OA
ATOM     37  H   LIG A   1      -8.353   7.403 131.833  0.00  0.00    +0.210 HD
ENDBRANCH  29  36
BRANCH  30  38
ATOM     38  O   LIG A   1      -9.631   7.890 129.351  0.00  0.00    -0.387 OA
ATOM     39  H   LIG A   1     -10.507   8.247 129.100  0.00  0.00    +0.210 HD
ENDBRANCH  30  38
ENDBRANCH  26  27
ENDBRANCH   1  26
TORSDOF 10
ENDMDL
MODEL 9
REMARK VINA RESULT:      -7.2      2.923      6.350
REMARK  Name = NuBBE_11
REMARK  11 active torsions:
REMARK  status: ('A' for Active; 'I' for Inactive)
REMARK    1  A    between atoms: O_1  and  C_2
REMARK    2  A    between atoms: O_1  and  C_17
REMARK    3  A    between atoms: C_4  and  O_6
REMARK    4  A    between atoms: C_7  and  O_9
REMARK    5  A    between atoms: C_10  and  O_16
REMARK    6  A    between atoms: C_12  and  C_15
REMARK    7  A    between atoms: C_19  and  C_32
REMARK    8  A    between atoms: C_26  and  O_27
REMARK    9  A    between atoms: C_29  and  O_31
REMARK   10  A    between atoms: C_34  and  O_35
REMARK   11  A    between atoms: C_36  and  O_39
REMARK                            x       y       z     vdW  Elec       q    Type
REMARK                         _______ _______ _______ _____ _____    ______ ____
ROOT
ATOM      1  C   LIG A   1      -7.163   3.203 126.872  0.00  0.00    +0.237 C 
ATOM      2  C   LIG A   1      -5.998   2.550 127.642  0.00  0.00    +0.240 C 
ATOM      3  O   LIG A   1      -6.453   1.606 128.636  0.00  0.00    -0.480 OA
ATOM      4  C   LIG A   1      -7.568   1.948 129.351  0.00  0.00    +0.139 A 
ATOM      5  C   LIG A   1      -8.353   3.075 129.098  0.00  0.00    +0.103 A 
ATOM      6  C   LIG A   1      -8.082   3.848 127.883  0.00  0.00    +0.203 C 
ATOM      7  O   LIG A   1      -8.671   4.913 127.678  0.00  0.00    -0.289 OA
ATOM      8  C   LIG A   1      -9.379   3.432 129.980  0.00  0.00    +0.134 A 
ATOM      9  C   LIG A   1      -9.680   2.619 131.068  0.00  0.00    +0.091 A 
ATOM     10  C   LIG A   1      -8.941   1.457 131.270  0.00  0.00    +0.124 A 
ATOM     11  C   LIG A   1      -7.879   1.125 130.432  0.00  0.00    +0.092 A 
ENDROOT
BRANCH   2  12
ATOM     12  C   LIG A   1      -4.971   3.537 128.196  0.00  0.00    -0.001 A 
ATOM     13  C   LIG A   1      -4.873   4.857 127.721  0.00  0.00    +0.056 A 
ATOM     14  C   LIG A   1      -3.924   5.727 128.242  0.00  0.00    +0.159 A 
ATOM     15  C   LIG A   1      -3.067   5.310 129.251  0.00  0.00    +0.158 A 
ATOM     16  C   LIG A   1      -3.135   4.016 129.741  0.00  0.00    +0.049 A 
ATOM     17  C   LIG A   1      -4.078   3.127 129.209  0.00  0.00    +0.011 A 
BRANCH  14  18
ATOM     18  O   LIG A   1      -3.802   7.010 127.786  0.00  0.00    -0.503 OA
ATOM     19  H   LIG A   1      -3.127   7.463 128.321  0.00  0.00    +0.292 HD
ENDBRANCH  14  18
BRANCH  15  20
ATOM     20  O   LIG A   1      -2.152   6.181 129.766  0.00  0.00    -0.503 OA
ATOM     21  H   LIG A   1      -1.846   6.699 128.994  0.00  0.00    +0.292 HD
ENDBRANCH  15  20
ENDBRANCH   2  12
BRANCH   8  22
ATOM     22  O   LIG A   1     -10.124   4.570 129.836  0.00  0.00    -0.506 OA
ATOM     23  H   LIG A   1      -9.805   5.240 130.481  0.00  0.00    +0.292 HD
ENDBRANCH   8  22
BRANCH  10  24
ATOM     24  O   LIG A   1      -9.221   0.610 132.301  0.00  0.00    -0.506 OA
ATOM     25  H   LIG A   1      -8.471   0.608 132.920  0.00  0.00    +0.292 HD
ENDBRANCH  10  24
BRANCH   1  26
ATOM     26  O   LIG A   1      -7.825   2.178 126.124  0.00  0.00    -0.334 OA
BRANCH  26  27
ATOM     27  C   LIG A   1      -7.066   1.528 125.110  0.00  0.00    +0.283 C 
ATOM     28  C   LIG A   1      -7.425   0.047 124.901  0.00  0.00    +0.201 C 
ATOM     29  C   LIG A   1      -8.913  -0.047 124.561  0.00  0.00    +0.179 C 
ATOM     30  C   LIG A   1      -9.257   0.810 123.336  0.00  0.00    +0.174 C 
ATOM     31  C   LIG A   1      -8.665   2.226 123.458  0.00  0.00    +0.149 C 
ATOM     32  O   LIG A   1      -7.279   2.198 123.851  0.00  0.00    -0.343 OA
ATOM     33  C   LIG A   1      -8.745   2.960 122.122  0.00  0.00    +0.040 C 
BRANCH  28  34
ATOM     34  O   LIG A   1      -6.668  -0.528 123.818  0.00  0.00    -0.384 OA
ATOM     35  H   LIG A   1      -6.242  -1.338 124.164  0.00  0.00    +0.210 HD
ENDBRANCH  28  34
BRANCH  29  36
ATOM     36  O   LIG A   1      -9.274  -1.410 124.284  0.00  0.00    -0.386 OA
ATOM     37  H   LIG A   1      -8.890  -1.939 125.013  0.00  0.00    +0.210 HD
ENDBRANCH  29  36
BRANCH  30  38
ATOM     38  O   LIG A   1     -10.680   0.868 123.192  0.00  0.00    -0.387 OA
ATOM     39  H   LIG A   1     -11.020   0.048 123.603  0.00  0.00    +0.210 HD
ENDBRANCH  30  38
ENDBRANCH  26  27
ENDBRANCH   1  26
TORSDOF 10
ENDMDL
