MODEL 1
REMARK VINA RESULT:      -8.4      0.000      0.000
REMARK  Name = NuBBE_1863
REMARK  8 active torsions:
REMARK  status: ('A' for Active; 'I' for Inactive)
REMARK    1  A    between atoms: C_1  and  O_2
REMARK    2  A    between atoms: O_2  and  C_3
REMARK    3  A    between atoms: C_8  and  C_9
REMARK    4  A    between atoms: C_15  and  C_17
REMARK    5  A    between atoms: C_17  and  C_18
REMARK    6  A    between atoms: C_18  and  C_19
REMARK    7  A    between atoms: C_24  and  O_25
REMARK    8  A    between atoms: O_25  and  C_26
REMARK                            x       y       z     vdW  Elec       q    Type
REMARK                         _______ _______ _______ _____ _____    ______ ____
ROOT
ATOM      1  C   LIG A   1      -9.129  -2.290 125.048  0.00  0.00    +0.149 C 
ATOM      2  C   LIG A   1      -8.196  -2.934 124.006  0.00  0.00    +0.036 C 
ATOM      3  C   LIG A   1      -7.017  -2.036 123.649  0.00  0.00    +0.005 C 
ATOM      4  C   LIG A   1      -7.461  -0.606 123.335  0.00  0.00    +0.032 C 
ATOM      5  O   LIG A   1      -9.281  -0.870 124.889  0.00  0.00    -0.369 OA
ATOM      6  C   LIG A   1      -8.958  -0.395 123.585  0.00  0.00    +0.119 C 
ENDROOT
BRANCH   1  12
ATOM      7  C   LIG A   1      -7.737  -3.088 129.082  0.00  0.00    +0.120 A 
ATOM      8  C   LIG A   1      -8.666  -3.935 128.472  0.00  0.00    +0.046 A 
ATOM      9  C   LIG A   1      -9.124  -3.676 127.176  0.00  0.00    +0.010 A 
ATOM     10  C   LIG A   1      -7.268  -1.979 128.379  0.00  0.00    +0.046 A 
ATOM     11  C   LIG A   1      -7.720  -1.723 127.084  0.00  0.00    +0.010 A 
ATOM     12  C   LIG A   1      -8.656  -2.563 126.463  0.00  0.00    -0.019 A 
BRANCH   7  14
ATOM     13  C   LIG A   1      -6.090  -4.075 130.469  0.00  0.00    +0.277 C 
ATOM     14  O   LIG A   1      -7.359  -3.441 130.348  0.00  0.00    -0.495 OA
ENDBRANCH   7  14
ENDBRANCH   1  12
BRANCH   6  15
ATOM     15  C   LIG A   1      -9.325   1.090 123.482  0.00  0.00    +0.036 C 
BRANCH  15  16
ATOM     16  C   LIG A   1      -8.123   2.035 123.633  0.00  0.00    +0.037 C 
BRANCH  16  17
ATOM     17  C   LIG A   1      -7.772   2.788 122.371  0.00  0.00    -0.047 A 
ATOM     18  C   LIG A   1      -8.778   3.256 121.512  0.00  0.00    +0.007 A 
ATOM     19  C   LIG A   1      -8.444   3.932 120.333  0.00  0.00    +0.046 A 
ATOM     20  C   LIG A   1      -6.438   3.030 122.039  0.00  0.00    +0.007 A 
ATOM     21  C   LIG A   1      -6.107   3.689 120.856  0.00  0.00    +0.046 A 
ATOM     22  C   LIG A   1      -7.107   4.143 119.993  0.00  0.00    +0.120 A 
BRANCH  22  23
ATOM     23  O   LIG A   1      -6.887   4.799 118.813  0.00  0.00    -0.495 OA
ATOM     24  C   LIG A   1      -5.773   5.688 118.792  0.00  0.00    +0.277 C 
ENDBRANCH  22  23
ENDBRANCH  16  17
ENDBRANCH  15  16
ENDBRANCH   6  15
TORSDOF 6
ENDMDL
MODEL 2
REMARK VINA RESULT:      -8.0      1.528      1.935
REMARK  Name = NuBBE_1863
REMARK  8 active torsions:
REMARK  status: ('A' for Active; 'I' for Inactive)
REMARK    1  A    between atoms: C_1  and  O_2
REMARK    2  A    between atoms: O_2  and  C_3
REMARK    3  A    between atoms: C_8  and  C_9
REMARK    4  A    between atoms: C_15  and  C_17
REMARK    5  A    between atoms: C_17  and  C_18
REMARK    6  A    between atoms: C_18  and  C_19
REMARK    7  A    between atoms: C_24  and  O_25
REMARK    8  A    between atoms: O_25  and  C_26
REMARK                            x       y       z     vdW  Elec       q    Type
REMARK                         _______ _______ _______ _____ _____    ______ ____
ROOT
ATOM      1  C   LIG A   1      -9.061  -2.985 125.139  0.00  0.00    +0.149 C 
ATOM      2  C   LIG A   1      -7.953  -3.722 124.364  0.00  0.00    +0.036 C 
ATOM      3  C   LIG A   1      -6.919  -2.765 123.779  0.00  0.00    +0.005 C 
ATOM      4  C   LIG A   1      -7.575  -1.599 123.036  0.00  0.00    +0.032 C 
ATOM      5  O   LIG A   1      -9.439  -1.729 124.554  0.00  0.00    -0.369 OA
ATOM      6  C   LIG A   1      -9.101  -1.607 123.175  0.00  0.00    +0.119 C 
ENDROOT
BRANCH   1  12
ATOM      7  C   LIG A   1      -7.873  -2.284 129.256  0.00  0.00    +0.120 A 
ATOM      8  C   LIG A   1      -8.472  -3.491 128.886  0.00  0.00    +0.046 A 
ATOM      9  C   LIG A   1      -8.865  -3.717 127.564  0.00  0.00    +0.010 A 
ATOM     10  C   LIG A   1      -7.667  -1.305 128.285  0.00  0.00    +0.046 A 
ATOM     11  C   LIG A   1      -8.054  -1.532 126.963  0.00  0.00    +0.010 A 
ATOM     12  C   LIG A   1      -8.660  -2.737 126.581  0.00  0.00    -0.019 A 
BRANCH   7  14
ATOM     13  C   LIG A   1      -7.625  -0.874 131.143  0.00  0.00    +0.277 C 
ATOM     14  O   LIG A   1      -7.527  -2.176 130.575  0.00  0.00    -0.495 OA
ENDBRANCH   7  14
ENDBRANCH   1  12
BRANCH   6  15
ATOM     15  C   LIG A   1      -9.706  -0.312 122.618  0.00  0.00    +0.036 C 
BRANCH  15  16
ATOM     16  C   LIG A   1      -9.688   0.856 123.615  0.00  0.00    +0.037 C 
BRANCH  16  17
ATOM     17  C   LIG A   1      -8.561   1.837 123.391  0.00  0.00    -0.047 A 
ATOM     18  C   LIG A   1      -8.547   2.666 122.259  0.00  0.00    +0.007 A 
ATOM     19  C   LIG A   1      -7.488   3.556 122.047  0.00  0.00    +0.046 A 
ATOM     20  C   LIG A   1      -7.514   1.934 124.308  0.00  0.00    +0.007 A 
ATOM     21  C   LIG A   1      -6.452   2.809 124.087  0.00  0.00    +0.046 A 
ATOM     22  C   LIG A   1      -6.429   3.624 122.953  0.00  0.00    +0.120 A 
BRANCH  22  23
ATOM     23  O   LIG A   1      -5.436   4.513 122.646  0.00  0.00    -0.495 OA
ATOM     24  C   LIG A   1      -5.022   4.539 121.282  0.00  0.00    +0.277 C 
ENDBRANCH  22  23
ENDBRANCH  16  17
ENDBRANCH  15  16
ENDBRANCH   6  15
TORSDOF 6
ENDMDL
MODEL 3
REMARK VINA RESULT:      -7.8      2.082      2.975
REMARK  Name = NuBBE_1863
REMARK  8 active torsions:
REMARK  status: ('A' for Active; 'I' for Inactive)
REMARK    1  A    between atoms: C_1  and  O_2
REMARK    2  A    between atoms: O_2  and  C_3
REMARK    3  A    between atoms: C_8  and  C_9
REMARK    4  A    between atoms: C_15  and  C_17
REMARK    5  A    between atoms: C_17  and  C_18
REMARK    6  A    between atoms: C_18  and  C_19
REMARK    7  A    between atoms: C_24  and  O_25
REMARK    8  A    between atoms: O_25  and  C_26
REMARK                            x       y       z     vdW  Elec       q    Type
REMARK                         _______ _______ _______ _____ _____    ______ ____
ROOT
ATOM      1  C   LIG A   1      -9.166  -2.886 125.171  0.00  0.00    +0.149 C 
ATOM      2  C   LIG A   1      -8.159  -3.710 124.347  0.00  0.00    +0.036 C 
ATOM      3  C   LIG A   1      -7.056  -2.846 123.747  0.00  0.00    +0.005 C 
ATOM      4  C   LIG A   1      -7.616  -1.606 123.046  0.00  0.00    +0.032 C 
ATOM      5  O   LIG A   1      -9.437  -1.586 124.622  0.00  0.00    -0.369 OA
ATOM      6  C   LIG A   1      -9.131  -1.469 123.235  0.00  0.00    +0.119 C 
ENDROOT
BRANCH   1  12
ATOM      7  C   LIG A   1      -7.870  -2.368 129.282  0.00  0.00    +0.120 A 
ATOM      8  C   LIG A   1      -7.646  -1.365 128.336  0.00  0.00    +0.046 A 
ATOM      9  C   LIG A   1      -8.053  -1.532 127.010  0.00  0.00    +0.010 A 
ATOM     10  C   LIG A   1      -8.512  -3.541 128.886  0.00  0.00    +0.046 A 
ATOM     11  C   LIG A   1      -8.923  -3.707 127.563  0.00  0.00    +0.010 A 
ATOM     12  C   LIG A   1      -8.699  -2.709 126.604  0.00  0.00    -0.019 A 
BRANCH   7  14
ATOM     13  C   LIG A   1      -6.638  -3.100 131.168  0.00  0.00    +0.277 C 
ATOM     14  O   LIG A   1      -7.433  -2.094 130.549  0.00  0.00    -0.495 OA
ENDBRANCH   7  14
ENDBRANCH   1  12
BRANCH   6  15
ATOM     15  C   LIG A   1      -9.624  -0.110 122.721  0.00  0.00    +0.036 C 
BRANCH  15  16
ATOM     16  C   LIG A   1      -9.728   0.963 123.816  0.00  0.00    +0.037 C 
BRANCH  16  17
ATOM     17  C   LIG A   1      -8.472   1.781 123.995  0.00  0.00    -0.047 A 
ATOM     18  C   LIG A   1      -7.758   1.745 125.203  0.00  0.00    +0.007 A 
ATOM     19  C   LIG A   1      -6.608   2.524 125.369  0.00  0.00    +0.046 A 
ATOM     20  C   LIG A   1      -7.998   2.588 122.959  0.00  0.00    +0.007 A 
ATOM     21  C   LIG A   1      -6.861   3.376 123.131  0.00  0.00    +0.046 A 
ATOM     22  C   LIG A   1      -6.159   3.352 124.339  0.00  0.00    +0.120 A 
BRANCH  22  23
ATOM     23  O   LIG A   1      -5.035   4.084 124.608  0.00  0.00    -0.495 OA
ATOM     24  C   LIG A   1      -4.364   3.771 125.826  0.00  0.00    +0.277 C 
ENDBRANCH  22  23
ENDBRANCH  16  17
ENDBRANCH  15  16
ENDBRANCH   6  15
TORSDOF 6
ENDMDL
MODEL 4
REMARK VINA RESULT:      -7.7      2.964      3.990
REMARK  Name = NuBBE_1863
REMARK  8 active torsions:
REMARK  status: ('A' for Active; 'I' for Inactive)
REMARK    1  A    between atoms: C_1  and  O_2
REMARK    2  A    between atoms: O_2  and  C_3
REMARK    3  A    between atoms: C_8  and  C_9
REMARK    4  A    between atoms: C_15  and  C_17
REMARK    5  A    between atoms: C_17  and  C_18
REMARK    6  A    between atoms: C_18  and  C_19
REMARK    7  A    between atoms: C_24  and  O_25
REMARK    8  A    between atoms: O_25  and  C_26
REMARK                            x       y       z     vdW  Elec       q    Type
REMARK                         _______ _______ _______ _____ _____    ______ ____
ROOT
ATOM      1  C   LIG A   1      -8.639  -2.285 125.191  0.00  0.00    +0.149 C 
ATOM      2  C   LIG A   1      -8.065  -3.448 124.360  0.00  0.00    +0.036 C 
ATOM      3  C   LIG A   1      -6.588  -3.255 124.034  0.00  0.00    +0.005 C 
ATOM      4  C   LIG A   1      -6.301  -1.855 123.486  0.00  0.00    +0.032 C 
ATOM      5  O   LIG A   1      -8.104  -1.000 124.832  0.00  0.00    -0.369 OA
ATOM      6  C   LIG A   1      -7.538  -0.952 123.525  0.00  0.00    +0.119 C 
ENDROOT
BRANCH   1  12
ATOM      7  C   LIG A   1      -8.033  -2.879 129.448  0.00  0.00    +0.120 A 
ATOM      8  C   LIG A   1      -7.577  -1.716 128.823  0.00  0.00    +0.046 A 
ATOM      9  C   LIG A   1      -7.762  -1.525 127.450  0.00  0.00    +0.010 A 
ATOM     10  C   LIG A   1      -8.681  -3.849 128.684  0.00  0.00    +0.046 A 
ATOM     11  C   LIG A   1      -8.870  -3.658 127.315  0.00  0.00    +0.010 A 
ATOM     12  C   LIG A   1      -8.413  -2.496 126.676  0.00  0.00    -0.019 A 
BRANCH   7  14
ATOM     13  C   LIG A   1      -6.437  -2.902 131.198  0.00  0.00    +0.277 C 
ATOM     14  O   LIG A   1      -7.801  -2.956 130.794  0.00  0.00    -0.495 OA
ENDBRANCH   7  14
ENDBRANCH   1  12
BRANCH   6  15
ATOM     15  C   LIG A   1      -7.167   0.497 123.187  0.00  0.00    +0.036 C 
BRANCH  15  16
ATOM     16  C   LIG A   1      -7.526   1.501 124.294  0.00  0.00    +0.037 C 
BRANCH  16  17
ATOM     17  C   LIG A   1      -6.329   2.092 124.999  0.00  0.00    -0.047 A 
ATOM     18  C   LIG A   1      -5.894   3.394 124.704  0.00  0.00    +0.007 A 
ATOM     19  C   LIG A   1      -4.770   3.926 125.345  0.00  0.00    +0.046 A 
ATOM     20  C   LIG A   1      -5.634   1.352 125.956  0.00  0.00    +0.007 A 
ATOM     21  C   LIG A   1      -4.505   1.878 126.582  0.00  0.00    +0.046 A 
ATOM     22  C   LIG A   1      -4.062   3.168 126.279  0.00  0.00    +0.120 A 
BRANCH  22  23
ATOM     23  O   LIG A   1      -2.970   3.774 126.835  0.00  0.00    -0.495 OA
ATOM     24  C   LIG A   1      -1.733   3.077 126.700  0.00  0.00    +0.277 C 
ENDBRANCH  22  23
ENDBRANCH  16  17
ENDBRANCH  15  16
ENDBRANCH   6  15
TORSDOF 6
ENDMDL
MODEL 5
REMARK VINA RESULT:      -7.5      1.549      2.168
REMARK  Name = NuBBE_1863
REMARK  8 active torsions:
REMARK  status: ('A' for Active; 'I' for Inactive)
REMARK    1  A    between atoms: C_1  and  O_2
REMARK    2  A    between atoms: O_2  and  C_3
REMARK    3  A    between atoms: C_8  and  C_9
REMARK    4  A    between atoms: C_15  and  C_17
REMARK    5  A    between atoms: C_17  and  C_18
REMARK    6  A    between atoms: C_18  and  C_19
REMARK    7  A    between atoms: C_24  and  O_25
REMARK    8  A    between atoms: O_25  and  C_26
REMARK                            x       y       z     vdW  Elec       q    Type
REMARK                         _______ _______ _______ _____ _____    ______ ____
ROOT
ATOM      1  C   LIG A   1      -8.619  -1.956 126.495  0.00  0.00    +0.149 C 
ATOM      2  C   LIG A   1      -9.254  -3.169 125.791  0.00  0.00    +0.036 C 
ATOM      3  C   LIG A   1      -8.386  -3.701 124.655  0.00  0.00    +0.005 C 
ATOM      4  C   LIG A   1      -7.908  -2.581 123.728  0.00  0.00    +0.032 C 
ATOM      5  O   LIG A   1      -7.913  -1.075 125.606  0.00  0.00    -0.369 OA
ATOM      6  C   LIG A   1      -8.306  -1.193 124.241  0.00  0.00    +0.119 C 
ENDROOT
BRANCH   1  12
ATOM      7  C   LIG A   1      -5.877  -3.220 129.614  0.00  0.00    +0.120 A 
ATOM      8  C   LIG A   1      -7.235  -3.539 129.692  0.00  0.00    +0.046 A 
ATOM      9  C   LIG A   1      -8.123  -3.126 128.694  0.00  0.00    +0.010 A 
ATOM     10  C   LIG A   1      -5.415  -2.484 128.524  0.00  0.00    +0.046 A 
ATOM     11  C   LIG A   1      -6.300  -2.075 127.525  0.00  0.00    +0.010 A 
ATOM     12  C   LIG A   1      -7.666  -2.386 127.594  0.00  0.00    -0.019 A 
BRANCH   7  14
ATOM     13  C   LIG A   1      -3.697  -3.516 130.492  0.00  0.00    +0.277 C 
ATOM     14  O   LIG A   1      -5.103  -3.679 130.644  0.00  0.00    -0.495 OA
ENDBRANCH   7  14
ENDBRANCH   1  12
BRANCH   6  15
ATOM     15  C   LIG A   1      -7.624  -0.092 123.420  0.00  0.00    +0.036 C 
BRANCH  15  16
ATOM     16  C   LIG A   1      -7.337   1.187 124.222  0.00  0.00    +0.037 C 
BRANCH  16  17
ATOM     17  C   LIG A   1      -6.648   2.269 123.426  0.00  0.00    -0.047 A 
ATOM     18  C   LIG A   1      -6.023   3.348 124.071  0.00  0.00    +0.007 A 
ATOM     19  C   LIG A   1      -5.406   4.358 123.325  0.00  0.00    +0.046 A 
ATOM     20  C   LIG A   1      -6.620   2.214 122.031  0.00  0.00    +0.007 A 
ATOM     21  C   LIG A   1      -6.020   3.230 121.289  0.00  0.00    +0.046 A 
ATOM     22  C   LIG A   1      -5.411   4.312 121.931  0.00  0.00    +0.120 A 
BRANCH  22  23
ATOM     23  O   LIG A   1      -4.796   5.355 121.296  0.00  0.00    -0.495 OA
ATOM     24  C   LIG A   1      -5.117   5.523 119.917  0.00  0.00    +0.277 C 
ENDBRANCH  22  23
ENDBRANCH  16  17
ENDBRANCH  15  16
ENDBRANCH   6  15
TORSDOF 6
ENDMDL
MODEL 6
REMARK VINA RESULT:      -7.3     10.166     12.380
REMARK  Name = NuBBE_1863
REMARK  8 active torsions:
REMARK  status: ('A' for Active; 'I' for Inactive)
REMARK    1  A    between atoms: C_1  and  O_2
REMARK    2  A    between atoms: O_2  and  C_3
REMARK    3  A    between atoms: C_8  and  C_9
REMARK    4  A    between atoms: C_15  and  C_17
REMARK    5  A    between atoms: C_17  and  C_18
REMARK    6  A    between atoms: C_18  and  C_19
REMARK    7  A    between atoms: C_24  and  O_25
REMARK    8  A    between atoms: O_25  and  C_26
REMARK                            x       y       z     vdW  Elec       q    Type
REMARK                         _______ _______ _______ _____ _____    ______ ____
ROOT
ATOM      1  C   LIG A   1      -9.394   6.023 130.042  0.00  0.00    +0.149 C 
ATOM      2  C   LIG A   1      -9.753   5.079 131.205  0.00  0.00    +0.036 C 
ATOM      3  C   LIG A   1      -9.367   5.658 132.562  0.00  0.00    +0.005 C 
ATOM      4  C   LIG A   1      -7.933   6.191 132.570  0.00  0.00    +0.032 C 
ATOM      5  O   LIG A   1      -8.163   6.739 130.237  0.00  0.00    -0.369 OA
ATOM      6  C   LIG A   1      -7.285   6.134 131.183  0.00  0.00    +0.119 C 
ENDROOT
BRANCH   1  12
ATOM      7  C   LIG A   1     -12.572   8.881 129.284  0.00  0.00    +0.120 A 
ATOM      8  C   LIG A   1     -11.436   8.852 128.471  0.00  0.00    +0.046 A 
ATOM      9  C   LIG A   1     -10.406   7.939 128.718  0.00  0.00    +0.010 A 
ATOM     10  C   LIG A   1     -12.668   7.984 130.346  0.00  0.00    +0.046 A 
ATOM     11  C   LIG A   1     -11.643   7.069 130.590  0.00  0.00    +0.010 A 
ATOM     12  C   LIG A   1     -10.496   7.033 129.784  0.00  0.00    -0.019 A 
BRANCH   7  14
ATOM     13  C   LIG A   1     -13.514  11.012 129.715  0.00  0.00    +0.277 C 
ATOM     14  O   LIG A   1     -13.515   9.813 128.947  0.00  0.00    -0.495 OA
ENDBRANCH   7  14
ENDBRANCH   1  12
BRANCH   6  15
ATOM     15  C   LIG A   1      -5.944   6.878 131.176  0.00  0.00    +0.036 C 
BRANCH  15  16
ATOM     16  C   LIG A   1      -4.756   6.004 130.745  0.00  0.00    +0.037 C 
BRANCH  16  17
ATOM     17  C   LIG A   1      -3.434   6.428 131.342  0.00  0.00    -0.047 A 
ATOM     18  C   LIG A   1      -2.324   5.569 131.308  0.00  0.00    +0.007 A 
ATOM     19  C   LIG A   1      -1.110   5.960 131.883  0.00  0.00    +0.046 A 
ATOM     20  C   LIG A   1      -3.296   7.682 131.938  0.00  0.00    +0.007 A 
ATOM     21  C   LIG A   1      -2.091   8.063 132.525  0.00  0.00    +0.046 A 
ATOM     22  C   LIG A   1      -0.989   7.204 132.505  0.00  0.00    +0.120 A 
BRANCH  22  23
ATOM     23  O   LIG A   1       0.234   7.482 133.051  0.00  0.00    -0.495 OA
ATOM     24  C   LIG A   1       0.277   7.565 134.473  0.00  0.00    +0.277 C 
ENDBRANCH  22  23
ENDBRANCH  16  17
ENDBRANCH  15  16
ENDBRANCH   6  15
TORSDOF 6
ENDMDL
MODEL 7
REMARK VINA RESULT:      -7.3      7.708      9.604
REMARK  Name = NuBBE_1863
REMARK  8 active torsions:
REMARK  status: ('A' for Active; 'I' for Inactive)
REMARK    1  A    between atoms: C_1  and  O_2
REMARK    2  A    between atoms: O_2  and  C_3
REMARK    3  A    between atoms: C_8  and  C_9
REMARK    4  A    between atoms: C_15  and  C_17
REMARK    5  A    between atoms: C_17  and  C_18
REMARK    6  A    between atoms: C_18  and  C_19
REMARK    7  A    between atoms: C_24  and  O_25
REMARK    8  A    between atoms: O_25  and  C_26
REMARK                            x       y       z     vdW  Elec       q    Type
REMARK                         _______ _______ _______ _____ _____    ______ ____
ROOT
ATOM      1  C   LIG A   1     -10.697   5.550 130.863  0.00  0.00    +0.149 C 
ATOM      2  C   LIG A   1      -9.795   5.871 132.069  0.00  0.00    +0.036 C 
ATOM      3  C   LIG A   1      -8.405   6.337 131.648  0.00  0.00    +0.005 C 
ATOM      4  C   LIG A   1      -7.787   5.413 130.596  0.00  0.00    +0.032 C 
ATOM      5  O   LIG A   1      -9.997   4.945 129.763  0.00  0.00    -0.369 OA
ATOM      6  C   LIG A   1      -8.765   4.330 130.128  0.00  0.00    +0.119 C 
ENDROOT
BRANCH   1  12
ATOM      7  C   LIG A   1     -12.690   9.125 129.415  0.00  0.00    +0.120 A 
ATOM      8  C   LIG A   1     -13.088   8.527 130.613  0.00  0.00    +0.046 A 
ATOM      9  C   LIG A   1     -12.455   7.371 131.079  0.00  0.00    +0.010 A 
ATOM     10  C   LIG A   1     -11.648   8.553 128.687  0.00  0.00    +0.046 A 
ATOM     11  C   LIG A   1     -11.012   7.402 129.152  0.00  0.00    +0.010 A 
ATOM     12  C   LIG A   1     -11.405   6.791 130.352  0.00  0.00    -0.019 A 
BRANCH   7  14
ATOM     13  C   LIG A   1     -13.543  11.232 130.081  0.00  0.00    +0.277 C 
ATOM     14  O   LIG A   1     -13.378  10.253 129.061  0.00  0.00    -0.495 OA
ENDBRANCH   7  14
ENDBRANCH   1  12
BRANCH   6  15
ATOM     15  C   LIG A   1      -8.201   3.570 128.921  0.00  0.00    +0.036 C 
BRANCH  15  16
ATOM     16  C   LIG A   1      -6.733   3.902 128.614  0.00  0.00    +0.037 C 
BRANCH  16  17
ATOM     17  C   LIG A   1      -6.436   4.069 127.143  0.00  0.00    -0.047 A 
ATOM     18  C   LIG A   1      -5.136   3.885 126.648  0.00  0.00    +0.007 A 
ATOM     19  C   LIG A   1      -4.865   4.064 125.287  0.00  0.00    +0.046 A 
ATOM     20  C   LIG A   1      -7.453   4.410 126.249  0.00  0.00    +0.007 A 
ATOM     21  C   LIG A   1      -7.179   4.604 124.897  0.00  0.00    +0.046 A 
ATOM     22  C   LIG A   1      -5.882   4.436 124.405  0.00  0.00    +0.120 A 
BRANCH  22  23
ATOM     23  O   LIG A   1      -5.509   4.601 123.100  0.00  0.00    -0.495 OA
ATOM     24  C   LIG A   1      -6.087   3.691 122.167  0.00  0.00    +0.277 C 
ENDBRANCH  22  23
ENDBRANCH  16  17
ENDBRANCH  15  16
ENDBRANCH   6  15
TORSDOF 6
ENDMDL
MODEL 8
REMARK VINA RESULT:      -7.3      5.719      9.652
REMARK  Name = NuBBE_1863
REMARK  8 active torsions:
REMARK  status: ('A' for Active; 'I' for Inactive)
REMARK    1  A    between atoms: C_1  and  O_2
REMARK    2  A    between atoms: O_2  and  C_3
REMARK    3  A    between atoms: C_8  and  C_9
REMARK    4  A    between atoms: C_15  and  C_17
REMARK    5  A    between atoms: C_17  and  C_18
REMARK    6  A    between atoms: C_18  and  C_19
REMARK    7  A    between atoms: C_24  and  O_25
REMARK    8  A    between atoms: O_25  and  C_26
REMARK                            x       y       z     vdW  Elec       q    Type
REMARK                         _______ _______ _______ _____ _____    ______ ____
ROOT
ATOM      1  C   LIG A   1      -6.875   2.758 124.227  0.00  0.00    +0.149 C 
ATOM      2  C   LIG A   1      -8.100   3.460 124.842  0.00  0.00    +0.036 C 
ATOM      3  C   LIG A   1      -7.709   4.627 125.742  0.00  0.00    +0.005 C 
ATOM      4  C   LIG A   1      -6.609   4.243 126.733  0.00  0.00    +0.032 C 
ATOM      5  O   LIG A   1      -5.745   2.687 125.112  0.00  0.00    -0.369 OA
ATOM      6  C   LIG A   1      -6.079   2.826 126.490  0.00  0.00    +0.119 C 
ENDROOT
BRANCH   1  12
ATOM      7  C   LIG A   1      -5.591   4.657 120.540  0.00  0.00    +0.120 A 
ATOM      8  C   LIG A   1      -4.842   4.801 121.710  0.00  0.00    +0.046 A 
ATOM      9  C   LIG A   1      -5.256   4.199 122.902  0.00  0.00    +0.010 A 
ATOM     10  C   LIG A   1      -6.761   3.900 120.574  0.00  0.00    +0.046 A 
ATOM     11  C   LIG A   1      -7.174   3.294 121.762  0.00  0.00    +0.010 A 
ATOM     12  C   LIG A   1      -6.432   3.435 122.944  0.00  0.00    -0.019 A 
BRANCH   7  14
ATOM     13  C   LIG A   1      -6.038   5.678 118.450  0.00  0.00    +0.277 C 
ATOM     14  O   LIG A   1      -5.088   5.287 119.435  0.00  0.00    -0.495 OA
ENDBRANCH   7  14
ENDBRANCH   1  12
BRANCH   6  15
ATOM     15  C   LIG A   1      -4.833   2.555 127.343  0.00  0.00    +0.036 C 
BRANCH  15  16
ATOM     16  C   LIG A   1      -3.635   3.447 126.984  0.00  0.00    +0.037 C 
BRANCH  16  17
ATOM     17  C   LIG A   1      -3.179   4.345 128.110  0.00  0.00    -0.047 A 
ATOM     18  C   LIG A   1      -3.372   3.971 129.449  0.00  0.00    +0.007 A 
ATOM     19  C   LIG A   1      -2.967   4.818 130.485  0.00  0.00    +0.046 A 
ATOM     20  C   LIG A   1      -2.557   5.564 127.836  0.00  0.00    +0.007 A 
ATOM     21  C   LIG A   1      -2.169   6.414 128.870  0.00  0.00    +0.046 A 
ATOM     22  C   LIG A   1      -2.374   6.050 130.203  0.00  0.00    +0.120 A 
BRANCH  22  23
ATOM     23  O   LIG A   1      -2.031   6.810 131.286  0.00  0.00    -0.495 OA
ATOM     24  C   LIG A   1      -1.676   6.091 132.465  0.00  0.00    +0.277 C 
ENDBRANCH  22  23
ENDBRANCH  16  17
ENDBRANCH  15  16
ENDBRANCH   6  15
TORSDOF 6
ENDMDL
MODEL 9
REMARK VINA RESULT:      -7.2      9.330     10.798
REMARK  Name = NuBBE_1863
REMARK  8 active torsions:
REMARK  status: ('A' for Active; 'I' for Inactive)
REMARK    1  A    between atoms: C_1  and  O_2
REMARK    2  A    between atoms: O_2  and  C_3
REMARK    3  A    between atoms: C_8  and  C_9
REMARK    4  A    between atoms: C_15  and  C_17
REMARK    5  A    between atoms: C_17  and  C_18
REMARK    6  A    between atoms: C_18  and  C_19
REMARK    7  A    between atoms: C_24  and  O_25
REMARK    8  A    between atoms: O_25  and  C_26
REMARK                            x       y       z     vdW  Elec       q    Type
REMARK                         _______ _______ _______ _____ _____    ______ ____
ROOT
ATOM      1  C   LIG A   1      -8.027   5.699 133.329  0.00  0.00    +0.149 C 
ATOM      2  C   LIG A   1      -8.257   4.540 134.317  0.00  0.00    +0.036 C 
ATOM      3  C   LIG A   1      -8.280   3.182 133.623  0.00  0.00    +0.005 C 
ATOM      4  C   LIG A   1      -9.189   3.184 132.392  0.00  0.00    +0.032 C 
ATOM      5  O   LIG A   1      -8.667   5.510 132.056  0.00  0.00    -0.369 OA
ATOM      6  C   LIG A   1      -9.745   4.578 132.083  0.00  0.00    +0.119 C 
ENDROOT
BRANCH   1  12
ATOM      7  C   LIG A   1      -3.794   6.346 132.616  0.00  0.00    +0.120 A 
ATOM      8  C   LIG A   1      -4.248   5.947 133.876  0.00  0.00    +0.046 A 
ATOM      9  C   LIG A   1      -5.611   5.747 134.112  0.00  0.00    +0.010 A 
ATOM     10  C   LIG A   1      -4.720   6.539 131.592  0.00  0.00    +0.046 A 
ATOM     11  C   LIG A   1      -6.080   6.335 131.825  0.00  0.00    +0.010 A 
ATOM     12  C   LIG A   1      -6.548   5.939 133.087  0.00  0.00    -0.019 A 
BRANCH   7  14
ATOM     13  C   LIG A   1      -1.656   5.325 132.614  0.00  0.00    +0.277 C 
ATOM     14  O   LIG A   1      -2.440   6.508 132.501  0.00  0.00    -0.495 OA
ENDBRANCH   7  14
ENDBRANCH   1  12
BRANCH   6  15
ATOM     15  C   LIG A   1     -10.460   4.592 130.726  0.00  0.00    +0.036 C 
BRANCH  15  16
ATOM     16  C   LIG A   1      -9.896   5.629 129.742  0.00  0.00    +0.037 C 
BRANCH  16  17
ATOM     17  C   LIG A   1     -10.814   6.801 129.493  0.00  0.00    -0.047 A 
ATOM     18  C   LIG A   1     -11.807   7.145 130.424  0.00  0.00    +0.007 A 
ATOM     19  C   LIG A   1     -12.669   8.219 130.174  0.00  0.00    +0.046 A 
ATOM     20  C   LIG A   1     -10.691   7.563 128.330  0.00  0.00    +0.007 A 
ATOM     21  C   LIG A   1     -11.560   8.622 128.076  0.00  0.00    +0.046 A 
ATOM     22  C   LIG A   1     -12.559   8.956 128.995  0.00  0.00    +0.120 A 
BRANCH  22  23
ATOM     23  O   LIG A   1     -13.459   9.974 128.840  0.00  0.00    -0.495 OA
ATOM     24  C   LIG A   1     -13.507  10.929 129.897  0.00  0.00    +0.277 C 
ENDBRANCH  22  23
ENDBRANCH  16  17
ENDBRANCH  15  16
ENDBRANCH   6  15
TORSDOF 6
ENDMDL
