MODEL 1
REMARK VINA RESULT:      -7.1      0.000      0.000
REMARK  Name = NuBBE_1904
REMARK  8 active torsions:
REMARK  status: ('A' for Active; 'I' for Inactive)
REMARK    1  A    between atoms: C_2  and  C_3
REMARK    2  A    between atoms: C_2  and  O_4
REMARK    3  A    between atoms: O_4  and  C_5
REMARK    4  A    between atoms: C_9  and  C_10
REMARK    5  A    between atoms: C_18  and  C_19
REMARK    6  A    between atoms: C_19  and  C_20
REMARK    7  A    between atoms: C_19  and  O_21
REMARK    8  A    between atoms: C_19  and  C_22
REMARK                            x       y       z     vdW  Elec       q    Type
REMARK                         _______ _______ _______ _____ _____    ______ ____
ROOT
ATOM      1  C   LIG A   1      -7.244  -0.884 125.402  0.00  0.00    +0.250 C 
ATOM      2  C   LIG A   1      -6.192  -1.340 126.443  0.00  0.00    +0.253 C 
ATOM      3  C   LIG A   1      -6.884  -2.059 127.526  0.00  0.00    +0.018 A 
ATOM      4  C   LIG A   1      -7.970  -2.896 127.358  0.00  0.00    -0.014 A 
ATOM      5  C   LIG A   1      -8.517  -3.468 128.517  0.00  0.00    -0.043 A 
ATOM      6  C   LIG A   1      -9.713  -4.376 128.453  0.00  0.00    +0.044 C 
ATOM      7  C   LIG A   1      -7.962  -3.139 129.786  0.00  0.00    +0.005 A 
ATOM      8  C   LIG A   1      -6.909  -2.221 129.911  0.00  0.00    +0.015 A 
ATOM      9  C   LIG A   1      -6.402  -1.685 128.748  0.00  0.00    +0.066 A 
ATOM     10  C   LIG A   1      -5.457  -0.589 128.528  0.00  0.00    +0.340 C 
ATOM     11  O   LIG A   1      -5.485  -0.319 127.168  0.00  0.00    -0.449 OA
ATOM     12  O   LIG A   1      -4.832   0.015 129.377  0.00  0.00    -0.245 OA
ATOM     13  C   LIG A   1      -8.484  -3.000 125.982  0.00  0.00    +0.014 C 
ATOM     14  C   LIG A   1      -8.188  -2.059 125.043  0.00  0.00    +0.006 C 
ENDROOT
BRANCH  14  15
ATOM     15  C   LIG A   1      -8.790  -2.067 123.633  0.00  0.00    +0.085 C 
ATOM     16  C   LIG A   1      -9.613  -3.330 123.348  0.00  0.00    +0.046 C 
ATOM     17  C   LIG A   1      -7.730  -1.890 122.540  0.00  0.00    +0.046 C 
BRANCH  15  18
ATOM     18  O   LIG A   1      -9.678  -0.949 123.486  0.00  0.00    -0.385 OA
ATOM     19  H   LIG A   1     -10.390  -1.045 124.140  0.00  0.00    +0.211 HD
ENDBRANCH  15  18
ENDBRANCH  14  15
BRANCH   1  20
ATOM     20  O   LIG A   1      -8.077   0.143 125.974  0.00  0.00    -0.453 OA
BRANCH  20  22
ATOM     21  O   LIG A   1      -8.876   2.251 125.547  0.00  0.00    -0.251 OA
ATOM     22  C   LIG A   1      -8.092   1.340 125.334  0.00  0.00    +0.305 C 
ATOM     23  C   LIG A   1      -6.983   1.371 124.327  0.00  0.00    +0.136 C 
ENDBRANCH  20  22
ENDBRANCH   1  20
TORSDOF 4
ENDMDL
MODEL 2
REMARK VINA RESULT:      -6.7      2.086      5.355
REMARK  Name = NuBBE_1904
REMARK  8 active torsions:
REMARK  status: ('A' for Active; 'I' for Inactive)
REMARK    1  A    between atoms: C_2  and  C_3
REMARK    2  A    between atoms: C_2  and  O_4
REMARK    3  A    between atoms: O_4  and  C_5
REMARK    4  A    between atoms: C_9  and  C_10
REMARK    5  A    between atoms: C_18  and  C_19
REMARK    6  A    between atoms: C_19  and  C_20
REMARK    7  A    between atoms: C_19  and  O_21
REMARK    8  A    between atoms: C_19  and  C_22
REMARK                            x       y       z     vdW  Elec       q    Type
REMARK                         _______ _______ _______ _____ _____    ______ ____
ROOT
ATOM      1  C   LIG A   1      -6.151  -0.517 127.160  0.00  0.00    +0.250 C 
ATOM      2  C   LIG A   1      -7.225  -0.660 126.054  0.00  0.00    +0.253 C 
ATOM      3  C   LIG A   1      -6.653  -1.438 124.942  0.00  0.00    +0.018 A 
ATOM      4  C   LIG A   1      -5.784  -2.502 125.080  0.00  0.00    -0.014 A 
ATOM      5  C   LIG A   1      -5.319  -3.100 123.899  0.00  0.00    -0.043 A 
ATOM      6  C   LIG A   1      -4.352  -4.251 123.932  0.00  0.00    +0.044 C 
ATOM      7  C   LIG A   1      -5.728  -2.573 122.642  0.00  0.00    +0.005 A 
ATOM      8  C   LIG A   1      -6.550  -1.440 122.553  0.00  0.00    +0.015 A 
ATOM      9  C   LIG A   1      -6.984  -0.886 123.738  0.00  0.00    +0.066 A 
ATOM     10  C   LIG A   1      -7.680   0.374 124.010  0.00  0.00    +0.340 C 
ATOM     11  O   LIG A   1      -7.659   0.538 125.387  0.00  0.00    -0.449 OA
ATOM     12  O   LIG A   1      -8.117   1.156 123.191  0.00  0.00    -0.245 OA
ATOM     13  C   LIG A   1      -5.371  -2.810 126.460  0.00  0.00    +0.014 C 
ATOM     14  C   LIG A   1      -5.501  -1.892 127.459  0.00  0.00    +0.006 C 
ENDROOT
BRANCH  14  15
ATOM     15  C   LIG A   1      -4.984  -2.128 128.882  0.00  0.00    +0.085 C 
ATOM     16  C   LIG A   1      -4.044  -3.337 128.978  0.00  0.00    +0.046 C 
ATOM     17  C   LIG A   1      -6.117  -2.279 129.903  0.00  0.00    +0.046 C 
BRANCH  15  18
ATOM     18  O   LIG A   1      -4.234  -0.982 129.314  0.00  0.00    -0.385 OA
ATOM     19  H   LIG A   1      -4.491  -0.229 128.756  0.00  0.00    +0.211 HD
ENDBRANCH  15  18
ENDBRANCH  14  15
BRANCH   1  20
ATOM     20  O   LIG A   1      -5.088   0.338 126.695  0.00  0.00    -0.453 OA
BRANCH  20  22
ATOM     21  O   LIG A   1      -5.033   1.797 128.466  0.00  0.00    -0.251 OA
ATOM     22  C   LIG A   1      -5.004   1.567 127.267  0.00  0.00    +0.305 C 
ATOM     23  C   LIG A   1      -4.860   2.599 126.191  0.00  0.00    +0.136 C 
ENDBRANCH  20  22
ENDBRANCH   1  20
TORSDOF 4
ENDMDL
MODEL 3
REMARK VINA RESULT:      -6.7      1.651      5.043
REMARK  Name = NuBBE_1904
REMARK  8 active torsions:
REMARK  status: ('A' for Active; 'I' for Inactive)
REMARK    1  A    between atoms: C_2  and  C_3
REMARK    2  A    between atoms: C_2  and  O_4
REMARK    3  A    between atoms: O_4  and  C_5
REMARK    4  A    between atoms: C_9  and  C_10
REMARK    5  A    between atoms: C_18  and  C_19
REMARK    6  A    between atoms: C_19  and  C_20
REMARK    7  A    between atoms: C_19  and  O_21
REMARK    8  A    between atoms: C_19  and  C_22
REMARK                            x       y       z     vdW  Elec       q    Type
REMARK                         _______ _______ _______ _____ _____    ______ ____
ROOT
ATOM      1  C   LIG A   1      -7.731   0.046 127.373  0.00  0.00    +0.250 C 
ATOM      2  C   LIG A   1      -8.811   0.834 126.590  0.00  0.00    +0.253 C 
ATOM      3  C   LIG A   1      -9.048   0.155 125.305  0.00  0.00    +0.018 A 
ATOM      4  C   LIG A   1      -9.041  -1.213 125.115  0.00  0.00    -0.014 A 
ATOM      5  C   LIG A   1      -9.255  -1.673 123.807  0.00  0.00    -0.043 A 
ATOM      6  C   LIG A   1      -9.246  -3.141 123.481  0.00  0.00    +0.044 C 
ATOM      7  C   LIG A   1      -9.431  -0.731 122.755  0.00  0.00    +0.005 A 
ATOM      8  C   LIG A   1      -9.351   0.650 122.986  0.00  0.00    +0.015 A 
ATOM      9  C   LIG A   1      -9.141   1.058 124.285  0.00  0.00    +0.066 A 
ATOM     10  C   LIG A   1      -8.826   2.377 124.839  0.00  0.00    +0.340 C 
ATOM     11  O   LIG A   1      -8.488   2.169 126.167  0.00  0.00    -0.449 OA
ATOM     12  O   LIG A   1      -8.793   3.431 124.235  0.00  0.00    -0.245 OA
ATOM     13  C   LIG A   1      -8.703  -2.017 126.301  0.00  0.00    +0.014 C 
ATOM     14  C   LIG A   1      -8.062  -1.468 127.370  0.00  0.00    +0.006 C 
ENDROOT
BRANCH  14  15
ATOM     15  C   LIG A   1      -7.592  -2.289 128.576  0.00  0.00    +0.085 C 
ATOM     16  C   LIG A   1      -8.249  -3.674 128.641  0.00  0.00    +0.046 C 
ATOM     17  C   LIG A   1      -7.808  -1.557 129.905  0.00  0.00    +0.046 C 
BRANCH  15  18
ATOM     18  O   LIG A   1      -6.175  -2.504 128.486  0.00  0.00    -0.385 OA
ATOM     19  H   LIG A   1      -5.753  -1.644 128.321  0.00  0.00    +0.211 HD
ENDBRANCH  15  18
ENDBRANCH  14  15
BRANCH   1  20
ATOM     20  O   LIG A   1      -6.458   0.182 126.710  0.00  0.00    -0.453 OA
BRANCH  20  22
ATOM     21  O   LIG A   1      -5.109   0.395 128.554  0.00  0.00    -0.251 OA
ATOM     22  C   LIG A   1      -5.453   0.739 127.434  0.00  0.00    +0.305 C 
ATOM     23  C   LIG A   1      -4.824   1.838 126.634  0.00  0.00    +0.136 C 
ENDBRANCH  20  22
ENDBRANCH   1  20
TORSDOF 4
ENDMDL
MODEL 4
REMARK VINA RESULT:      -6.6      3.090      5.779
REMARK  Name = NuBBE_1904
REMARK  8 active torsions:
REMARK  status: ('A' for Active; 'I' for Inactive)
REMARK    1  A    between atoms: C_2  and  C_3
REMARK    2  A    between atoms: C_2  and  O_4
REMARK    3  A    between atoms: O_4  and  C_5
REMARK    4  A    between atoms: C_9  and  C_10
REMARK    5  A    between atoms: C_18  and  C_19
REMARK    6  A    between atoms: C_19  and  C_20
REMARK    7  A    between atoms: C_19  and  O_21
REMARK    8  A    between atoms: C_19  and  C_22
REMARK                            x       y       z     vdW  Elec       q    Type
REMARK                         _______ _______ _______ _____ _____    ______ ____
ROOT
ATOM      1  C   LIG A   1      -7.110   2.605 124.699  0.00  0.00    +0.250 C 
ATOM      2  C   LIG A   1      -8.414   1.771 124.628  0.00  0.00    +0.253 C 
ATOM      3  C   LIG A   1      -8.055   0.347 124.524  0.00  0.00    +0.018 A 
ATOM      4  C   LIG A   1      -6.988  -0.253 125.162  0.00  0.00    -0.014 A 
ATOM      5  C   LIG A   1      -6.786  -1.620 124.914  0.00  0.00    -0.043 A 
ATOM      6  C   LIG A   1      -5.641  -2.369 125.538  0.00  0.00    +0.044 C 
ATOM      7  C   LIG A   1      -7.648  -2.300 124.009  0.00  0.00    +0.005 A 
ATOM      8  C   LIG A   1      -8.670  -1.627 123.323  0.00  0.00    +0.015 A 
ATOM      9  C   LIG A   1      -8.834  -0.287 123.599  0.00  0.00    +0.066 A 
ATOM     10  C   LIG A   1      -9.656   0.734 122.945  0.00  0.00    +0.340 C 
ATOM     11  O   LIG A   1      -9.259   1.951 123.479  0.00  0.00    -0.449 OA
ATOM     12  O   LIG A   1     -10.467   0.558 122.058  0.00  0.00    -0.245 OA
ATOM     13  C   LIG A   1      -6.129   0.648 125.948  0.00  0.00    +0.014 C 
ATOM     14  C   LIG A   1      -6.138   1.994 125.740  0.00  0.00    +0.006 C 
ENDROOT
BRANCH  14  15
ATOM     15  C   LIG A   1      -5.183   2.957 126.454  0.00  0.00    +0.085 C 
ATOM     16  C   LIG A   1      -4.353   2.267 127.545  0.00  0.00    +0.046 C 
ATOM     17  C   LIG A   1      -5.908   4.168 127.052  0.00  0.00    +0.046 C 
BRANCH  15  18
ATOM     18  O   LIG A   1      -4.254   3.502 125.505  0.00  0.00    -0.385 OA
ATOM     19  H   LIG A   1      -4.343   4.469 125.522  0.00  0.00    +0.211 HD
ENDBRANCH  15  18
ENDBRANCH  14  15
BRANCH   1  20
ATOM     20  O   LIG A   1      -6.431   2.548 123.429  0.00  0.00    -0.453 OA
BRANCH  20  22
ATOM     21  O   LIG A   1      -5.688   4.714 123.283  0.00  0.00    -0.251 OA
ATOM     22  C   LIG A   1      -6.225   3.731 122.796  0.00  0.00    +0.305 C 
ATOM     23  C   LIG A   1      -6.756   3.638 121.399  0.00  0.00    +0.136 C 
ENDBRANCH  20  22
ENDBRANCH   1  20
TORSDOF 4
ENDMDL
MODEL 5
REMARK VINA RESULT:      -6.5      2.850      5.217
REMARK  Name = NuBBE_1904
REMARK  8 active torsions:
REMARK  status: ('A' for Active; 'I' for Inactive)
REMARK    1  A    between atoms: C_2  and  C_3
REMARK    2  A    between atoms: C_2  and  O_4
REMARK    3  A    between atoms: O_4  and  C_5
REMARK    4  A    between atoms: C_9  and  C_10
REMARK    5  A    between atoms: C_18  and  C_19
REMARK    6  A    between atoms: C_19  and  C_20
REMARK    7  A    between atoms: C_19  and  O_21
REMARK    8  A    between atoms: C_19  and  C_22
REMARK                            x       y       z     vdW  Elec       q    Type
REMARK                         _______ _______ _______ _____ _____    ______ ____
ROOT
ATOM      1  C   LIG A   1      -7.168  -0.314 125.189  0.00  0.00    +0.250 C 
ATOM      2  C   LIG A   1      -7.028   1.012 125.976  0.00  0.00    +0.253 C 
ATOM      3  C   LIG A   1      -6.628   2.074 125.037  0.00  0.00    +0.018 A 
ATOM      4  C   LIG A   1      -7.066   2.189 123.733  0.00  0.00    -0.014 A 
ATOM      5  C   LIG A   1      -6.546   3.254 122.980  0.00  0.00    -0.043 A 
ATOM      6  C   LIG A   1      -6.937   3.461 121.543  0.00  0.00    +0.044 C 
ATOM      7  C   LIG A   1      -5.589   4.125 123.571  0.00  0.00    +0.005 A 
ATOM      8  C   LIG A   1      -5.116   3.919 124.876  0.00  0.00    +0.015 A 
ATOM      9  C   LIG A   1      -5.654   2.864 125.579  0.00  0.00    +0.066 A 
ATOM     10  C   LIG A   1      -5.266   2.265 126.858  0.00  0.00    +0.340 C 
ATOM     11  O   LIG A   1      -5.995   1.091 126.973  0.00  0.00    -0.449 OA
ATOM     12  O   LIG A   1      -4.419   2.674 127.626  0.00  0.00    -0.245 OA
ATOM     13  C   LIG A   1      -7.950   1.110 123.262  0.00  0.00    +0.014 C 
ATOM     14  C   LIG A   1      -8.004  -0.091 123.903  0.00  0.00    +0.006 C 
ENDROOT
BRANCH  14  15
ATOM     15  C   LIG A   1      -8.823  -1.278 123.386  0.00  0.00    +0.085 C 
ATOM     16  C   LIG A   1      -9.197  -2.269 124.496  0.00  0.00    +0.046 C 
ATOM     17  C   LIG A   1      -8.120  -2.027 122.248  0.00  0.00    +0.046 C 
BRANCH  15  18
ATOM     18  O   LIG A   1     -10.054  -0.801 122.822  0.00  0.00    -0.385 OA
ATOM     19  H   LIG A   1     -10.772  -1.031 123.435  0.00  0.00    +0.211 HD
ENDBRANCH  15  18
ENDBRANCH  14  15
BRANCH   1  20
ATOM     20  O   LIG A   1      -5.868  -0.758 124.753  0.00  0.00    -0.453 OA
BRANCH  20  22
ATOM     21  O   LIG A   1      -5.588  -2.490 126.232  0.00  0.00    -0.251 OA
ATOM     22  C   LIG A   1      -5.504  -2.016 125.109  0.00  0.00    +0.305 C 
ATOM     23  C   LIG A   1      -4.991  -2.738 123.901  0.00  0.00    +0.136 C 
ENDBRANCH  20  22
ENDBRANCH   1  20
TORSDOF 4
ENDMDL
MODEL 6
REMARK VINA RESULT:      -6.5      1.965      2.801
REMARK  Name = NuBBE_1904
REMARK  8 active torsions:
REMARK  status: ('A' for Active; 'I' for Inactive)
REMARK    1  A    between atoms: C_2  and  C_3
REMARK    2  A    between atoms: C_2  and  O_4
REMARK    3  A    between atoms: O_4  and  C_5
REMARK    4  A    between atoms: C_9  and  C_10
REMARK    5  A    between atoms: C_18  and  C_19
REMARK    6  A    between atoms: C_19  and  C_20
REMARK    7  A    between atoms: C_19  and  O_21
REMARK    8  A    between atoms: C_19  and  C_22
REMARK                            x       y       z     vdW  Elec       q    Type
REMARK                         _______ _______ _______ _____ _____    ______ ____
ROOT
ATOM      1  C   LIG A   1      -7.433  -0.167 124.870  0.00  0.00    +0.250 C 
ATOM      2  C   LIG A   1      -6.932   0.755 126.009  0.00  0.00    +0.253 C 
ATOM      3  C   LIG A   1      -7.236   0.115 127.299  0.00  0.00    +0.018 A 
ATOM      4  C   LIG A   1      -7.171  -1.242 127.549  0.00  0.00    -0.014 A 
ATOM      5  C   LIG A   1      -7.531  -1.669 128.836  0.00  0.00    -0.043 A 
ATOM      6  C   LIG A   1      -7.519  -3.125 129.211  0.00  0.00    +0.044 C 
ATOM      7  C   LIG A   1      -7.968  -0.711 129.793  0.00  0.00    +0.005 A 
ATOM      8  C   LIG A   1      -8.092   0.648 129.467  0.00  0.00    +0.015 A 
ATOM      9  C   LIG A   1      -7.727   1.023 128.192  0.00  0.00    +0.066 A 
ATOM     10  C   LIG A   1      -7.901   2.289 127.477  0.00  0.00    +0.340 C 
ATOM     11  O   LIG A   1      -7.565   2.038 126.156  0.00  0.00    -0.449 OA
ATOM     12  O   LIG A   1      -8.330   3.330 127.933  0.00  0.00    -0.245 OA
ATOM     13  C   LIG A   1      -6.831  -2.085 126.390  0.00  0.00    +0.014 C 
ATOM     14  C   LIG A   1      -6.968  -1.625 125.115  0.00  0.00    +0.006 C 
ENDROOT
BRANCH  14  15
ATOM     15  C   LIG A   1      -6.732  -2.502 123.881  0.00  0.00    +0.085 C 
ATOM     16  C   LIG A   1      -5.643  -3.559 124.104  0.00  0.00    +0.046 C 
ATOM     17  C   LIG A   1      -6.399  -1.680 122.631  0.00  0.00    +0.046 C 
BRANCH  15  18
ATOM     18  O   LIG A   1      -7.939  -3.210 123.559  0.00  0.00    -0.385 OA
ATOM     19  H   LIG A   1      -7.954  -3.353 122.598  0.00  0.00    +0.211 HD
ENDBRANCH  15  18
ENDBRANCH  14  15
BRANCH   1  20
ATOM     20  O   LIG A   1      -8.873  -0.198 124.870  0.00  0.00    -0.453 OA
BRANCH  20  22
ATOM     21  O   LIG A   1      -9.867  -0.894 122.923  0.00  0.00    -0.251 OA
ATOM     22  C   LIG A   1      -9.485  -0.009 123.673  0.00  0.00    +0.305 C 
ATOM     23  C   LIG A   1      -9.628   1.460 123.421  0.00  0.00    +0.136 C 
ENDBRANCH  20  22
ENDBRANCH   1  20
TORSDOF 4
ENDMDL
MODEL 7
REMARK VINA RESULT:      -6.4      2.059      3.470
REMARK  Name = NuBBE_1904
REMARK  8 active torsions:
REMARK  status: ('A' for Active; 'I' for Inactive)
REMARK    1  A    between atoms: C_2  and  C_3
REMARK    2  A    between atoms: C_2  and  O_4
REMARK    3  A    between atoms: O_4  and  C_5
REMARK    4  A    between atoms: C_9  and  C_10
REMARK    5  A    between atoms: C_18  and  C_19
REMARK    6  A    between atoms: C_19  and  C_20
REMARK    7  A    between atoms: C_19  and  O_21
REMARK    8  A    between atoms: C_19  and  C_22
REMARK                            x       y       z     vdW  Elec       q    Type
REMARK                         _______ _______ _______ _____ _____    ______ ____
ROOT
ATOM      1  C   LIG A   1      -7.157   0.769 127.705  0.00  0.00    +0.250 C 
ATOM      2  C   LIG A   1      -6.664  -0.523 128.401  0.00  0.00    +0.253 C 
ATOM      3  C   LIG A   1      -7.479  -1.653 127.924  0.00  0.00    +0.018 A 
ATOM      4  C   LIG A   1      -7.953  -1.804 126.636  0.00  0.00    -0.014 A 
ATOM      5  C   LIG A   1      -8.743  -2.935 126.379  0.00  0.00    -0.043 A 
ATOM      6  C   LIG A   1      -9.331  -3.187 125.017  0.00  0.00    +0.044 C 
ATOM      7  C   LIG A   1      -9.042  -3.835 127.440  0.00  0.00    +0.005 A 
ATOM      8  C   LIG A   1      -8.602  -3.596 128.751  0.00  0.00    +0.015 A 
ATOM      9  C   LIG A   1      -7.827  -2.475 128.957  0.00  0.00    +0.066 A 
ATOM     10  C   LIG A   1      -7.370  -1.840 130.195  0.00  0.00    +0.340 C 
ATOM     11  O   LIG A   1      -6.828  -0.618 129.826  0.00  0.00    -0.449 OA
ATOM     12  O   LIG A   1      -7.508  -2.263 131.325  0.00  0.00    -0.245 OA
ATOM     13  C   LIG A   1      -7.653  -0.696 125.715  0.00  0.00    +0.014 C 
ATOM     14  C   LIG A   1      -7.303   0.536 126.180  0.00  0.00    +0.006 C 
ENDROOT
BRANCH  14  15
ATOM     15  C   LIG A   1      -7.090   1.746 125.263  0.00  0.00    +0.085 C 
ATOM     16  C   LIG A   1      -6.995   1.357 123.782  0.00  0.00    +0.046 C 
ATOM     17  C   LIG A   1      -5.860   2.572 125.655  0.00  0.00    +0.046 C 
BRANCH  15  18
ATOM     18  O   LIG A   1      -8.205   2.642 125.387  0.00  0.00    -0.385 OA
ATOM     19  H   LIG A   1      -8.374   2.779 126.335  0.00  0.00    +0.211 HD
ENDBRANCH  15  18
ENDBRANCH  14  15
BRANCH   1  20
ATOM     20  O   LIG A   1      -8.471   1.108 128.189  0.00  0.00    -0.453 OA
BRANCH  20  22
ATOM     21  O   LIG A   1      -8.556   3.401 128.208  0.00  0.00    -0.251 OA
ATOM     22  C   LIG A   1      -8.606   2.323 128.780  0.00  0.00    +0.305 C 
ATOM     23  C   LIG A   1      -8.838   2.131 130.247  0.00  0.00    +0.136 C 
ENDBRANCH  20  22
ENDBRANCH   1  20
TORSDOF 4
ENDMDL
MODEL 8
REMARK VINA RESULT:      -6.4      2.270      4.246
REMARK  Name = NuBBE_1904
REMARK  8 active torsions:
REMARK  status: ('A' for Active; 'I' for Inactive)
REMARK    1  A    between atoms: C_2  and  C_3
REMARK    2  A    between atoms: C_2  and  O_4
REMARK    3  A    between atoms: O_4  and  C_5
REMARK    4  A    between atoms: C_9  and  C_10
REMARK    5  A    between atoms: C_18  and  C_19
REMARK    6  A    between atoms: C_19  and  C_20
REMARK    7  A    between atoms: C_19  and  O_21
REMARK    8  A    between atoms: C_19  and  C_22
REMARK                            x       y       z     vdW  Elec       q    Type
REMARK                         _______ _______ _______ _____ _____    ______ ____
ROOT
ATOM      1  C   LIG A   1      -6.404   1.886 125.608  0.00  0.00    +0.250 C 
ATOM      2  C   LIG A   1      -5.519   0.647 125.893  0.00  0.00    +0.253 C 
ATOM      3  C   LIG A   1      -6.159  -0.535 125.293  0.00  0.00    +0.018 A 
ATOM      4  C   LIG A   1      -6.846  -0.547 124.096  0.00  0.00    -0.014 A 
ATOM      5  C   LIG A   1      -7.418  -1.767 123.702  0.00  0.00    -0.043 A 
ATOM      6  C   LIG A   1      -8.206  -1.888 122.427  0.00  0.00    +0.044 C 
ATOM      7  C   LIG A   1      -7.297  -2.900 124.553  0.00  0.00    +0.005 A 
ATOM      8  C   LIG A   1      -6.657  -2.819 125.799  0.00  0.00    +0.015 A 
ATOM      9  C   LIG A   1      -6.109  -1.603 126.144  0.00  0.00    +0.066 A 
ATOM     10  C   LIG A   1      -5.550  -1.126 127.411  0.00  0.00    +0.340 C 
ATOM     11  O   LIG A   1      -5.363   0.239 127.263  0.00  0.00    -0.449 OA
ATOM     12  O   LIG A   1      -5.362  -1.782 128.416  0.00  0.00    -0.245 OA
ATOM     13  C   LIG A   1      -6.980   0.759 123.428  0.00  0.00    +0.014 C 
ATOM     14  C   LIG A   1      -6.807   1.924 124.112  0.00  0.00    +0.006 C 
ENDROOT
BRANCH  14  15
ATOM     15  C   LIG A   1      -7.046   3.303 123.487  0.00  0.00    +0.085 C 
ATOM     16  C   LIG A   1      -7.123   3.254 121.956  0.00  0.00    +0.046 C 
ATOM     17  C   LIG A   1      -5.992   4.332 123.913  0.00  0.00    +0.046 C 
BRANCH  15  18
ATOM     18  O   LIG A   1      -8.299   3.829 123.951  0.00  0.00    -0.385 OA
ATOM     19  H   LIG A   1      -8.845   3.081 124.248  0.00  0.00    +0.211 HD
ENDBRANCH  15  18
ENDBRANCH  14  15
BRANCH   1  20
ATOM     20  O   LIG A   1      -7.632   1.785 126.355  0.00  0.00    -0.453 OA
BRANCH  20  22
ATOM     21  O   LIG A   1      -8.098   3.953 126.944  0.00  0.00    -0.251 OA
ATOM     22  C   LIG A   1      -7.891   2.786 127.236  0.00  0.00    +0.305 C 
ATOM     23  C   LIG A   1      -7.892   2.227 128.625  0.00  0.00    +0.136 C 
ENDBRANCH  20  22
ENDBRANCH   1  20
TORSDOF 4
ENDMDL
MODEL 9
REMARK VINA RESULT:      -6.1      6.419      9.074
REMARK  Name = NuBBE_1904
REMARK  8 active torsions:
REMARK  status: ('A' for Active; 'I' for Inactive)
REMARK    1  A    between atoms: C_2  and  C_3
REMARK    2  A    between atoms: C_2  and  O_4
REMARK    3  A    between atoms: O_4  and  C_5
REMARK    4  A    between atoms: C_9  and  C_10
REMARK    5  A    between atoms: C_18  and  C_19
REMARK    6  A    between atoms: C_19  and  C_20
REMARK    7  A    between atoms: C_19  and  O_21
REMARK    8  A    between atoms: C_19  and  C_22
REMARK                            x       y       z     vdW  Elec       q    Type
REMARK                         _______ _______ _______ _____ _____    ______ ____
ROOT
ATOM      1  C   LIG A   1      -6.395   4.360 130.035  0.00  0.00    +0.250 C 
ATOM      2  C   LIG A   1      -4.877   4.055 130.004  0.00  0.00    +0.253 C 
ATOM      3  C   LIG A   1      -4.159   5.284 129.625  0.00  0.00    +0.018 A 
ATOM      4  C   LIG A   1      -4.510   6.562 130.011  0.00  0.00    -0.014 A 
ATOM      5  C   LIG A   1      -3.721   7.614 129.521  0.00  0.00    -0.043 A 
ATOM      6  C   LIG A   1      -4.027   9.047 129.860  0.00  0.00    +0.044 C 
ATOM      7  C   LIG A   1      -2.642   7.325 128.641  0.00  0.00    +0.005 A 
ATOM      8  C   LIG A   1      -2.373   6.016 128.213  0.00  0.00    +0.015 A 
ATOM      9  C   LIG A   1      -3.171   5.014 128.721  0.00  0.00    +0.066 A 
ATOM     10  C   LIG A   1      -3.287   3.601 128.355  0.00  0.00    +0.340 C 
ATOM     11  O   LIG A   1      -4.404   3.119 129.021  0.00  0.00    -0.449 OA
ATOM     12  O   LIG A   1      -2.592   2.993 127.566  0.00  0.00    -0.245 OA
ATOM     13  C   LIG A   1      -5.742   6.667 130.812  0.00  0.00    +0.014 C 
ATOM     14  C   LIG A   1      -6.665   5.665 130.826  0.00  0.00    +0.006 C 
ENDROOT
BRANCH  14  15
ATOM     15  C   LIG A   1      -8.009   5.776 131.554  0.00  0.00    +0.085 C 
ATOM     16  C   LIG A   1      -8.902   6.885 130.981  0.00  0.00    +0.046 C 
ATOM     17  C   LIG A   1      -7.845   5.981 133.064  0.00  0.00    +0.046 C 
BRANCH  15  18
ATOM     18  O   LIG A   1      -8.733   4.544 131.414  0.00  0.00    -0.385 OA
ATOM     19  H   LIG A   1      -9.486   4.706 130.822  0.00  0.00    +0.211 HD
ENDBRANCH  15  18
ENDBRANCH  14  15
BRANCH   1  20
ATOM     20  O   LIG A   1      -6.868   4.595 128.694  0.00  0.00    -0.453 OA
BRANCH  20  22
ATOM     21  O   LIG A   1      -9.051   3.890 128.681  0.00  0.00    -0.251 OA
ATOM     22  C   LIG A   1      -7.903   3.825 128.271  0.00  0.00    +0.305 C 
ATOM     23  C   LIG A   1      -7.414   2.886 127.211  0.00  0.00    +0.136 C 
ENDBRANCH  20  22
ENDBRANCH   1  20
TORSDOF 4
ENDMDL
