MODEL 1
REMARK VINA RESULT:      -6.0      0.000      0.000
REMARK  Name = NuBBE_457
REMARK  14 active torsions:
REMARK  status: ('A' for Active; 'I' for Inactive)
REMARK    1  A    between atoms: O_1  and  C_2
REMARK    2  A    between atoms: C_4  and  C_6
REMARK    3  A    between atoms: C_9  and  C_11
REMARK    4  A    between atoms: C_11  and  C_12
REMARK    5  A    between atoms: C_12  and  C_13
REMARK    6  A    between atoms: C_13  and  C_14
REMARK    7  A    between atoms: C_14  and  C_15
REMARK    8  A    between atoms: C_15  and  C_16
REMARK    9  A    between atoms: C_16  and  C_17
REMARK   10  A    between atoms: C_17  and  C_18
REMARK   11  A    between atoms: C_18  and  C_19
REMARK   12  A    between atoms: C_19  and  C_20
REMARK   13  A    between atoms: C_20  and  C_21
REMARK   14  A    between atoms: C_21  and  O_22
REMARK                            x       y       z     vdW  Elec       q    Type
REMARK                         _______ _______ _______ _____ _____    ______ ____
ROOT
ATOM      1  C   LIG A   1      -9.536   2.929 130.721  0.00  0.00    +0.002 C 
ENDROOT
BRANCH   1   2
ATOM      2  C   LIG A   1     -10.676   3.926 130.463  0.00  0.00    +0.019 C 
BRANCH   2   8
ATOM      3  C   LIG A   1     -12.606   6.877 130.816  0.00  0.00    +0.131 C 
ATOM      4  C   LIG A   1     -12.407   6.199 129.427  0.00  0.00    +0.079 C 
ATOM      5  C   LIG A   1     -13.051   6.976 128.281  0.00  0.00    +0.026 C 
ATOM      6  N   LIG A   1     -11.017   5.979 129.035  0.00  0.00    -0.308 NA
ATOM      7  H   LIG A   1     -10.579   6.867 128.781  0.00  0.00    +0.122 HD
ATOM      8  C   LIG A   1     -10.232   5.357 130.093  0.00  0.00    +0.054 C 
ATOM      9  C   LIG A   1     -10.161   6.321 131.279  0.00  0.00    +0.021 C 
ATOM     10  C   LIG A   1     -11.545   6.544 131.879  0.00  0.00    +0.034 C 
BRANCH   3  11
ATOM     11  O   LIG A   1     -12.713   8.298 130.711  0.00  0.00    -0.390 OA
ATOM     12  H   LIG A   1     -13.017   8.516 129.816  0.00  0.00    +0.210 HD
ENDBRANCH   3  11
ENDBRANCH   2   8
ENDBRANCH   1   2
BRANCH   1  13
ATOM     13  C   LIG A   1      -9.565   2.218 132.075  0.00  0.00    +0.000 C 
BRANCH  13  14
ATOM     14  C   LIG A   1      -9.311   3.043 133.342  0.00  0.00    -0.000 C 
BRANCH  14  15
ATOM     15  C   LIG A   1      -7.830   3.097 133.729  0.00  0.00    -0.000 C 
BRANCH  15  16
ATOM     16  C   LIG A   1      -7.315   4.540 133.837  0.00  0.00    -0.000 C 
BRANCH  16  17
ATOM     17  C   LIG A   1      -7.015   4.999 135.260  0.00  0.00    +0.000 C 
BRANCH  17  18
ATOM     18  C   LIG A   1      -8.119   5.873 135.886  0.00  0.00    +0.000 C 
BRANCH  18  19
ATOM     19  C   LIG A   1      -7.725   6.968 136.897  0.00  0.00    +0.011 C 
BRANCH  19  20
ATOM     20  C   LIG A   1      -8.712   7.398 137.991  0.00  0.00    +0.120 C 
BRANCH  20  21
ATOM     21  C   LIG A   1      -9.584   8.598 137.677  0.00  0.00    +0.305 C 
ATOM     22  O   LIG A   1      -9.874   9.519 138.393  0.00  0.00    -0.251 OA
BRANCH  21  23
ATOM     23  O   LIG A   1      -9.971   8.591 136.373  0.00  0.00    -0.481 OA
ATOM     24  H   LIG A   1     -10.253   9.515 136.211  0.00  0.00    +0.295 HD
ENDBRANCH  21  23
ENDBRANCH  20  21
ENDBRANCH  19  20
ENDBRANCH  18  19
ENDBRANCH  17  18
ENDBRANCH  16  17
ENDBRANCH  15  16
ENDBRANCH  14  15
ENDBRANCH  13  14
ENDBRANCH   1  13
TORSDOF 13
ENDMDL
MODEL 2
REMARK VINA RESULT:      -5.9      3.093      4.231
REMARK  Name = NuBBE_457
REMARK  14 active torsions:
REMARK  status: ('A' for Active; 'I' for Inactive)
REMARK    1  A    between atoms: O_1  and  C_2
REMARK    2  A    between atoms: C_4  and  C_6
REMARK    3  A    between atoms: C_9  and  C_11
REMARK    4  A    between atoms: C_11  and  C_12
REMARK    5  A    between atoms: C_12  and  C_13
REMARK    6  A    between atoms: C_13  and  C_14
REMARK    7  A    between atoms: C_14  and  C_15
REMARK    8  A    between atoms: C_15  and  C_16
REMARK    9  A    between atoms: C_16  and  C_17
REMARK   10  A    between atoms: C_17  and  C_18
REMARK   11  A    between atoms: C_18  and  C_19
REMARK   12  A    between atoms: C_19  and  C_20
REMARK   13  A    between atoms: C_20  and  C_21
REMARK   14  A    between atoms: C_21  and  O_22
REMARK                            x       y       z     vdW  Elec       q    Type
REMARK                         _______ _______ _______ _____ _____    ______ ____
ROOT
ATOM      1  C   LIG A   1     -10.021   2.906 130.453  0.00  0.00    +0.002 C 
ENDROOT
BRANCH   1   2
ATOM      2  C   LIG A   1     -11.033   4.062 130.469  0.00  0.00    +0.019 C 
BRANCH   2   8
ATOM      3  C   LIG A   1     -12.797   7.135 130.512  0.00  0.00    +0.131 C 
ATOM      4  C   LIG A   1     -12.474   6.404 129.174  0.00  0.00    +0.079 C 
ATOM      5  C   LIG A   1     -12.921   7.183 127.939  0.00  0.00    +0.026 C 
ATOM      6  N   LIG A   1     -11.063   6.087 128.963  0.00  0.00    -0.308 NA
ATOM      7  H   LIG A   1     -10.541   6.938 128.744  0.00  0.00    +0.122 HD
ATOM      8  C   LIG A   1     -10.455   5.450 130.124  0.00  0.00    +0.054 C 
ATOM      9  C   LIG A   1     -10.467   6.445 131.287  0.00  0.00    +0.021 C 
ATOM     10  C   LIG A   1     -11.897   6.771 131.705  0.00  0.00    +0.034 C 
BRANCH   3  11
ATOM     11  O   LIG A   1     -12.798   8.556 130.361  0.00  0.00    -0.390 OA
ATOM     12  H   LIG A   1     -11.884   8.849 130.219  0.00  0.00    +0.210 HD
ENDBRANCH   3  11
ENDBRANCH   2   8
ENDBRANCH   1   2
BRANCH   1  13
ATOM     13  C   LIG A   1      -8.862   3.020 131.445  0.00  0.00    +0.000 C 
BRANCH  13  14
ATOM     14  C   LIG A   1      -9.108   2.630 132.907  0.00  0.00    -0.000 C 
BRANCH  14  15
ATOM     15  C   LIG A   1      -9.331   3.841 133.816  0.00  0.00    -0.000 C 
BRANCH  15  16
ATOM     16  C   LIG A   1      -8.068   4.204 134.613  0.00  0.00    -0.000 C 
BRANCH  16  17
ATOM     17  C   LIG A   1      -7.588   5.638 134.415  0.00  0.00    +0.000 C 
BRANCH  17  18
ATOM     18  C   LIG A   1      -6.499   5.795 133.336  0.00  0.00    +0.000 C 
BRANCH  18  19
ATOM     19  C   LIG A   1      -6.918   6.129 131.891  0.00  0.00    +0.011 C 
BRANCH  19  20
ATOM     20  C   LIG A   1      -6.031   7.028 131.019  0.00  0.00    +0.120 C 
BRANCH  20  21
ATOM     21  C   LIG A   1      -4.890   6.346 130.291  0.00  0.00    +0.305 C 
ATOM     22  O   LIG A   1      -4.409   5.265 130.502  0.00  0.00    -0.251 OA
BRANCH  21  23
ATOM     23  O   LIG A   1      -4.480   7.086 129.227  0.00  0.00    -0.481 OA
ATOM     24  H   LIG A   1      -4.290   6.415 128.538  0.00  0.00    +0.295 HD
ENDBRANCH  21  23
ENDBRANCH  20  21
ENDBRANCH  19  20
ENDBRANCH  18  19
ENDBRANCH  17  18
ENDBRANCH  16  17
ENDBRANCH  15  16
ENDBRANCH  14  15
ENDBRANCH  13  14
ENDBRANCH   1  13
TORSDOF 13
ENDMDL
MODEL 3
REMARK VINA RESULT:      -5.9      9.734     10.868
REMARK  Name = NuBBE_457
REMARK  14 active torsions:
REMARK  status: ('A' for Active; 'I' for Inactive)
REMARK    1  A    between atoms: O_1  and  C_2
REMARK    2  A    between atoms: C_4  and  C_6
REMARK    3  A    between atoms: C_9  and  C_11
REMARK    4  A    between atoms: C_11  and  C_12
REMARK    5  A    between atoms: C_12  and  C_13
REMARK    6  A    between atoms: C_13  and  C_14
REMARK    7  A    between atoms: C_14  and  C_15
REMARK    8  A    between atoms: C_15  and  C_16
REMARK    9  A    between atoms: C_16  and  C_17
REMARK   10  A    between atoms: C_17  and  C_18
REMARK   11  A    between atoms: C_18  and  C_19
REMARK   12  A    between atoms: C_19  and  C_20
REMARK   13  A    between atoms: C_20  and  C_21
REMARK   14  A    between atoms: C_21  and  O_22
REMARK                            x       y       z     vdW  Elec       q    Type
REMARK                         _______ _______ _______ _____ _____    ______ ____
ROOT
ATOM      1  C   LIG A   1      -6.623  -2.381 124.432  0.00  0.00    +0.002 C 
ENDROOT
BRANCH   1   2
ATOM      2  C   LIG A   1      -7.159  -1.000 124.026  0.00  0.00    +0.019 C 
BRANCH   2   8
ATOM      3  C   LIG A   1      -8.969   2.044 124.153  0.00  0.00    +0.131 C 
ATOM      4  C   LIG A   1      -7.494   1.998 123.651  0.00  0.00    +0.079 C 
ATOM      5  C   LIG A   1      -6.930   3.377 123.315  0.00  0.00    +0.026 C 
ATOM      6  N   LIG A   1      -6.542   1.386 124.575  0.00  0.00    -0.308 NA
ATOM      7  H   LIG A   1      -6.364   2.012 125.362  0.00  0.00    +0.122 HD
ATOM      8  C   LIG A   1      -7.011   0.107 125.092  0.00  0.00    +0.054 C 
ATOM      9  C   LIG A   1      -8.270   0.350 125.926  0.00  0.00    +0.021 C 
ATOM     10  C   LIG A   1      -9.405   0.875 125.053  0.00  0.00    +0.034 C 
BRANCH   3  11
ATOM     11  O   LIG A   1      -9.271   3.270 124.823  0.00  0.00    -0.390 OA
ATOM     12  H   LIG A   1      -8.676   3.357 125.584  0.00  0.00    +0.210 HD
ENDBRANCH   3  11
ENDBRANCH   2   8
ENDBRANCH   1   2
BRANCH   1  13
ATOM     13  C   LIG A   1      -7.668  -3.490 124.565  0.00  0.00    +0.000 C 
BRANCH  13  14
ATOM     14  C   LIG A   1      -9.141  -3.093 124.720  0.00  0.00    -0.000 C 
BRANCH  14  15
ATOM     15  C   LIG A   1      -9.590  -3.029 126.182  0.00  0.00    -0.000 C 
BRANCH  15  16
ATOM     16  C   LIG A   1      -8.776  -3.978 127.076  0.00  0.00    -0.000 C 
BRANCH  16  17
ATOM     17  C   LIG A   1      -8.732  -3.578 128.547  0.00  0.00    +0.000 C 
BRANCH  17  18
ATOM     18  C   LIG A   1      -7.362  -3.051 129.015  0.00  0.00    +0.000 C 
BRANCH  18  19
ATOM     19  C   LIG A   1      -6.644  -1.977 128.174  0.00  0.00    +0.011 C 
BRANCH  19  20
ATOM     20  C   LIG A   1      -5.142  -2.100 127.885  0.00  0.00    +0.120 C 
BRANCH  20  21
ATOM     21  C   LIG A   1      -4.287  -2.676 128.996  0.00  0.00    +0.305 C 
ATOM     22  O   LIG A   1      -3.769  -3.759 129.056  0.00  0.00    -0.251 OA
BRANCH  21  23
ATOM     23  O   LIG A   1      -4.061  -1.750 129.967  0.00  0.00    -0.481 OA
ATOM     24  H   LIG A   1      -3.084  -1.724 130.038  0.00  0.00    +0.295 HD
ENDBRANCH  21  23
ENDBRANCH  20  21
ENDBRANCH  19  20
ENDBRANCH  18  19
ENDBRANCH  17  18
ENDBRANCH  16  17
ENDBRANCH  15  16
ENDBRANCH  14  15
ENDBRANCH  13  14
ENDBRANCH   1  13
TORSDOF 13
ENDMDL
MODEL 4
REMARK VINA RESULT:      -5.9     10.135     12.779
REMARK  Name = NuBBE_457
REMARK  14 active torsions:
REMARK  status: ('A' for Active; 'I' for Inactive)
REMARK    1  A    between atoms: O_1  and  C_2
REMARK    2  A    between atoms: C_4  and  C_6
REMARK    3  A    between atoms: C_9  and  C_11
REMARK    4  A    between atoms: C_11  and  C_12
REMARK    5  A    between atoms: C_12  and  C_13
REMARK    6  A    between atoms: C_13  and  C_14
REMARK    7  A    between atoms: C_14  and  C_15
REMARK    8  A    between atoms: C_15  and  C_16
REMARK    9  A    between atoms: C_16  and  C_17
REMARK   10  A    between atoms: C_17  and  C_18
REMARK   11  A    between atoms: C_18  and  C_19
REMARK   12  A    between atoms: C_19  and  C_20
REMARK   13  A    between atoms: C_20  and  C_21
REMARK   14  A    between atoms: C_21  and  O_22
REMARK                            x       y       z     vdW  Elec       q    Type
REMARK                         _______ _______ _______ _____ _____    ______ ____
ROOT
ATOM      1  C   LIG A   1      -8.580  -3.299 128.255  0.00  0.00    +0.002 C 
ENDROOT
BRANCH   1   2
ATOM      2  C   LIG A   1      -7.428  -3.671 129.201  0.00  0.00    +0.019 C 
BRANCH   2   8
ATOM      3  C   LIG A   1      -3.906  -3.305 129.341  0.00  0.00    +0.131 C 
ATOM      4  C   LIG A   1      -4.729  -3.717 130.599  0.00  0.00    +0.079 C 
ATOM      5  C   LIG A   1      -3.876  -3.858 131.857  0.00  0.00    +0.026 C 
ATOM      6  N   LIG A   1      -5.822  -2.815 130.950  0.00  0.00    -0.308 NA
ATOM      7  H   LIG A   1      -5.450  -1.951 131.350  0.00  0.00    +0.122 HD
ATOM      8  C   LIG A   1      -6.658  -2.478 129.805  0.00  0.00    +0.054 C 
ATOM      9  C   LIG A   1      -5.811  -1.699 128.796  0.00  0.00    +0.021 C 
ATOM     10  C   LIG A   1      -4.692  -2.573 128.239  0.00  0.00    +0.034 C 
BRANCH   3  11
ATOM     11  O   LIG A   1      -2.763  -2.518 129.682  0.00  0.00    -0.390 OA
ATOM     12  H   LIG A   1      -2.063  -2.698 129.035  0.00  0.00    +0.210 HD
ENDBRANCH   3  11
ENDBRANCH   2   8
ENDBRANCH   1   2
BRANCH   1  13
ATOM     13  C   LIG A   1      -8.228  -3.236 126.768  0.00  0.00    +0.000 C 
BRANCH  13  14
ATOM     14  C   LIG A   1      -9.357  -2.998 125.757  0.00  0.00    -0.000 C 
BRANCH  14  15
ATOM     15  C   LIG A   1      -9.035  -3.549 124.366  0.00  0.00    -0.000 C 
BRANCH  15  16
ATOM     16  C   LIG A   1      -9.028  -2.446 123.296  0.00  0.00    -0.000 C 
BRANCH  16  17
ATOM     17  C   LIG A   1      -7.642  -2.077 122.779  0.00  0.00    +0.000 C 
BRANCH  17  18
ATOM     18  C   LIG A   1      -7.075  -0.773 123.373  0.00  0.00    +0.000 C 
BRANCH  18  19
ATOM     19  C   LIG A   1      -8.006   0.148 124.185  0.00  0.00    +0.011 C 
BRANCH  19  20
ATOM     20  C   LIG A   1      -8.783   1.271 123.485  0.00  0.00    +0.120 C 
BRANCH  20  21
ATOM     21  C   LIG A   1     -10.242   0.992 123.184  0.00  0.00    +0.305 C 
ATOM     22  O   LIG A   1     -10.710   0.337 122.291  0.00  0.00    -0.251 OA
BRANCH  21  23
ATOM     23  O   LIG A   1     -11.047   1.516 124.147  0.00  0.00    -0.481 OA
ATOM     24  H   LIG A   1     -11.937   1.178 123.914  0.00  0.00    +0.295 HD
ENDBRANCH  21  23
ENDBRANCH  20  21
ENDBRANCH  19  20
ENDBRANCH  18  19
ENDBRANCH  17  18
ENDBRANCH  16  17
ENDBRANCH  15  16
ENDBRANCH  14  15
ENDBRANCH  13  14
ENDBRANCH   1  13
TORSDOF 13
ENDMDL
MODEL 5
REMARK VINA RESULT:      -5.9      9.621     12.710
REMARK  Name = NuBBE_457
REMARK  14 active torsions:
REMARK  status: ('A' for Active; 'I' for Inactive)
REMARK    1  A    between atoms: O_1  and  C_2
REMARK    2  A    between atoms: C_4  and  C_6
REMARK    3  A    between atoms: C_9  and  C_11
REMARK    4  A    between atoms: C_11  and  C_12
REMARK    5  A    between atoms: C_12  and  C_13
REMARK    6  A    between atoms: C_13  and  C_14
REMARK    7  A    between atoms: C_14  and  C_15
REMARK    8  A    between atoms: C_15  and  C_16
REMARK    9  A    between atoms: C_16  and  C_17
REMARK   10  A    between atoms: C_17  and  C_18
REMARK   11  A    between atoms: C_18  and  C_19
REMARK   12  A    between atoms: C_19  and  C_20
REMARK   13  A    between atoms: C_20  and  C_21
REMARK   14  A    between atoms: C_21  and  O_22
REMARK                            x       y       z     vdW  Elec       q    Type
REMARK                         _______ _______ _______ _____ _____    ______ ____
ROOT
ATOM      1  C   LIG A   1      -8.342  -2.916 129.671  0.00  0.00    +0.002 C 
ENDROOT
BRANCH   1   2
ATOM      2  C   LIG A   1      -7.266  -3.207 130.727  0.00  0.00    +0.019 C 
BRANCH   2   8
ATOM      3  C   LIG A   1      -4.328  -3.837 132.607  0.00  0.00    +0.131 C 
ATOM      4  C   LIG A   1      -4.463  -2.566 131.713  0.00  0.00    +0.079 C 
ATOM      5  C   LIG A   1      -3.198  -1.711 131.689  0.00  0.00    +0.026 C 
ATOM      6  N   LIG A   1      -4.805  -2.821 130.316  0.00  0.00    -0.308 NA
ATOM      7  H   LIG A   1      -3.999  -3.210 129.822  0.00  0.00    +0.122 HD
ATOM      8  C   LIG A   1      -5.927  -3.741 130.176  0.00  0.00    +0.054 C 
ATOM      9  C   LIG A   1      -5.513  -5.103 130.737  0.00  0.00    +0.021 C 
ATOM     10  C   LIG A   1      -5.247  -5.013 132.236  0.00  0.00    +0.034 C 
BRANCH   3  11
ATOM     11  O   LIG A   1      -2.982  -4.313 132.664  0.00  0.00    -0.390 OA
ATOM     12  H   LIG A   1      -2.455  -3.818 132.017  0.00  0.00    +0.210 HD
ENDBRANCH   3  11
ENDBRANCH   2   8
ENDBRANCH   1   2
BRANCH   1  13
ATOM     13  C   LIG A   1      -7.923  -3.127 128.215  0.00  0.00    +0.000 C 
BRANCH  13  14
ATOM     14  C   LIG A   1      -8.870  -3.894 127.284  0.00  0.00    -0.000 C 
BRANCH  14  15
ATOM     15  C   LIG A   1      -9.337  -3.056 126.090  0.00  0.00    -0.000 C 
BRANCH  15  16
ATOM     16  C   LIG A   1      -8.656  -3.489 124.782  0.00  0.00    -0.000 C 
BRANCH  16  17
ATOM     17  C   LIG A   1      -9.391  -3.059 123.516  0.00  0.00    +0.000 C 
BRANCH  17  18
ATOM     18  C   LIG A   1      -8.738  -1.873 122.781  0.00  0.00    +0.000 C 
BRANCH  18  19
ATOM     19  C   LIG A   1      -7.969  -0.816 123.597  0.00  0.00    +0.011 C 
BRANCH  19  20
ATOM     20  C   LIG A   1      -8.452   0.641 123.619  0.00  0.00    +0.120 C 
BRANCH  20  21
ATOM     21  C   LIG A   1      -9.586   0.960 124.572  0.00  0.00    +0.305 C 
ATOM     22  O   LIG A   1     -10.142   0.226 125.344  0.00  0.00    -0.251 OA
BRANCH  21  23
ATOM     23  O   LIG A   1      -9.887   2.286 124.545  0.00  0.00    -0.481 OA
ATOM     24  H   LIG A   1      -9.276   2.649 123.870  0.00  0.00    +0.295 HD
ENDBRANCH  21  23
ENDBRANCH  20  21
ENDBRANCH  19  20
ENDBRANCH  18  19
ENDBRANCH  17  18
ENDBRANCH  16  17
ENDBRANCH  15  16
ENDBRANCH  14  15
ENDBRANCH  13  14
ENDBRANCH   1  13
TORSDOF 13
ENDMDL
MODEL 6
REMARK VINA RESULT:      -5.8      9.876     13.570
REMARK  Name = NuBBE_457
REMARK  14 active torsions:
REMARK  status: ('A' for Active; 'I' for Inactive)
REMARK    1  A    between atoms: O_1  and  C_2
REMARK    2  A    between atoms: C_4  and  C_6
REMARK    3  A    between atoms: C_9  and  C_11
REMARK    4  A    between atoms: C_11  and  C_12
REMARK    5  A    between atoms: C_12  and  C_13
REMARK    6  A    between atoms: C_13  and  C_14
REMARK    7  A    between atoms: C_14  and  C_15
REMARK    8  A    between atoms: C_15  and  C_16
REMARK    9  A    between atoms: C_16  and  C_17
REMARK   10  A    between atoms: C_17  and  C_18
REMARK   11  A    between atoms: C_18  and  C_19
REMARK   12  A    between atoms: C_19  and  C_20
REMARK   13  A    between atoms: C_20  and  C_21
REMARK   14  A    between atoms: C_21  and  O_22
REMARK                            x       y       z     vdW  Elec       q    Type
REMARK                         _______ _______ _______ _____ _____    ______ ____
ROOT
ATOM      1  C   LIG A   1      -8.273  -2.737 129.087  0.00  0.00    +0.002 C 
ENDROOT
BRANCH   1   2
ATOM      2  C   LIG A   1      -7.172  -3.279 130.011  0.00  0.00    +0.019 C 
BRANCH   2   8
ATOM      3  C   LIG A   1      -4.241  -2.216 131.697  0.00  0.00    +0.131 C 
ATOM      4  C   LIG A   1      -4.948  -1.307 130.646  0.00  0.00    +0.079 C 
ATOM      5  C   LIG A   1      -4.207   0.004 130.390  0.00  0.00    +0.026 C 
ATOM      6  N   LIG A   1      -5.157  -1.916 129.336  0.00  0.00    -0.308 NA
ATOM      7  H   LIG A   1      -4.270  -1.983 128.834  0.00  0.00    +0.122 HD
ATOM      8  C   LIG A   1      -5.744  -3.247 129.427  0.00  0.00    +0.054 C 
ATOM      9  C   LIG A   1      -4.752  -4.169 130.138  0.00  0.00    +0.021 C 
ATOM     10  C   LIG A   1      -4.535  -3.722 131.580  0.00  0.00    +0.034 C 
BRANCH   3  11
ATOM     11  O   LIG A   1      -2.825  -2.028 131.703  0.00  0.00    -0.390 OA
ATOM     12  H   LIG A   1      -2.617  -1.251 131.162  0.00  0.00    +0.210 HD
ENDBRANCH   3  11
ENDBRANCH   2   8
ENDBRANCH   1   2
BRANCH   1  13
ATOM     13  C   LIG A   1      -8.719  -3.671 127.962  0.00  0.00    +0.000 C 
BRANCH  13  14
ATOM     14  C   LIG A   1      -8.298  -3.339 126.525  0.00  0.00    -0.000 C 
BRANCH  14  15
ATOM     15  C   LIG A   1      -9.391  -2.611 125.738  0.00  0.00    -0.000 C 
BRANCH  15  16
ATOM     16  C   LIG A   1      -8.821  -1.842 124.536  0.00  0.00    -0.000 C 
BRANCH  16  17
ATOM     17  C   LIG A   1      -8.127  -2.717 123.498  0.00  0.00    +0.000 C 
BRANCH  17  18
ATOM     18  C   LIG A   1      -6.736  -2.208 123.074  0.00  0.00    +0.000 C 
BRANCH  18  19
ATOM     19  C   LIG A   1      -5.520  -2.512 123.971  0.00  0.00    +0.011 C 
BRANCH  19  20
ATOM     20  C   LIG A   1      -5.167  -3.963 124.326  0.00  0.00    +0.120 C 
BRANCH  20  21
ATOM     21  C   LIG A   1      -4.080  -4.614 123.495  0.00  0.00    +0.305 C 
ATOM     22  O   LIG A   1      -2.972  -4.208 123.264  0.00  0.00    -0.251 OA
BRANCH  21  23
ATOM     23  O   LIG A   1      -4.463  -5.848 123.071  0.00  0.00    -0.481 OA
ATOM     24  H   LIG A   1      -4.941  -5.667 122.234  0.00  0.00    +0.295 HD
ENDBRANCH  21  23
ENDBRANCH  20  21
ENDBRANCH  19  20
ENDBRANCH  18  19
ENDBRANCH  17  18
ENDBRANCH  16  17
ENDBRANCH  15  16
ENDBRANCH  14  15
ENDBRANCH  13  14
ENDBRANCH   1  13
TORSDOF 13
ENDMDL
MODEL 7
REMARK VINA RESULT:      -5.8      5.127      8.306
REMARK  Name = NuBBE_457
REMARK  14 active torsions:
REMARK  status: ('A' for Active; 'I' for Inactive)
REMARK    1  A    between atoms: O_1  and  C_2
REMARK    2  A    between atoms: C_4  and  C_6
REMARK    3  A    between atoms: C_9  and  C_11
REMARK    4  A    between atoms: C_11  and  C_12
REMARK    5  A    between atoms: C_12  and  C_13
REMARK    6  A    between atoms: C_13  and  C_14
REMARK    7  A    between atoms: C_14  and  C_15
REMARK    8  A    between atoms: C_15  and  C_16
REMARK    9  A    between atoms: C_16  and  C_17
REMARK   10  A    between atoms: C_17  and  C_18
REMARK   11  A    between atoms: C_18  and  C_19
REMARK   12  A    between atoms: C_19  and  C_20
REMARK   13  A    between atoms: C_20  and  C_21
REMARK   14  A    between atoms: C_21  and  O_22
REMARK                            x       y       z     vdW  Elec       q    Type
REMARK                         _______ _______ _______ _____ _____    ______ ____
ROOT
ATOM      1  C   LIG A   1      -6.164   6.060 132.407  0.00  0.00    +0.002 C 
ENDROOT
BRANCH   1   2
ATOM      2  C   LIG A   1      -5.371   5.341 131.305  0.00  0.00    +0.019 C 
BRANCH   2   8
ATOM      3  C   LIG A   1      -3.610   6.707 128.550  0.00  0.00    +0.131 C 
ATOM      4  C   LIG A   1      -3.516   5.192 128.902  0.00  0.00    +0.079 C 
ATOM      5  C   LIG A   1      -2.551   4.424 128.002  0.00  0.00    +0.026 C 
ATOM      6  N   LIG A   1      -3.111   4.896 130.274  0.00  0.00    -0.308 NA
ATOM      7  H   LIG A   1      -2.115   5.092 130.396  0.00  0.00    +0.122 HD
ATOM      8  C   LIG A   1      -3.863   5.666 131.256  0.00  0.00    +0.054 C 
ATOM      9  C   LIG A   1      -3.544   7.149 131.061  0.00  0.00    +0.021 C 
ATOM     10  C   LIG A   1      -4.037   7.634 129.702  0.00  0.00    +0.034 C 
BRANCH   3  11
ATOM     11  O   LIG A   1      -2.393   7.206 127.992  0.00  0.00    -0.390 OA
ATOM     12  H   LIG A   1      -1.681   7.066 128.636  0.00  0.00    +0.210 HD
ENDBRANCH   3  11
ENDBRANCH   2   8
ENDBRANCH   1   2
BRANCH   1  13
ATOM     13  C   LIG A   1      -7.671   6.177 132.177  0.00  0.00    +0.000 C 
BRANCH  13  14
ATOM     14  C   LIG A   1      -8.167   6.938 130.941  0.00  0.00    -0.000 C 
BRANCH  14  15
ATOM     15  C   LIG A   1      -9.553   6.483 130.479  0.00  0.00    -0.000 C 
BRANCH  15  16
ATOM     16  C   LIG A   1     -10.546   6.382 131.648  0.00  0.00    -0.000 C 
BRANCH  16  17
ATOM     17  C   LIG A   1     -11.951   6.880 131.328  0.00  0.00    +0.000 C 
BRANCH  17  18
ATOM     18  C   LIG A   1     -12.311   6.830 129.830  0.00  0.00    +0.000 C 
BRANCH  18  19
ATOM     19  C   LIG A   1     -12.355   8.144 129.026  0.00  0.00    +0.011 C 
BRANCH  19  20
ATOM     20  C   LIG A   1     -11.376   8.371 127.866  0.00  0.00    +0.120 C 
BRANCH  20  21
ATOM     21  C   LIG A   1     -11.615   7.552 126.613  0.00  0.00    +0.305 C 
ATOM     22  O   LIG A   1     -12.436   6.695 126.426  0.00  0.00    -0.251 OA
BRANCH  21  23
ATOM     23  O   LIG A   1     -10.810   7.968 125.598  0.00  0.00    -0.481 OA
ATOM     24  H   LIG A   1     -11.129   8.875 125.407  0.00  0.00    +0.295 HD
ENDBRANCH  21  23
ENDBRANCH  20  21
ENDBRANCH  19  20
ENDBRANCH  18  19
ENDBRANCH  17  18
ENDBRANCH  16  17
ENDBRANCH  15  16
ENDBRANCH  14  15
ENDBRANCH  13  14
ENDBRANCH   1  13
TORSDOF 13
ENDMDL
MODEL 8
REMARK VINA RESULT:      -5.8      8.693     10.897
REMARK  Name = NuBBE_457
REMARK  14 active torsions:
REMARK  status: ('A' for Active; 'I' for Inactive)
REMARK    1  A    between atoms: O_1  and  C_2
REMARK    2  A    between atoms: C_4  and  C_6
REMARK    3  A    between atoms: C_9  and  C_11
REMARK    4  A    between atoms: C_11  and  C_12
REMARK    5  A    between atoms: C_12  and  C_13
REMARK    6  A    between atoms: C_13  and  C_14
REMARK    7  A    between atoms: C_14  and  C_15
REMARK    8  A    between atoms: C_15  and  C_16
REMARK    9  A    between atoms: C_16  and  C_17
REMARK   10  A    between atoms: C_17  and  C_18
REMARK   11  A    between atoms: C_18  and  C_19
REMARK   12  A    between atoms: C_19  and  C_20
REMARK   13  A    between atoms: C_20  and  C_21
REMARK   14  A    between atoms: C_21  and  O_22
REMARK                            x       y       z     vdW  Elec       q    Type
REMARK                         _______ _______ _______ _____ _____    ______ ____
ROOT
ATOM      1  C   LIG A   1      -9.420  -0.276 123.021  0.00  0.00    +0.002 C 
ENDROOT
BRANCH   1   2
ATOM      2  C   LIG A   1      -8.768   0.776 123.931  0.00  0.00    +0.019 C 
BRANCH   2   8
ATOM      3  C   LIG A   1      -6.620   3.579 124.225  0.00  0.00    +0.131 C 
ATOM      4  C   LIG A   1      -7.722   3.287 125.288  0.00  0.00    +0.079 C 
ATOM      5  C   LIG A   1      -7.807   4.355 126.375  0.00  0.00    +0.026 C 
ATOM      6  N   LIG A   1      -9.075   3.142 124.757  0.00  0.00    -0.308 NA
ATOM      7  H   LIG A   1      -9.442   4.053 124.476  0.00  0.00    +0.122 HD
ATOM      8  C   LIG A   1      -9.131   2.241 123.612  0.00  0.00    +0.054 C 
ATOM      9  C   LIG A   1      -8.321   2.856 122.469  0.00  0.00    +0.021 C 
ATOM     10  C   LIG A   1      -6.845   2.949 122.840  0.00  0.00    +0.034 C 
BRANCH   3  11
ATOM     11  O   LIG A   1      -6.394   4.979 124.056  0.00  0.00    -0.390 OA
ATOM     12  H   LIG A   1      -6.006   5.123 123.179  0.00  0.00    +0.210 HD
ENDBRANCH   3  11
ENDBRANCH   2   8
ENDBRANCH   1   2
BRANCH   1  13
ATOM     13  C   LIG A   1      -8.648  -1.587 122.857  0.00  0.00    +0.000 C 
BRANCH  13  14
ATOM     14  C   LIG A   1      -9.358  -2.903 123.196  0.00  0.00    -0.000 C 
BRANCH  14  15
ATOM     15  C   LIG A   1      -8.813  -3.562 124.466  0.00  0.00    -0.000 C 
BRANCH  15  16
ATOM     16  C   LIG A   1      -9.575  -3.111 125.722  0.00  0.00    -0.000 C 
BRANCH  16  17
ATOM     17  C   LIG A   1      -8.692  -2.868 126.942  0.00  0.00    +0.000 C 
BRANCH  17  18
ATOM     18  C   LIG A   1      -8.045  -1.471 126.983  0.00  0.00    +0.000 C 
BRANCH  18  19
ATOM     19  C   LIG A   1      -6.671  -1.261 126.316  0.00  0.00    +0.011 C 
BRANCH  19  20
ATOM     20  C   LIG A   1      -5.487  -0.735 127.138  0.00  0.00    +0.120 C 
BRANCH  20  21
ATOM     21  C   LIG A   1      -5.007  -1.621 128.270  0.00  0.00    +0.305 C 
ATOM     22  O   LIG A   1      -5.139  -2.809 128.396  0.00  0.00    -0.251 OA
BRANCH  21  23
ATOM     23  O   LIG A   1      -4.271  -0.911 129.167  0.00  0.00    -0.481 OA
ATOM     24  H   LIG A   1      -4.903  -0.246 129.511  0.00  0.00    +0.295 HD
ENDBRANCH  21  23
ENDBRANCH  20  21
ENDBRANCH  19  20
ENDBRANCH  18  19
ENDBRANCH  17  18
ENDBRANCH  16  17
ENDBRANCH  15  16
ENDBRANCH  14  15
ENDBRANCH  13  14
ENDBRANCH   1  13
TORSDOF 13
ENDMDL
MODEL 9
REMARK VINA RESULT:      -5.7     10.000     11.709
REMARK  Name = NuBBE_457
REMARK  14 active torsions:
REMARK  status: ('A' for Active; 'I' for Inactive)
REMARK    1  A    between atoms: O_1  and  C_2
REMARK    2  A    between atoms: C_4  and  C_6
REMARK    3  A    between atoms: C_9  and  C_11
REMARK    4  A    between atoms: C_11  and  C_12
REMARK    5  A    between atoms: C_12  and  C_13
REMARK    6  A    between atoms: C_13  and  C_14
REMARK    7  A    between atoms: C_14  and  C_15
REMARK    8  A    between atoms: C_15  and  C_16
REMARK    9  A    between atoms: C_16  and  C_17
REMARK   10  A    between atoms: C_17  and  C_18
REMARK   11  A    between atoms: C_18  and  C_19
REMARK   12  A    between atoms: C_19  and  C_20
REMARK   13  A    between atoms: C_20  and  C_21
REMARK   14  A    between atoms: C_21  and  O_22
REMARK                            x       y       z     vdW  Elec       q    Type
REMARK                         _______ _______ _______ _____ _____    ______ ____
ROOT
ATOM      1  C   LIG A   1      -8.578   0.845 124.830  0.00  0.00    +0.002 C 
ENDROOT
BRANCH   1   2
ATOM      2  C   LIG A   1      -8.328   1.319 123.390  0.00  0.00    +0.019 C 
BRANCH   2   8
ATOM      3  C   LIG A   1      -5.813   3.728 122.732  0.00  0.00    +0.131 C 
ATOM      4  C   LIG A   1      -6.482   3.616 124.136  0.00  0.00    +0.079 C 
ATOM      5  C   LIG A   1      -5.997   4.679 125.119  0.00  0.00    +0.026 C 
ATOM      6  N   LIG A   1      -7.940   3.699 124.138  0.00  0.00    -0.308 NA
ATOM      7  H   LIG A   1      -8.238   4.660 123.958  0.00  0.00    +0.122 HD
ATOM      8  C   LIG A   1      -8.550   2.826 123.143  0.00  0.00    +0.054 C 
ATOM      9  C   LIG A   1      -8.129   3.305 121.752  0.00  0.00    +0.021 C 
ATOM     10  C   LIG A   1      -6.624   3.151 121.559  0.00  0.00    +0.034 C 
BRANCH   3  11
ATOM     11  O   LIG A   1      -5.450   5.073 122.415  0.00  0.00    -0.390 OA
ATOM     12  H   LIG A   1      -5.412   5.160 121.450  0.00  0.00    +0.210 HD
ENDBRANCH   3  11
ENDBRANCH   2   8
ENDBRANCH   1   2
BRANCH   1  13
ATOM     13  C   LIG A   1      -7.328   0.577 125.670  0.00  0.00    +0.000 C 
BRANCH  13  14
ATOM     14  C   LIG A   1      -7.466  -0.277 126.936  0.00  0.00    -0.000 C 
BRANCH  14  15
ATOM     15  C   LIG A   1      -6.313  -1.269 127.112  0.00  0.00    -0.000 C 
BRANCH  15  16
ATOM     16  C   LIG A   1      -6.625  -2.331 128.179  0.00  0.00    -0.000 C 
BRANCH  16  17
ATOM     17  C   LIG A   1      -8.111  -2.533 128.453  0.00  0.00    +0.000 C 
BRANCH  17  18
ATOM     18  C   LIG A   1      -8.753  -3.671 127.638  0.00  0.00    +0.000 C 
BRANCH  18  19
ATOM     19  C   LIG A   1      -9.321  -3.363 126.239  0.00  0.00    +0.011 C 
BRANCH  19  20
ATOM     20  C   LIG A   1      -8.502  -3.696 124.983  0.00  0.00    +0.120 C 
BRANCH  20  21
ATOM     21  C   LIG A   1      -8.890  -2.965 123.714  0.00  0.00    +0.305 C 
ATOM     22  O   LIG A   1      -8.222  -2.222 123.046  0.00  0.00    -0.251 OA
BRANCH  21  23
ATOM     23  O   LIG A   1     -10.137  -3.323 123.307  0.00  0.00    -0.481 OA
ATOM     24  H   LIG A   1     -10.425  -2.568 122.751  0.00  0.00    +0.295 HD
ENDBRANCH  21  23
ENDBRANCH  20  21
ENDBRANCH  19  20
ENDBRANCH  18  19
ENDBRANCH  17  18
ENDBRANCH  16  17
ENDBRANCH  15  16
ENDBRANCH  14  15
ENDBRANCH  13  14
ENDBRANCH   1  13
TORSDOF 13
ENDMDL
