MODEL 1
REMARK VINA RESULT:      -6.7      0.000      0.000
REMARK  Name = NuBBE_977
REMARK  11 active torsions:
REMARK  status: ('A' for Active; 'I' for Inactive)
REMARK    1  A    between atoms: C_1  and  C_2
REMARK    2  A    between atoms: C_2  and  O_3
REMARK    3  A    between atoms: C_2  and  C_4
REMARK    4  A    between atoms: C_2  and  C_25
REMARK    5  A    between atoms: C_8  and  C_14
REMARK    6  A    between atoms: C_14  and  O_15
REMARK    7  A    between atoms: O_15  and  C_16
REMARK    8  A    between atoms: C_16  and  C_17
REMARK    9  A    between atoms: C_20  and  O_21
REMARK   10  A    between atoms: O_21  and  C_22
REMARK   11  A    between atoms: C_22  and  C_23
REMARK                            x       y       z     vdW  Elec       q    Type
REMARK                         _______ _______ _______ _____ _____    ______ ____
ROOT
ATOM      1  C   LIG A   1      -8.351   0.663 125.991  0.00  0.00    +0.024 C 
ATOM      2  C   LIG A   1      -8.499   1.513 127.290  0.00  0.00    +0.007 C 
ATOM      3  C   LIG A   1      -7.182   1.735 128.060  0.00  0.00    +0.007 C 
ATOM      4  C   LIG A   1      -7.193   1.421 129.578  0.00  0.00    +0.027 C 
ATOM      5  C   LIG A   1      -6.837  -0.052 129.899  0.00  0.00    +0.007 C 
ATOM      6  C   LIG A   1      -7.776  -1.107 129.315  0.00  0.00    +0.005 C 
ATOM      7  C   LIG A   1      -7.179  -1.836 128.102  0.00  0.00    +0.034 C 
ATOM      8  C   LIG A   1      -8.253  -2.546 127.305  0.00  0.00    -0.037 C 
ATOM      9  C   LIG A   1      -8.796  -3.675 127.803  0.00  0.00    +0.011 C 
ATOM     10  C   LIG A   1      -9.320  -0.560 126.057  0.00  0.00    +0.055 C 
ATOM     11  C   LIG A   1      -8.628  -1.938 125.953  0.00  0.00    +0.202 C 
ENDROOT
BRANCH   1  13
ATOM     12  C   LIG A   1      -9.366   0.748 123.618  0.00  0.00    +0.041 C 
ATOM     13  C   LIG A   1      -8.594   1.521 124.700  0.00  0.00    +0.064 C 
ATOM     14  C   LIG A   1      -7.276   2.017 124.083  0.00  0.00    +0.041 C 
BRANCH  13  15
ATOM     15  O   LIG A   1      -9.372   2.666 125.064  0.00  0.00    -0.389 OA
ATOM     16  H   LIG A   1      -9.859   2.965 124.276  0.00  0.00    +0.210 HD
ENDBRANCH  13  15
ENDBRANCH   1  13
BRANCH   4  17
ATOM     17  C   LIG A   1      -8.461   1.912 130.312  0.00  0.00    +0.235 C 
BRANCH  17  18
ATOM     18  O   LIG A   1      -8.457   3.337 130.523  0.00  0.00    -0.465 OA
BRANCH  18  19
ATOM     19  C   LIG A   1      -9.465   4.043 129.942  0.00  0.00    +0.304 C 
ATOM     20  C   LIG A   1     -10.786   3.590 130.493  0.00  0.00    +0.136 C 
ATOM     21  O   LIG A   1      -9.329   4.916 129.101  0.00  0.00    -0.251 OA
ENDBRANCH  18  19
ENDBRANCH  17  18
ENDBRANCH   4  17
BRANCH  11  22
ATOM     22  O   LIG A   1      -9.594  -2.798 125.304  0.00  0.00    -0.457 OA
BRANCH  22  23
ATOM     23  C   LIG A   1      -9.334  -3.162 124.025  0.00  0.00    +0.304 C 
ATOM     24  C   LIG A   1      -7.863  -3.083 123.755  0.00  0.00    +0.136 C 
ATOM     25  O   LIG A   1     -10.153  -3.550 123.203  0.00  0.00    -0.251 OA
ENDBRANCH  22  23
ENDBRANCH  11  22
TORSDOF 7
ENDMDL
MODEL 2
REMARK VINA RESULT:      -6.6      1.214      1.472
REMARK  Name = NuBBE_977
REMARK  11 active torsions:
REMARK  status: ('A' for Active; 'I' for Inactive)
REMARK    1  A    between atoms: C_1  and  C_2
REMARK    2  A    between atoms: C_2  and  O_3
REMARK    3  A    between atoms: C_2  and  C_4
REMARK    4  A    between atoms: C_2  and  C_25
REMARK    5  A    between atoms: C_8  and  C_14
REMARK    6  A    between atoms: C_14  and  O_15
REMARK    7  A    between atoms: O_15  and  C_16
REMARK    8  A    between atoms: C_16  and  C_17
REMARK    9  A    between atoms: C_20  and  O_21
REMARK   10  A    between atoms: O_21  and  C_22
REMARK   11  A    between atoms: C_22  and  C_23
REMARK                            x       y       z     vdW  Elec       q    Type
REMARK                         _______ _______ _______ _____ _____    ______ ____
ROOT
ATOM      1  C   LIG A   1      -8.437   1.117 125.807  0.00  0.00    +0.024 C 
ATOM      2  C   LIG A   1      -8.490   1.911 127.148  0.00  0.00    +0.007 C 
ATOM      3  C   LIG A   1      -7.117   2.130 127.814  0.00  0.00    +0.007 C 
ATOM      4  C   LIG A   1      -6.994   1.755 129.312  0.00  0.00    +0.027 C 
ATOM      5  C   LIG A   1      -6.585   0.279 129.540  0.00  0.00    +0.007 C 
ATOM      6  C   LIG A   1      -7.551  -0.773 128.993  0.00  0.00    +0.005 C 
ATOM      7  C   LIG A   1      -7.046  -1.438 127.705  0.00  0.00    +0.034 C 
ATOM      8  C   LIG A   1      -8.170  -2.140 126.972  0.00  0.00    -0.037 C 
ATOM      9  C   LIG A   1      -8.649  -3.299 127.466  0.00  0.00    +0.011 C 
ATOM     10  C   LIG A   1      -9.375  -0.128 125.903  0.00  0.00    +0.055 C 
ATOM     11  C   LIG A   1      -8.670  -1.485 125.683  0.00  0.00    +0.202 C 
ENDROOT
BRANCH   1  13
ATOM     12  C   LIG A   1      -9.985   1.460 123.768  0.00  0.00    +0.041 C 
ATOM     13  C   LIG A   1      -8.804   2.021 124.578  0.00  0.00    +0.064 C 
ATOM     14  C   LIG A   1      -7.614   2.203 123.622  0.00  0.00    +0.041 C 
BRANCH  13  15
ATOM     15  O   LIG A   1      -9.181   3.312 125.069  0.00  0.00    -0.389 OA
ATOM     16  H   LIG A   1      -8.532   3.581 125.743  0.00  0.00    +0.210 HD
ENDBRANCH  13  15
ENDBRANCH   1  13
BRANCH   4  17
ATOM     17  C   LIG A   1      -8.204   2.188 130.170  0.00  0.00    +0.235 C 
BRANCH  17  18
ATOM     18  O   LIG A   1      -7.839   2.462 131.537  0.00  0.00    -0.465 OA
BRANCH  18  19
ATOM     19  C   LIG A   1      -8.794   2.239 132.480  0.00  0.00    +0.304 C 
ATOM     20  C   LIG A   1      -9.878   1.372 131.909  0.00  0.00    +0.136 C 
ATOM     21  O   LIG A   1      -8.782   2.671 133.620  0.00  0.00    -0.251 OA
ENDBRANCH  18  19
ENDBRANCH  17  18
ENDBRANCH   4  17
BRANCH  11  22
ATOM     22  O   LIG A   1      -9.672  -2.339 125.082  0.00  0.00    -0.457 OA
BRANCH  22  23
ATOM     23  C   LIG A   1      -9.399  -2.839 123.852  0.00  0.00    +0.304 C 
ATOM     24  C   LIG A   1      -8.068  -2.342 123.377  0.00  0.00    +0.136 C 
ATOM     25  O   LIG A   1     -10.094  -3.621 123.220  0.00  0.00    -0.251 OA
ENDBRANCH  22  23
ENDBRANCH  11  22
TORSDOF 7
ENDMDL
MODEL 3
REMARK VINA RESULT:      -6.5      2.865      5.596
REMARK  Name = NuBBE_977
REMARK  11 active torsions:
REMARK  status: ('A' for Active; 'I' for Inactive)
REMARK    1  A    between atoms: C_1  and  C_2
REMARK    2  A    between atoms: C_2  and  O_3
REMARK    3  A    between atoms: C_2  and  C_4
REMARK    4  A    between atoms: C_2  and  C_25
REMARK    5  A    between atoms: C_8  and  C_14
REMARK    6  A    between atoms: C_14  and  O_15
REMARK    7  A    between atoms: O_15  and  C_16
REMARK    8  A    between atoms: C_16  and  C_17
REMARK    9  A    between atoms: C_20  and  O_21
REMARK   10  A    between atoms: O_21  and  C_22
REMARK   11  A    between atoms: C_22  and  C_23
REMARK                            x       y       z     vdW  Elec       q    Type
REMARK                         _______ _______ _______ _____ _____    ______ ____
ROOT
ATOM      1  C   LIG A   1      -8.332  -1.869 126.624  0.00  0.00    +0.024 C 
ATOM      2  C   LIG A   1      -7.663  -2.947 127.530  0.00  0.00    +0.007 C 
ATOM      3  C   LIG A   1      -8.438  -3.263 128.825  0.00  0.00    +0.007 C 
ATOM      4  C   LIG A   1      -7.636  -3.233 130.151  0.00  0.00    +0.027 C 
ATOM      5  C   LIG A   1      -7.602  -1.833 130.812  0.00  0.00    +0.007 C 
ATOM      6  C   LIG A   1      -6.957  -0.720 129.986  0.00  0.00    +0.005 C 
ATOM      7  C   LIG A   1      -7.984   0.238 129.365  0.00  0.00    +0.034 C 
ATOM      8  C   LIG A   1      -7.371   1.046 128.241  0.00  0.00    -0.037 C 
ATOM      9  C   LIG A   1      -6.519   2.046 128.544  0.00  0.00    +0.011 C 
ATOM     10  C   LIG A   1      -7.317  -0.712 126.358  0.00  0.00    +0.055 C 
ATOM     11  C   LIG A   1      -7.795   0.684 126.816  0.00  0.00    +0.202 C 
ENDROOT
BRANCH   1  13
ATOM     12  C   LIG A   1      -8.053  -3.705 124.829  0.00  0.00    +0.041 C 
ATOM     13  C   LIG A   1      -8.870  -2.484 125.284  0.00  0.00    +0.064 C 
ATOM     14  C   LIG A   1      -8.870  -1.457 124.141  0.00  0.00    +0.041 C 
BRANCH  13  15
ATOM     15  O   LIG A   1     -10.219  -2.911 125.498  0.00  0.00    -0.389 OA
ATOM     16  H   LIG A   1     -10.689  -2.871 124.647  0.00  0.00    +0.210 HD
ENDBRANCH  13  15
ENDBRANCH   1  13
BRANCH   4  17
ATOM     17  C   LIG A   1      -6.241  -3.892 130.056  0.00  0.00    +0.235 C 
BRANCH  17  18
ATOM     18  O   LIG A   1      -5.386  -3.530 131.158  0.00  0.00    -0.465 OA
BRANCH  18  19
ATOM     19  C   LIG A   1      -4.080  -3.288 130.863  0.00  0.00    +0.304 C 
ATOM     20  C   LIG A   1      -3.881  -3.324 129.375  0.00  0.00    +0.136 C 
ATOM     21  O   LIG A   1      -3.196  -3.072 131.674  0.00  0.00    -0.251 OA
ENDBRANCH  18  19
ENDBRANCH  17  18
ENDBRANCH   4  17
BRANCH  11  22
ATOM     22  O   LIG A   1      -7.183   1.615 125.893  0.00  0.00    -0.457 OA
BRANCH  22  23
ATOM     23  C   LIG A   1      -7.985   2.168 124.952  0.00  0.00    +0.304 C 
ATOM     24  C   LIG A   1      -7.372   2.012 123.595  0.00  0.00    +0.136 C 
ATOM     25  O   LIG A   1      -9.077   2.683 125.146  0.00  0.00    -0.251 OA
ENDBRANCH  22  23
ENDBRANCH  11  22
TORSDOF 7
ENDMDL
MODEL 4
REMARK VINA RESULT:      -6.4      2.788      5.520
REMARK  Name = NuBBE_977
REMARK  11 active torsions:
REMARK  status: ('A' for Active; 'I' for Inactive)
REMARK    1  A    between atoms: C_1  and  C_2
REMARK    2  A    between atoms: C_2  and  O_3
REMARK    3  A    between atoms: C_2  and  C_4
REMARK    4  A    between atoms: C_2  and  C_25
REMARK    5  A    between atoms: C_8  and  C_14
REMARK    6  A    between atoms: C_14  and  O_15
REMARK    7  A    between atoms: O_15  and  C_16
REMARK    8  A    between atoms: C_16  and  C_17
REMARK    9  A    between atoms: C_20  and  O_21
REMARK   10  A    between atoms: O_21  and  C_22
REMARK   11  A    between atoms: C_22  and  C_23
REMARK                            x       y       z     vdW  Elec       q    Type
REMARK                         _______ _______ _______ _____ _____    ______ ____
ROOT
ATOM      1  C   LIG A   1      -8.193  -1.552 125.502  0.00  0.00    +0.024 C 
ATOM      2  C   LIG A   1      -7.318  -2.207 126.615  0.00  0.00    +0.007 C 
ATOM      3  C   LIG A   1      -8.052  -2.433 127.952  0.00  0.00    +0.007 C 
ATOM      4  C   LIG A   1      -7.350  -1.920 129.235  0.00  0.00    +0.027 C 
ATOM      5  C   LIG A   1      -7.704  -0.452 129.579  0.00  0.00    +0.007 C 
ATOM      6  C   LIG A   1      -7.321   0.591 128.529  0.00  0.00    +0.005 C 
ATOM      7  C   LIG A   1      -8.524   1.100 127.723  0.00  0.00    +0.034 C 
ATOM      8  C   LIG A   1      -8.081   1.785 126.447  0.00  0.00    -0.037 C 
ATOM      9  C   LIG A   1      -7.525   3.010 126.523  0.00  0.00    +0.011 C 
ATOM     10  C   LIG A   1      -7.492  -0.255 124.986  0.00  0.00    +0.055 C 
ATOM     11  C   LIG A   1      -8.329   1.035 125.137  0.00  0.00    +0.202 C 
ENDROOT
BRANCH   1  13
ATOM     12  C   LIG A   1      -7.726  -3.876 124.478  0.00  0.00    +0.041 C 
ATOM     13  C   LIG A   1      -8.491  -2.551 124.329  0.00  0.00    +0.064 C 
ATOM     14  C   LIG A   1      -8.141  -1.949 122.959  0.00  0.00    +0.041 C 
BRANCH  13  15
ATOM     15  O   LIG A   1      -9.891  -2.847 124.340  0.00  0.00    -0.389 OA
ATOM     16  H   LIG A   1      -9.999  -3.807 124.222  0.00  0.00    +0.210 HD
ENDBRANCH  13  15
ENDBRANCH   1  13
BRANCH   4  17
ATOM     17  C   LIG A   1      -5.831  -2.202 129.275  0.00  0.00    +0.235 C 
BRANCH  17  18
ATOM     18  O   LIG A   1      -5.367  -2.525 130.601  0.00  0.00    -0.465 OA
BRANCH  18  19
ATOM     19  C   LIG A   1      -4.607  -3.647 130.725  0.00  0.00    +0.304 C 
ATOM     20  C   LIG A   1      -5.490  -4.861 130.735  0.00  0.00    +0.136 C 
ATOM     21  O   LIG A   1      -3.391  -3.675 130.811  0.00  0.00    -0.251 OA
ENDBRANCH  18  19
ENDBRANCH  17  18
ENDBRANCH   4  17
BRANCH  11  22
ATOM     22  O   LIG A   1      -7.927   1.878 124.031  0.00  0.00    -0.457 OA
BRANCH  22  23
ATOM     23  C   LIG A   1      -8.896   2.262 123.165  0.00  0.00    +0.304 C 
ATOM     24  C   LIG A   1     -10.104   1.391 123.323  0.00  0.00    +0.136 C 
ATOM     25  O   LIG A   1      -8.839   3.206 122.390  0.00  0.00    -0.251 OA
ENDBRANCH  22  23
ENDBRANCH  11  22
TORSDOF 7
ENDMDL
MODEL 5
REMARK VINA RESULT:      -6.2      3.157      6.089
REMARK  Name = NuBBE_977
REMARK  11 active torsions:
REMARK  status: ('A' for Active; 'I' for Inactive)
REMARK    1  A    between atoms: C_1  and  C_2
REMARK    2  A    between atoms: C_2  and  O_3
REMARK    3  A    between atoms: C_2  and  C_4
REMARK    4  A    between atoms: C_2  and  C_25
REMARK    5  A    between atoms: C_8  and  C_14
REMARK    6  A    between atoms: C_14  and  O_15
REMARK    7  A    between atoms: O_15  and  C_16
REMARK    8  A    between atoms: C_16  and  C_17
REMARK    9  A    between atoms: C_20  and  O_21
REMARK   10  A    between atoms: O_21  and  C_22
REMARK   11  A    between atoms: C_22  and  C_23
REMARK                            x       y       z     vdW  Elec       q    Type
REMARK                         _______ _______ _______ _____ _____    ______ ____
ROOT
ATOM      1  C   LIG A   1      -6.322   1.346 126.515  0.00  0.00    +0.024 C 
ATOM      2  C   LIG A   1      -6.343   2.088 125.144  0.00  0.00    +0.007 C 
ATOM      3  C   LIG A   1      -7.507   3.086 124.977  0.00  0.00    +0.007 C 
ATOM      4  C   LIG A   1      -8.352   2.970 123.683  0.00  0.00    +0.027 C 
ATOM      5  C   LIG A   1      -9.544   1.991 123.818  0.00  0.00    +0.007 C 
ATOM      6  C   LIG A   1      -9.184   0.540 124.133  0.00  0.00    +0.005 C 
ATOM      7  C   LIG A   1      -9.455   0.158 125.595  0.00  0.00    +0.034 C 
ATOM      8  C   LIG A   1      -8.716  -1.107 125.978  0.00  0.00    -0.037 C 
ATOM      9  C   LIG A   1      -9.163  -2.291 125.514  0.00  0.00    +0.011 C 
ATOM     10  C   LIG A   1      -6.323  -0.197 126.271  0.00  0.00    +0.055 C 
ATOM     11  C   LIG A   1      -7.511  -0.951 126.908  0.00  0.00    +0.202 C 
ENDROOT
BRANCH   1  13
ATOM     12  C   LIG A   1      -5.504   2.807 128.482  0.00  0.00    +0.041 C 
ATOM     13  C   LIG A   1      -5.105   1.788 127.401  0.00  0.00    +0.064 C 
ATOM     14  C   LIG A   1      -3.976   2.404 126.559  0.00  0.00    +0.041 C 
BRANCH  13  15
ATOM     15  O   LIG A   1      -4.586   0.628 128.059  0.00  0.00    -0.389 OA
ATOM     16  H   LIG A   1      -4.812  -0.152 127.523  0.00  0.00    +0.210 HD
ENDBRANCH  13  15
ENDBRANCH   1  13
BRANCH   4  17
ATOM     17  C   LIG A   1      -7.516   2.733 122.405  0.00  0.00    +0.235 C 
BRANCH  17  18
ATOM     18  O   LIG A   1      -7.863   3.644 121.344  0.00  0.00    -0.465 OA
BRANCH  18  19
ATOM     19  C   LIG A   1      -6.905   3.883 120.408  0.00  0.00    +0.304 C 
ATOM     20  C   LIG A   1      -5.552   3.561 120.972  0.00  0.00    +0.136 C 
ATOM     21  O   LIG A   1      -7.103   4.293 119.276  0.00  0.00    -0.251 OA
ENDBRANCH  18  19
ENDBRANCH  17  18
ENDBRANCH   4  17
BRANCH  11  22
ATOM     22  O   LIG A   1      -6.996  -2.263 127.233  0.00  0.00    -0.457 OA
BRANCH  22  23
ATOM     23  C   LIG A   1      -6.739  -2.519 128.539  0.00  0.00    +0.304 C 
ATOM     24  C   LIG A   1      -8.021  -2.675 129.297  0.00  0.00    +0.136 C 
ATOM     25  O   LIG A   1      -5.634  -2.655 129.045  0.00  0.00    -0.251 OA
ENDBRANCH  22  23
ENDBRANCH  11  22
TORSDOF 7
ENDMDL
MODEL 6
REMARK VINA RESULT:      -6.1      1.599      1.901
REMARK  Name = NuBBE_977
REMARK  11 active torsions:
REMARK  status: ('A' for Active; 'I' for Inactive)
REMARK    1  A    between atoms: C_1  and  C_2
REMARK    2  A    between atoms: C_2  and  O_3
REMARK    3  A    between atoms: C_2  and  C_4
REMARK    4  A    between atoms: C_2  and  C_25
REMARK    5  A    between atoms: C_8  and  C_14
REMARK    6  A    between atoms: C_14  and  O_15
REMARK    7  A    between atoms: O_15  and  C_16
REMARK    8  A    between atoms: C_16  and  C_17
REMARK    9  A    between atoms: C_20  and  O_21
REMARK   10  A    between atoms: O_21  and  C_22
REMARK   11  A    between atoms: C_22  and  C_23
REMARK                            x       y       z     vdW  Elec       q    Type
REMARK                         _______ _______ _______ _____ _____    ______ ____
ROOT
ATOM      1  C   LIG A   1      -7.346   0.021 126.708  0.00  0.00    +0.024 C 
ATOM      2  C   LIG A   1      -7.798   0.917 127.902  0.00  0.00    +0.007 C 
ATOM      3  C   LIG A   1      -6.793   0.979 129.069  0.00  0.00    +0.007 C 
ATOM      4  C   LIG A   1      -7.349   0.709 130.491  0.00  0.00    +0.027 C 
ATOM      5  C   LIG A   1      -7.325  -0.790 130.881  0.00  0.00    +0.007 C 
ATOM      6  C   LIG A   1      -8.152  -1.723 129.998  0.00  0.00    +0.005 C 
ATOM      7  C   LIG A   1      -7.294  -2.557 129.037  0.00  0.00    +0.034 C 
ATOM      8  C   LIG A   1      -8.130  -3.136 127.915  0.00  0.00    -0.037 C 
ATOM      9  C   LIG A   1      -8.957  -4.166 128.181  0.00  0.00    +0.011 C 
ATOM     10  C   LIG A   1      -8.440  -1.056 126.425  0.00  0.00    +0.055 C 
ATOM     11  C   LIG A   1      -7.949  -2.518 126.527  0.00  0.00    +0.202 C 
ENDROOT
BRANCH   1  13
ATOM     12  C   LIG A   1      -5.843   1.828 125.637  0.00  0.00    +0.041 C 
ATOM     13  C   LIG A   1      -7.028   0.870 125.428  0.00  0.00    +0.064 C 
ATOM     14  C   LIG A   1      -8.239   1.701 124.974  0.00  0.00    +0.041 C 
BRANCH  13  15
ATOM     15  O   LIG A   1      -6.684  -0.029 124.369  0.00  0.00    -0.389 OA
ATOM     16  H   LIG A   1      -5.759   0.137 124.117  0.00  0.00    +0.210 HD
ENDBRANCH  13  15
ENDBRANCH   1  13
BRANCH   4  17
ATOM     17  C   LIG A   1      -8.708   1.387 130.773  0.00  0.00    +0.235 C 
BRANCH  17  18
ATOM     18  O   LIG A   1      -8.610   2.825 130.802  0.00  0.00    -0.465 OA
BRANCH  18  19
ATOM     19  C   LIG A   1      -9.343   3.466 131.752  0.00  0.00    +0.304 C 
ATOM     20  C   LIG A   1      -9.295   2.694 133.039  0.00  0.00    +0.136 C 
ATOM     21  O   LIG A   1      -9.949   4.513 131.595  0.00  0.00    -0.251 OA
ENDBRANCH  18  19
ENDBRANCH  17  18
ENDBRANCH   4  17
BRANCH  11  22
ATOM     22  O   LIG A   1      -8.754  -3.255 125.577  0.00  0.00    -0.457 OA
BRANCH  22  23
ATOM     23  C   LIG A   1      -8.382  -3.195 124.275  0.00  0.00    +0.304 C 
ATOM     24  C   LIG A   1      -9.585  -3.303 123.390  0.00  0.00    +0.136 C 
ATOM     25  O   LIG A   1      -7.246  -3.028 123.856  0.00  0.00    -0.251 OA
ENDBRANCH  22  23
ENDBRANCH  11  22
TORSDOF 7
ENDMDL
MODEL 7
REMARK VINA RESULT:      -5.9      2.557      6.627
REMARK  Name = NuBBE_977
REMARK  11 active torsions:
REMARK  status: ('A' for Active; 'I' for Inactive)
REMARK    1  A    between atoms: C_1  and  C_2
REMARK    2  A    between atoms: C_2  and  O_3
REMARK    3  A    between atoms: C_2  and  C_4
REMARK    4  A    between atoms: C_2  and  C_25
REMARK    5  A    between atoms: C_8  and  C_14
REMARK    6  A    between atoms: C_14  and  O_15
REMARK    7  A    between atoms: O_15  and  C_16
REMARK    8  A    between atoms: C_16  and  C_17
REMARK    9  A    between atoms: C_20  and  O_21
REMARK   10  A    between atoms: O_21  and  C_22
REMARK   11  A    between atoms: C_22  and  C_23
REMARK                            x       y       z     vdW  Elec       q    Type
REMARK                         _______ _______ _______ _____ _____    ______ ____
ROOT
ATOM      1  C   LIG A   1      -8.061   0.491 129.173  0.00  0.00    +0.024 C 
ATOM      2  C   LIG A   1      -7.614   0.598 127.683  0.00  0.00    +0.007 C 
ATOM      3  C   LIG A   1      -8.648   0.069 126.668  0.00  0.00    +0.007 C 
ATOM      4  C   LIG A   1      -8.138  -0.936 125.604  0.00  0.00    +0.027 C 
ATOM      5  C   LIG A   1      -8.216  -2.411 126.070  0.00  0.00    +0.007 C 
ATOM      6  C   LIG A   1      -7.394  -2.763 127.309  0.00  0.00    +0.005 C 
ATOM      7  C   LIG A   1      -8.251  -2.926 128.572  0.00  0.00    +0.034 C 
ATOM      8  C   LIG A   1      -7.403  -2.853 129.825  0.00  0.00    -0.037 C 
ATOM      9  C   LIG A   1      -6.615  -3.899 130.141  0.00  0.00    +0.011 C 
ATOM     10  C   LIG A   1      -6.992  -0.313 129.979  0.00  0.00    +0.055 C 
ATOM     11  C   LIG A   1      -7.529  -1.585 130.673  0.00  0.00    +0.202 C 
ENDROOT
BRANCH   1  13
ATOM     12  C   LIG A   1      -7.020   2.688 130.044  0.00  0.00    +0.041 C 
ATOM     13  C   LIG A   1      -8.320   1.902 129.808  0.00  0.00    +0.064 C 
ATOM     14  C   LIG A   1      -9.065   1.800 131.149  0.00  0.00    +0.041 C 
BRANCH  13  15
ATOM     15  O   LIG A   1      -9.134   2.657 128.905  0.00  0.00    -0.389 OA
ATOM     16  H   LIG A   1      -9.150   3.581 129.210  0.00  0.00    +0.210 HD
ENDBRANCH  13  15
ENDBRANCH   1  13
BRANCH   4  17
ATOM     17  C   LIG A   1      -6.767  -0.565 124.996  0.00  0.00    +0.235 C 
BRANCH  17  18
ATOM     18  O   LIG A   1      -6.800  -0.511 123.556  0.00  0.00    -0.465 OA
BRANCH  18  19
ATOM     19  C   LIG A   1      -6.834  -1.704 122.902  0.00  0.00    +0.304 C 
ATOM     20  C   LIG A   1      -5.646  -2.533 123.296  0.00  0.00    +0.136 C 
ATOM     21  O   LIG A   1      -7.695  -2.059 122.116  0.00  0.00    -0.251 OA
ENDBRANCH  18  19
ENDBRANCH  17  18
ENDBRANCH   4  17
BRANCH  11  22
ATOM     22  O   LIG A   1      -6.721  -1.736 131.863  0.00  0.00    -0.457 OA
BRANCH  22  23
ATOM     23  C   LIG A   1      -7.298  -1.409 133.046  0.00  0.00    +0.304 C 
ATOM     24  C   LIG A   1      -7.963  -2.611 133.645  0.00  0.00    +0.136 C 
ATOM     25  O   LIG A   1      -7.258  -0.316 133.591  0.00  0.00    -0.251 OA
ENDBRANCH  22  23
ENDBRANCH  11  22
TORSDOF 7
ENDMDL
MODEL 8
REMARK VINA RESULT:      -5.9      3.762      4.885
REMARK  Name = NuBBE_977
REMARK  11 active torsions:
REMARK  status: ('A' for Active; 'I' for Inactive)
REMARK    1  A    between atoms: C_1  and  C_2
REMARK    2  A    between atoms: C_2  and  O_3
REMARK    3  A    between atoms: C_2  and  C_4
REMARK    4  A    between atoms: C_2  and  C_25
REMARK    5  A    between atoms: C_8  and  C_14
REMARK    6  A    between atoms: C_14  and  O_15
REMARK    7  A    between atoms: O_15  and  C_16
REMARK    8  A    between atoms: C_16  and  C_17
REMARK    9  A    between atoms: C_20  and  O_21
REMARK   10  A    between atoms: O_21  and  C_22
REMARK   11  A    between atoms: C_22  and  C_23
REMARK                            x       y       z     vdW  Elec       q    Type
REMARK                         _______ _______ _______ _____ _____    ______ ____
ROOT
ATOM      1  C   LIG A   1      -6.195   3.015 125.074  0.00  0.00    +0.024 C 
ATOM      2  C   LIG A   1      -5.335   4.183 125.647  0.00  0.00    +0.007 C 
ATOM      3  C   LIG A   1      -3.849   3.833 125.863  0.00  0.00    +0.007 C 
ATOM      4  C   LIG A   1      -3.242   4.166 127.250  0.00  0.00    +0.027 C 
ATOM      5  C   LIG A   1      -3.400   3.018 128.277  0.00  0.00    +0.007 C 
ATOM      6  C   LIG A   1      -4.836   2.613 128.610  0.00  0.00    +0.005 C 
ATOM      7  C   LIG A   1      -5.258   1.296 127.945  0.00  0.00    +0.034 C 
ATOM      8  C   LIG A   1      -6.765   1.142 127.938  0.00  0.00    -0.037 C 
ATOM      9  C   LIG A   1      -7.395   0.842 129.091  0.00  0.00    +0.011 C 
ATOM     10  C   LIG A   1      -7.405   2.746 126.025  0.00  0.00    +0.055 C 
ATOM     11  C   LIG A   1      -7.472   1.310 126.592  0.00  0.00    +0.202 C 
ENDROOT
BRANCH   1  13
ATOM     12  C   LIG A   1      -6.938   2.017 122.811  0.00  0.00    +0.041 C 
ATOM     13  C   LIG A   1      -6.670   3.305 123.607  0.00  0.00    +0.064 C 
ATOM     14  C   LIG A   1      -5.644   4.143 122.826  0.00  0.00    +0.041 C 
BRANCH  13  15
ATOM     15  O   LIG A   1      -7.893   4.046 123.671  0.00  0.00    -0.389 OA
ATOM     16  H   LIG A   1      -7.862   4.615 124.460  0.00  0.00    +0.210 HD
ENDBRANCH  13  15
ENDBRANCH   1  13
BRANCH   4  17
ATOM     17  C   LIG A   1      -3.670   5.542 127.809  0.00  0.00    +0.235 C 
BRANCH  17  18
ATOM     18  O   LIG A   1      -2.551   6.310 128.294  0.00  0.00    -0.465 OA
BRANCH  18  19
ATOM     19  C   LIG A   1      -2.580   6.666 129.607  0.00  0.00    +0.304 C 
ATOM     20  C   LIG A   1      -3.866   7.377 129.912  0.00  0.00    +0.136 C 
ATOM     21  O   LIG A   1      -1.701   6.444 130.423  0.00  0.00    -0.251 OA
ENDBRANCH  18  19
ENDBRANCH  17  18
ENDBRANCH   4  17
BRANCH  11  22
ATOM     22  O   LIG A   1      -8.883   1.039 126.767  0.00  0.00    -0.457 OA
BRANCH  22  23
ATOM     23  C   LIG A   1      -9.502   0.336 125.787  0.00  0.00    +0.304 C 
ATOM     24  C   LIG A   1      -8.991  -1.072 125.761  0.00  0.00    +0.136 C 
ATOM     25  O   LIG A   1     -10.384   0.749 125.049  0.00  0.00    -0.251 OA
ENDBRANCH  22  23
ENDBRANCH  11  22
TORSDOF 7
ENDMDL
MODEL 9
REMARK VINA RESULT:      -5.9      2.581      7.228
REMARK  Name = NuBBE_977
REMARK  11 active torsions:
REMARK  status: ('A' for Active; 'I' for Inactive)
REMARK    1  A    between atoms: C_1  and  C_2
REMARK    2  A    between atoms: C_2  and  O_3
REMARK    3  A    between atoms: C_2  and  C_4
REMARK    4  A    between atoms: C_2  and  C_25
REMARK    5  A    between atoms: C_8  and  C_14
REMARK    6  A    between atoms: C_14  and  O_15
REMARK    7  A    between atoms: O_15  and  C_16
REMARK    8  A    between atoms: C_16  and  C_17
REMARK    9  A    between atoms: C_20  and  O_21
REMARK   10  A    between atoms: O_21  and  C_22
REMARK   11  A    between atoms: C_22  and  C_23
REMARK                            x       y       z     vdW  Elec       q    Type
REMARK                         _______ _______ _______ _____ _____    ______ ____
ROOT
ATOM      1  C   LIG A   1      -6.468  -1.999 129.771  0.00  0.00    +0.024 C 
ATOM      2  C   LIG A   1      -6.513  -2.712 128.384  0.00  0.00    +0.007 C 
ATOM      3  C   LIG A   1      -5.396  -2.284 127.411  0.00  0.00    +0.007 C 
ATOM      4  C   LIG A   1      -5.829  -1.870 125.982  0.00  0.00    +0.027 C 
ATOM      5  C   LIG A   1      -6.165  -0.363 125.859  0.00  0.00    +0.007 C 
ATOM      6  C   LIG A   1      -7.315   0.138 126.733  0.00  0.00    +0.005 C 
ATOM      7  C   LIG A   1      -6.836   0.938 127.953  0.00  0.00    +0.034 C 
ATOM      8  C   LIG A   1      -7.927   1.052 128.998  0.00  0.00    -0.037 C 
ATOM      9  C   LIG A   1      -8.963   1.883 128.772  0.00  0.00    +0.011 C 
ATOM     10  C   LIG A   1      -7.839  -1.302 130.042  0.00  0.00    +0.055 C 
ATOM     11  C   LIG A   1      -7.754   0.223 130.272  0.00  0.00    +0.202 C 
ENDROOT
BRANCH   1  13
ATOM     12  C   LIG A   1      -6.037  -4.454 130.451  0.00  0.00    +0.041 C 
ATOM     13  C   LIG A   1      -6.088  -2.992 130.925  0.00  0.00    +0.064 C 
ATOM     14  C   LIG A   1      -7.073  -2.907 132.103  0.00  0.00    +0.041 C 
BRANCH  13  15
ATOM     15  O   LIG A   1      -4.788  -2.640 131.408  0.00  0.00    -0.389 OA
ATOM     16  H   LIG A   1      -4.126  -3.022 130.804  0.00  0.00    +0.210 HD
ENDBRANCH  13  15
ENDBRANCH   1  13
BRANCH   4  17
ATOM     17  C   LIG A   1      -6.910  -2.784 125.363  0.00  0.00    +0.235 C 
BRANCH  17  18
ATOM     18  O   LIG A   1      -7.682  -2.113 124.347  0.00  0.00    -0.465 OA
BRANCH  18  19
ATOM     19  C   LIG A   1      -9.019  -2.365 124.332  0.00  0.00    +0.304 C 
ATOM     20  C   LIG A   1      -9.445  -2.928 125.656  0.00  0.00    +0.136 C 
ATOM     21  O   LIG A   1      -9.769  -2.165 123.391  0.00  0.00    -0.251 OA
ENDBRANCH  18  19
ENDBRANCH  17  18
ENDBRANCH   4  17
BRANCH  11  22
ATOM     22  O   LIG A   1      -8.836   0.530 131.181  0.00  0.00    -0.457 OA
BRANCH  22  23
ATOM     23  C   LIG A   1      -8.503   1.080 132.374  0.00  0.00    +0.304 C 
ATOM     24  C   LIG A   1      -9.467   2.171 132.726  0.00  0.00    +0.136 C 
ATOM     25  O   LIG A   1      -7.585   0.728 133.101  0.00  0.00    -0.251 OA
ENDBRANCH  22  23
ENDBRANCH  11  22
TORSDOF 7
ENDMDL
