MODEL 1
REMARK VINA RESULT:      -8.0      0.000      0.000
REMARK  Name = NuBBE_1632
REMARK  5 active torsions:
REMARK  status: ('A' for Active; 'I' for Inactive)
REMARK    1  A    between atoms: C_2  and  C_22
REMARK    2  A    between atoms: C_8  and  C_12
REMARK    3  A    between atoms: C_14  and  O_15
REMARK    4  A    between atoms: O_15  and  C_16
REMARK    5  A    between atoms: C_17  and  O_18
REMARK                            x       y       z     vdW  Elec       q    Type
REMARK                         _______ _______ _______ _____ _____    ______ ____
ROOT
ATOM      1  O   LIG A   1      -9.720   0.214 123.835  0.00  0.00    -0.371 OA
ATOM      2  C   LIG A   1      -9.319   0.766 125.108  0.00  0.00    +0.154 C 
ATOM      3  C   LIG A   1      -9.065   2.266 124.881  0.00  0.00    +0.056 C 
ATOM      4  C   LIG A   1      -8.945   2.402 123.382  0.00  0.00    +0.056 C 
ATOM      5  C   LIG A   1      -7.440   2.252 123.128  0.00  0.00    +0.154 C 
ATOM      6  O   LIG A   1      -6.783   2.570 124.375  0.00  0.00    -0.371 OA
ATOM      7  C   LIG A   1      -7.770   2.868 125.365  0.00  0.00    +0.167 C 
ATOM      8  C   LIG A   1      -9.787   1.262 122.865  0.00  0.00    +0.167 C 
ENDROOT
BRANCH   2   9
ATOM      9  C   LIG A   1      -8.214  -0.082 125.709  0.00  0.00    -0.015 A 
ATOM     10  C   LIG A   1      -8.063  -0.143 127.106  0.00  0.00    +0.055 A 
ATOM     11  C   LIG A   1      -7.049  -0.924 127.626  0.00  0.00    +0.167 A 
ATOM     12  O   LIG A   1      -6.778  -1.100 128.947  0.00  0.00    -0.453 OA
ATOM     13  C   LIG A   1      -5.663  -2.016 128.874  0.00  0.00    +0.466 C 
ATOM     14  O   LIG A   1      -5.269  -2.335 127.525  0.00  0.00    -0.453 OA
ATOM     15  C   LIG A   1      -6.190  -1.631 126.817  0.00  0.00    +0.166 A 
ATOM     16  C   LIG A   1      -6.301  -1.602 125.449  0.00  0.00    +0.050 A 
ATOM     17  C   LIG A   1      -7.329  -0.832 124.896  0.00  0.00    +0.010 A 
ENDBRANCH   2   9
BRANCH   5  18
ATOM     18  C   LIG A   1      -6.901   3.113 121.997  0.00  0.00    -0.015 A 
ATOM     19  C   LIG A   1      -7.695   3.422 120.874  0.00  0.00    +0.055 A 
ATOM     20  C   LIG A   1      -7.215   4.247 119.855  0.00  0.00    +0.162 A 
ATOM     21  C   LIG A   1      -5.929   4.777 119.970  0.00  0.00    +0.159 A 
ATOM     22  C   LIG A   1      -5.129   4.504 121.071  0.00  0.00    +0.049 A 
ATOM     23  C   LIG A   1      -5.614   3.676 122.084  0.00  0.00    +0.010 A 
BRANCH  20  24
ATOM     24  O   LIG A   1      -7.896   4.607 118.721  0.00  0.00    -0.491 OA
ATOM     25  C   LIG A   1      -9.298   4.353 118.719  0.00  0.00    +0.277 C 
ENDBRANCH  20  24
BRANCH  21  26
ATOM     26  O   LIG A   1      -5.430   5.593 118.992  0.00  0.00    -0.503 OA
ATOM     27  H   LIG A   1      -5.997   6.388 119.019  0.00  0.00    +0.292 HD
ENDBRANCH  21  26
ENDBRANCH   5  18
TORSDOF 4
ENDMDL
MODEL 2
REMARK VINA RESULT:      -7.9      2.140      3.506
REMARK  Name = NuBBE_1632
REMARK  5 active torsions:
REMARK  status: ('A' for Active; 'I' for Inactive)
REMARK    1  A    between atoms: C_2  and  C_22
REMARK    2  A    between atoms: C_8  and  C_12
REMARK    3  A    between atoms: C_14  and  O_15
REMARK    4  A    between atoms: O_15  and  C_16
REMARK    5  A    between atoms: C_17  and  O_18
REMARK                            x       y       z     vdW  Elec       q    Type
REMARK                         _______ _______ _______ _____ _____    ______ ____
ROOT
ATOM      1  O   LIG A   1      -6.735  -3.128 124.566  0.00  0.00    -0.371 OA
ATOM      2  C   LIG A   1      -8.045  -3.021 125.164  0.00  0.00    +0.154 C 
ATOM      3  C   LIG A   1      -8.732  -1.808 124.512  0.00  0.00    +0.056 C 
ATOM      4  C   LIG A   1      -7.604  -1.044 123.863  0.00  0.00    +0.056 C 
ATOM      5  C   LIG A   1      -7.179  -0.043 124.945  0.00  0.00    +0.154 C 
ATOM      6  O   LIG A   1      -8.307   0.094 125.838  0.00  0.00    -0.371 OA
ATOM      7  C   LIG A   1      -9.362  -0.764 125.398  0.00  0.00    +0.167 C 
ATOM      8  C   LIG A   1      -6.587  -2.118 123.565  0.00  0.00    +0.167 C 
ENDROOT
BRANCH   2   9
ATOM      9  C   LIG A   1      -7.925  -3.070 126.675  0.00  0.00    -0.015 A 
ATOM     10  C   LIG A   1      -6.792  -2.521 127.303  0.00  0.00    +0.055 A 
ATOM     11  C   LIG A   1      -6.709  -2.578 128.681  0.00  0.00    +0.167 A 
ATOM     12  O   LIG A   1      -5.693  -2.086 129.438  0.00  0.00    -0.453 OA
ATOM     13  C   LIG A   1      -6.166  -2.405 130.765  0.00  0.00    +0.466 C 
ATOM     14  O   LIG A   1      -7.423  -3.110 130.773  0.00  0.00    -0.453 OA
ATOM     15  C   LIG A   1      -7.696  -3.161 129.443  0.00  0.00    +0.166 A 
ATOM     16  C   LIG A   1      -8.819  -3.707 128.873  0.00  0.00    +0.050 A 
ATOM     17  C   LIG A   1      -8.936  -3.648 127.481  0.00  0.00    +0.010 A 
ENDBRANCH   2   9
BRANCH   5  18
ATOM     18  C   LIG A   1      -6.739   1.312 124.416  0.00  0.00    -0.015 A 
ATOM     19  C   LIG A   1      -7.138   1.761 123.140  0.00  0.00    +0.055 A 
ATOM     20  C   LIG A   1      -6.770   3.022 122.671  0.00  0.00    +0.162 A 
ATOM     21  C   LIG A   1      -6.000   3.847 123.494  0.00  0.00    +0.159 A 
ATOM     22  C   LIG A   1      -5.604   3.439 124.760  0.00  0.00    +0.049 A 
ATOM     23  C   LIG A   1      -5.974   2.175 125.221  0.00  0.00    +0.010 A 
BRANCH  20  24
ATOM     24  O   LIG A   1      -7.096   3.556 121.450  0.00  0.00    -0.491 OA
ATOM     25  C   LIG A   1      -8.484   3.611 121.137  0.00  0.00    +0.277 C 
ENDBRANCH  20  24
BRANCH  21  26
ATOM     26  O   LIG A   1      -5.625   5.091 123.066  0.00  0.00    -0.503 OA
ATOM     27  H   LIG A   1      -4.796   4.943 122.570  0.00  0.00    +0.292 HD
ENDBRANCH  21  26
ENDBRANCH   5  18
TORSDOF 4
ENDMDL
MODEL 3
REMARK VINA RESULT:      -7.6      3.587      5.706
REMARK  Name = NuBBE_1632
REMARK  5 active torsions:
REMARK  status: ('A' for Active; 'I' for Inactive)
REMARK    1  A    between atoms: C_2  and  C_22
REMARK    2  A    between atoms: C_8  and  C_12
REMARK    3  A    between atoms: C_14  and  O_15
REMARK    4  A    between atoms: O_15  and  C_16
REMARK    5  A    between atoms: C_17  and  O_18
REMARK                            x       y       z     vdW  Elec       q    Type
REMARK                         _______ _______ _______ _____ _____    ______ ____
ROOT
ATOM      1  O   LIG A   1      -6.738   2.559 122.335  0.00  0.00    -0.371 OA
ATOM      2  C   LIG A   1      -7.843   2.127 123.159  0.00  0.00    +0.154 C 
ATOM      3  C   LIG A   1      -7.903   3.088 124.359  0.00  0.00    +0.056 C 
ATOM      4  C   LIG A   1      -6.558   3.775 124.355  0.00  0.00    +0.056 C 
ATOM      5  C   LIG A   1      -5.705   2.899 125.280  0.00  0.00    +0.154 C 
ATOM      6  O   LIG A   1      -6.630   2.170 126.118  0.00  0.00    -0.371 OA
ATOM      7  C   LIG A   1      -7.968   2.514 125.751  0.00  0.00    +0.167 C 
ATOM      8  C   LIG A   1      -6.156   3.735 122.901  0.00  0.00    +0.167 C 
ENDROOT
BRANCH   2   9
ATOM      9  C   LIG A   1      -7.737   0.637 123.419  0.00  0.00    -0.015 A 
ATOM     10  C   LIG A   1      -8.903  -0.115 123.654  0.00  0.00    +0.055 A 
ATOM     11  C   LIG A   1      -8.778  -1.471 123.886  0.00  0.00    +0.167 A 
ATOM     12  O   LIG A   1      -9.800  -2.336 124.116  0.00  0.00    -0.453 OA
ATOM     13  C   LIG A   1      -9.077  -3.580 124.253  0.00  0.00    +0.466 C 
ATOM     14  O   LIG A   1      -7.648  -3.427 124.142  0.00  0.00    -0.453 OA
ATOM     15  C   LIG A   1      -7.551  -2.094 123.899  0.00  0.00    +0.166 A 
ATOM     16  C   LIG A   1      -6.388  -1.401 123.673  0.00  0.00    +0.050 A 
ATOM     17  C   LIG A   1      -6.487  -0.030 123.419  0.00  0.00    +0.010 A 
ENDBRANCH   2   9
BRANCH   5  18
ATOM     18  C   LIG A   1      -4.697   3.663 126.123  0.00  0.00    -0.015 A 
ATOM     19  C   LIG A   1      -5.105   4.706 126.980  0.00  0.00    +0.055 A 
ATOM     20  C   LIG A   1      -4.186   5.380 127.786  0.00  0.00    +0.162 A 
ATOM     21  C   LIG A   1      -2.845   4.996 127.739  0.00  0.00    +0.159 A 
ATOM     22  C   LIG A   1      -2.414   3.964 126.917  0.00  0.00    +0.049 A 
ATOM     23  C   LIG A   1      -3.339   3.297 126.113  0.00  0.00    +0.010 A 
BRANCH  20  24
ATOM     24  O   LIG A   1      -4.471   6.408 128.648  0.00  0.00    -0.491 OA
ATOM     25  C   LIG A   1      -4.916   6.035 129.948  0.00  0.00    +0.277 C 
ENDBRANCH  20  24
BRANCH  21  26
ATOM     26  O   LIG A   1      -1.919   5.634 128.519  0.00  0.00    -0.503 OA
ATOM     27  H   LIG A   1      -1.094   5.608 127.995  0.00  0.00    +0.292 HD
ENDBRANCH  21  26
ENDBRANCH   5  18
TORSDOF 4
ENDMDL
MODEL 4
REMARK VINA RESULT:      -7.5      6.041      9.002
REMARK  Name = NuBBE_1632
REMARK  5 active torsions:
REMARK  status: ('A' for Active; 'I' for Inactive)
REMARK    1  A    between atoms: C_2  and  C_22
REMARK    2  A    between atoms: C_8  and  C_12
REMARK    3  A    between atoms: C_14  and  O_15
REMARK    4  A    between atoms: O_15  and  C_16
REMARK    5  A    between atoms: C_17  and  O_18
REMARK                            x       y       z     vdW  Elec       q    Type
REMARK                         _______ _______ _______ _____ _____    ______ ____
ROOT
ATOM      1  O   LIG A   1      -7.587   6.277 131.116  0.00  0.00    -0.371 OA
ATOM      2  C   LIG A   1      -8.778   5.751 131.740  0.00  0.00    +0.154 C 
ATOM      3  C   LIG A   1      -8.700   4.219 131.626  0.00  0.00    +0.056 C 
ATOM      4  C   LIG A   1      -7.647   3.976 130.572  0.00  0.00    +0.056 C 
ATOM      5  C   LIG A   1      -8.456   3.890 129.271  0.00  0.00    +0.154 C 
ATOM      6  O   LIG A   1      -9.809   3.557 129.655  0.00  0.00    -0.371 OA
ATOM      7  C   LIG A   1      -9.885   3.466 131.079  0.00  0.00    +0.167 C 
ATOM      8  C   LIG A   1      -6.762   5.193 130.683  0.00  0.00    +0.167 C 
ENDROOT
BRANCH   2   9
ATOM      9  C   LIG A   1     -10.000   6.465 131.194  0.00  0.00    -0.015 A 
ATOM     10  C   LIG A   1      -9.909   7.183 129.988  0.00  0.00    +0.055 A 
ATOM     11  C   LIG A   1     -11.038   7.821 129.513  0.00  0.00    +0.167 A 
ATOM     12  O   LIG A   1     -11.120   8.543 128.364  0.00  0.00    -0.453 OA
ATOM     13  C   LIG A   1     -12.512   8.927 128.384  0.00  0.00    +0.466 C 
ATOM     14  O   LIG A   1     -13.218   8.466 129.554  0.00  0.00    -0.453 OA
ATOM     15  C   LIG A   1     -12.235   7.777 130.190  0.00  0.00    +0.166 A 
ATOM     16  C   LIG A   1     -12.371   7.086 131.369  0.00  0.00    +0.050 A 
ATOM     17  C   LIG A   1     -11.248   6.418 131.864  0.00  0.00    +0.010 A 
ENDBRANCH   2   9
BRANCH   5  18
ATOM     18  C   LIG A   1      -7.920   2.892 128.258  0.00  0.00    -0.015 A 
ATOM     19  C   LIG A   1      -6.744   3.158 127.526  0.00  0.00    +0.055 A 
ATOM     20  C   LIG A   1      -6.228   2.224 126.626  0.00  0.00    +0.162 A 
ATOM     21  C   LIG A   1      -6.892   1.007 126.466  0.00  0.00    +0.159 A 
ATOM     22  C   LIG A   1      -8.043   0.710 127.183  0.00  0.00    +0.049 A 
ATOM     23  C   LIG A   1      -8.555   1.650 128.079  0.00  0.00    +0.010 A 
BRANCH  20  24
ATOM     24  O   LIG A   1      -5.100   2.379 125.861  0.00  0.00    -0.491 OA
ATOM     25  C   LIG A   1      -3.909   2.730 126.558  0.00  0.00    +0.277 C 
ENDBRANCH  20  24
BRANCH  21  26
ATOM     26  O   LIG A   1      -6.410   0.068 125.594  0.00  0.00    -0.503 OA
ATOM     27  H   LIG A   1      -6.616  -0.789 126.016  0.00  0.00    +0.292 HD
ENDBRANCH  21  26
ENDBRANCH   5  18
TORSDOF 4
ENDMDL
MODEL 5
REMARK VINA RESULT:      -7.5      6.244      8.922
REMARK  Name = NuBBE_1632
REMARK  5 active torsions:
REMARK  status: ('A' for Active; 'I' for Inactive)
REMARK    1  A    between atoms: C_2  and  C_22
REMARK    2  A    between atoms: C_8  and  C_12
REMARK    3  A    between atoms: C_14  and  O_15
REMARK    4  A    between atoms: O_15  and  C_16
REMARK    5  A    between atoms: C_17  and  O_18
REMARK                            x       y       z     vdW  Elec       q    Type
REMARK                         _______ _______ _______ _____ _____    ______ ____
ROOT
ATOM      1  O   LIG A   1      -7.192   6.550 132.256  0.00  0.00    -0.371 OA
ATOM      2  C   LIG A   1      -8.375   5.724 132.338  0.00  0.00    +0.154 C 
ATOM      3  C   LIG A   1      -7.934   4.285 132.018  0.00  0.00    +0.056 C 
ATOM      4  C   LIG A   1      -6.581   4.445 131.368  0.00  0.00    +0.056 C 
ATOM      5  C   LIG A   1      -6.909   4.527 129.872  0.00  0.00    +0.154 C 
ATOM      6  O   LIG A   1      -8.208   3.916 129.706  0.00  0.00    -0.371 OA
ATOM      7  C   LIG A   1      -8.699   3.502 130.983  0.00  0.00    +0.167 C 
ATOM      8  C   LIG A   1      -6.059   5.727 131.970  0.00  0.00    +0.167 C 
ENDROOT
BRANCH   2   9
ATOM      9  C   LIG A   1      -9.492   6.347 131.523  0.00  0.00    -0.015 A 
ATOM     10  C   LIG A   1      -9.186   7.064 130.353  0.00  0.00    +0.055 A 
ATOM     11  C   LIG A   1     -10.223   7.619 129.629  0.00  0.00    +0.167 A 
ATOM     12  O   LIG A   1     -10.099   8.327 128.474  0.00  0.00    -0.453 OA
ATOM     13  C   LIG A   1     -11.484   8.612 128.181  0.00  0.00    +0.466 C 
ATOM     14  O   LIG A   1     -12.397   8.109 129.177  0.00  0.00    -0.453 OA
ATOM     15  C   LIG A   1     -11.534   7.494 130.027  0.00  0.00    +0.166 A 
ATOM     16  C   LIG A   1     -11.880   6.801 131.162  0.00  0.00    +0.050 A 
ATOM     17  C   LIG A   1     -10.850   6.216 131.904  0.00  0.00    +0.010 A 
ENDBRANCH   2   9
BRANCH   5  18
ATOM     18  C   LIG A   1      -5.882   3.872 128.963  0.00  0.00    -0.015 A 
ATOM     19  C   LIG A   1      -6.108   3.751 127.576  0.00  0.00    +0.055 A 
ATOM     20  C   LIG A   1      -5.148   3.188 126.735  0.00  0.00    +0.162 A 
ATOM     21  C   LIG A   1      -3.943   2.751 127.288  0.00  0.00    +0.159 A 
ATOM     22  C   LIG A   1      -3.685   2.870 128.647  0.00  0.00    +0.049 A 
ATOM     23  C   LIG A   1      -4.651   3.431 129.482  0.00  0.00    +0.010 A 
BRANCH  20  24
ATOM     24  O   LIG A   1      -5.264   3.017 125.379  0.00  0.00    -0.491 OA
ATOM     25  C   LIG A   1      -5.516   4.192 124.614  0.00  0.00    +0.277 C 
ENDBRANCH  20  24
BRANCH  21  26
ATOM     26  O   LIG A   1      -2.979   2.198 126.490  0.00  0.00    -0.503 OA
ATOM     27  H   LIG A   1      -2.969   2.759 125.689  0.00  0.00    +0.292 HD
ENDBRANCH  21  26
ENDBRANCH   5  18
TORSDOF 4
ENDMDL
MODEL 6
REMARK VINA RESULT:      -7.5      7.383      9.567
REMARK  Name = NuBBE_1632
REMARK  5 active torsions:
REMARK  status: ('A' for Active; 'I' for Inactive)
REMARK    1  A    between atoms: C_2  and  C_22
REMARK    2  A    between atoms: C_8  and  C_12
REMARK    3  A    between atoms: C_14  and  O_15
REMARK    4  A    between atoms: O_15  and  C_16
REMARK    5  A    between atoms: C_17  and  O_18
REMARK                            x       y       z     vdW  Elec       q    Type
REMARK                         _______ _______ _______ _____ _____    ______ ____
ROOT
ATOM      1  O   LIG A   1      -6.761   2.844 130.660  0.00  0.00    -0.371 OA
ATOM      2  C   LIG A   1      -5.983   3.493 131.690  0.00  0.00    +0.154 C 
ATOM      3  C   LIG A   1      -6.983   4.211 132.613  0.00  0.00    +0.056 C 
ATOM      4  C   LIG A   1      -8.261   4.263 131.812  0.00  0.00    +0.056 C 
ATOM      5  C   LIG A   1      -8.176   5.613 131.089  0.00  0.00    +0.154 C 
ATOM      6  O   LIG A   1      -7.252   6.424 131.848  0.00  0.00    -0.371 OA
ATOM      7  C   LIG A   1      -6.752   5.662 132.949  0.00  0.00    +0.167 C 
ATOM      8  C   LIG A   1      -8.151   3.058 130.911  0.00  0.00    +0.167 C 
ENDROOT
BRANCH   2   9
ATOM      9  C   LIG A   1      -4.863   4.296 131.057  0.00  0.00    -0.015 A 
ATOM     10  C   LIG A   1      -5.065   4.913 129.810  0.00  0.00    +0.055 A 
ATOM     11  C   LIG A   1      -4.028   5.640 129.257  0.00  0.00    +0.167 A 
ATOM     12  O   LIG A   1      -4.065   6.304 128.071  0.00  0.00    -0.453 OA
ATOM     13  C   LIG A   1      -2.741   6.881 128.043  0.00  0.00    +0.466 C 
ATOM     14  O   LIG A   1      -1.934   6.521 129.182  0.00  0.00    -0.453 OA
ATOM     15  C   LIG A   1      -2.813   5.766 129.890  0.00  0.00    +0.166 A 
ATOM     16  C   LIG A   1      -2.572   5.183 131.110  0.00  0.00    +0.050 A 
ATOM     17  C   LIG A   1      -3.610   4.455 131.698  0.00  0.00    +0.010 A 
ENDBRANCH   2   9
BRANCH   5  18
ATOM     18  C   LIG A   1      -9.508   6.324 130.919  0.00  0.00    -0.015 A 
ATOM     19  C   LIG A   1      -9.759   7.146 129.801  0.00  0.00    +0.055 A 
ATOM     20  C   LIG A   1     -10.996   7.766 129.623  0.00  0.00    +0.162 A 
ATOM     21  C   LIG A   1     -11.997   7.551 130.572  0.00  0.00    +0.159 A 
ATOM     22  C   LIG A   1     -11.787   6.736 131.676  0.00  0.00    +0.049 A 
ATOM     23  C   LIG A   1     -10.545   6.122 131.848  0.00  0.00    +0.010 A 
BRANCH  20  24
ATOM     24  O   LIG A   1     -11.346   8.586 128.581  0.00  0.00    -0.491 OA
ATOM     25  C   LIG A   1     -10.918   8.176 127.285  0.00  0.00    +0.277 C 
ENDBRANCH  20  24
BRANCH  21  26
ATOM     26  O   LIG A   1     -13.223   8.141 130.426  0.00  0.00    -0.503 OA
ATOM     27  H   LIG A   1     -13.720   7.882 131.227  0.00  0.00    +0.292 HD
ENDBRANCH  21  26
ENDBRANCH   5  18
TORSDOF 4
ENDMDL
MODEL 7
REMARK VINA RESULT:      -7.5      6.627      9.105
REMARK  Name = NuBBE_1632
REMARK  5 active torsions:
REMARK  status: ('A' for Active; 'I' for Inactive)
REMARK    1  A    between atoms: C_2  and  C_22
REMARK    2  A    between atoms: C_8  and  C_12
REMARK    3  A    between atoms: C_14  and  O_15
REMARK    4  A    between atoms: O_15  and  C_16
REMARK    5  A    between atoms: C_17  and  O_18
REMARK                            x       y       z     vdW  Elec       q    Type
REMARK                         _______ _______ _______ _____ _____    ______ ____
ROOT
ATOM      1  O   LIG A   1      -8.197   5.975 132.105  0.00  0.00    -0.371 OA
ATOM      2  C   LIG A   1      -9.307   5.233 131.554  0.00  0.00    +0.154 C 
ATOM      3  C   LIG A   1      -8.744   3.884 131.072  0.00  0.00    +0.056 C 
ATOM      4  C   LIG A   1      -7.252   4.103 131.010  0.00  0.00    +0.056 C 
ATOM      5  C   LIG A   1      -7.016   4.557 129.565  0.00  0.00    +0.154 C 
ATOM      6  O   LIG A   1      -8.150   4.090 128.801  0.00  0.00    -0.371 OA
ATOM      7  C   LIG A   1      -9.061   3.419 129.674  0.00  0.00    +0.167 C 
ATOM      8  C   LIG A   1      -7.017   5.170 132.052  0.00  0.00    +0.167 C 
ENDROOT
BRANCH   2   9
ATOM      9  C   LIG A   1     -10.068   6.102 130.571  0.00  0.00    -0.015 A 
ATOM     10  C   LIG A   1     -11.385   5.763 130.213  0.00  0.00    +0.055 A 
ATOM     11  C   LIG A   1     -12.055   6.574 129.317  0.00  0.00    +0.167 A 
ATOM     12  O   LIG A   1     -13.329   6.393 128.879  0.00  0.00    -0.453 OA
ATOM     13  C   LIG A   1     -13.481   7.537 128.010  0.00  0.00    +0.466 C 
ATOM     14  O   LIG A   1     -12.293   8.347 127.915  0.00  0.00    -0.453 OA
ATOM     15  C   LIG A   1     -11.465   7.689 128.767  0.00  0.00    +0.166 A 
ATOM     16  C   LIG A   1     -10.183   8.059 129.089  0.00  0.00    +0.050 A 
ATOM     17  C   LIG A   1      -9.488   7.265 130.006  0.00  0.00    +0.010 A 
ENDBRANCH   2   9
BRANCH   5  18
ATOM     18  C   LIG A   1      -5.713   4.070 128.953  0.00  0.00    -0.015 A 
ATOM     19  C   LIG A   1      -4.656   4.962 128.682  0.00  0.00    +0.055 A 
ATOM     20  C   LIG A   1      -3.444   4.509 128.160  0.00  0.00    +0.162 A 
ATOM     21  C   LIG A   1      -3.287   3.143 127.916  0.00  0.00    +0.159 A 
ATOM     22  C   LIG A   1      -4.303   2.237 128.186  0.00  0.00    +0.049 A 
ATOM     23  C   LIG A   1      -5.513   2.699 128.705  0.00  0.00    +0.010 A 
BRANCH  20  24
ATOM     24  O   LIG A   1      -2.355   5.286 127.855  0.00  0.00    -0.491 OA
ATOM     25  C   LIG A   1      -2.416   6.647 128.268  0.00  0.00    +0.277 C 
ENDBRANCH  20  24
BRANCH  21  26
ATOM     26  O   LIG A   1      -2.110   2.665 127.408  0.00  0.00    -0.503 OA
ATOM     27  H   LIG A   1      -2.111   2.947 126.472  0.00  0.00    +0.292 HD
ENDBRANCH  21  26
ENDBRANCH   5  18
TORSDOF 4
ENDMDL
MODEL 8
REMARK VINA RESULT:      -7.3      5.574      9.059
REMARK  Name = NuBBE_1632
REMARK  5 active torsions:
REMARK  status: ('A' for Active; 'I' for Inactive)
REMARK    1  A    between atoms: C_2  and  C_22
REMARK    2  A    between atoms: C_8  and  C_12
REMARK    3  A    between atoms: C_14  and  O_15
REMARK    4  A    between atoms: O_15  and  C_16
REMARK    5  A    between atoms: C_17  and  O_18
REMARK                            x       y       z     vdW  Elec       q    Type
REMARK                         _______ _______ _______ _____ _____    ______ ____
ROOT
ATOM      1  O   LIG A   1      -7.635   5.898 130.062  0.00  0.00    -0.371 OA
ATOM      2  C   LIG A   1      -8.561   5.710 131.154  0.00  0.00    +0.154 C 
ATOM      3  C   LIG A   1      -8.362   4.272 131.663  0.00  0.00    +0.056 C 
ATOM      4  C   LIG A   1      -7.606   3.585 130.552  0.00  0.00    +0.056 C 
ATOM      5  C   LIG A   1      -8.715   2.974 129.687  0.00  0.00    +0.154 C 
ATOM      6  O   LIG A   1      -9.879   2.863 130.536  0.00  0.00    -0.371 OA
ATOM      7  C   LIG A   1      -9.568   3.384 131.830  0.00  0.00    +0.167 C 
ATOM      8  C   LIG A   1      -6.849   4.716 129.899  0.00  0.00    +0.167 C 
ENDROOT
BRANCH   2   9
ATOM      9  C   LIG A   1      -9.950   6.152 130.731  0.00  0.00    -0.015 A 
ATOM     10  C   LIG A   1     -10.278   6.208 129.365  0.00  0.00    +0.055 A 
ATOM     11  C   LIG A   1     -11.550   6.612 129.008  0.00  0.00    +0.167 A 
ATOM     12  O   LIG A   1     -12.028   6.708 127.739  0.00  0.00    -0.453 OA
ATOM     13  C   LIG A   1     -13.384   7.138 127.992  0.00  0.00    +0.466 C 
ATOM     14  O   LIG A   1     -13.674   7.327 129.391  0.00  0.00    -0.453 OA
ATOM     15  C   LIG A   1     -12.490   6.963 129.950  0.00  0.00    +0.166 A 
ATOM     16  C   LIG A   1     -12.215   6.921 131.294  0.00  0.00    +0.050 A 
ATOM     17  C   LIG A   1     -10.939   6.501 131.683  0.00  0.00    +0.010 A 
ENDBRANCH   2   9
BRANCH   5  18
ATOM     18  C   LIG A   1      -8.367   1.631 129.066  0.00  0.00    -0.015 A 
ATOM     19  C   LIG A   1      -8.433   1.434 127.671  0.00  0.00    +0.055 A 
ATOM     20  C   LIG A   1      -8.073   0.214 127.097  0.00  0.00    +0.162 A 
ATOM     21  C   LIG A   1      -7.633  -0.817 127.930  0.00  0.00    +0.159 A 
ATOM     22  C   LIG A   1      -7.542  -0.648 129.305  0.00  0.00    +0.049 A 
ATOM     23  C   LIG A   1      -7.907   0.574 129.872  0.00  0.00    +0.010 A 
BRANCH  20  24
ATOM     24  O   LIG A   1      -8.104  -0.089 125.760  0.00  0.00    -0.491 OA
ATOM     25  C   LIG A   1      -9.260   0.334 125.044  0.00  0.00    +0.277 C 
ENDBRANCH  20  24
BRANCH  21  26
ATOM     26  O   LIG A   1      -7.268  -2.024 127.399  0.00  0.00    -0.503 OA
ATOM     27  H   LIG A   1      -7.166  -1.853 126.442  0.00  0.00    +0.292 HD
ENDBRANCH  21  26
ENDBRANCH   5  18
TORSDOF 4
ENDMDL
MODEL 9
REMARK VINA RESULT:      -7.3      9.214     11.640
REMARK  Name = NuBBE_1632
REMARK  5 active torsions:
REMARK  status: ('A' for Active; 'I' for Inactive)
REMARK    1  A    between atoms: C_2  and  C_22
REMARK    2  A    between atoms: C_8  and  C_12
REMARK    3  A    between atoms: C_14  and  O_15
REMARK    4  A    between atoms: O_15  and  C_16
REMARK    5  A    between atoms: C_17  and  O_18
REMARK                            x       y       z     vdW  Elec       q    Type
REMARK                         _______ _______ _______ _____ _____    ______ ____
ROOT
ATOM      1  O   LIG A   1      -3.199   6.440 129.686  0.00  0.00    -0.371 OA
ATOM      2  C   LIG A   1      -2.546   5.735 130.764  0.00  0.00    +0.154 C 
ATOM      3  C   LIG A   1      -3.573   4.735 131.326  0.00  0.00    +0.056 C 
ATOM      4  C   LIG A   1      -4.898   5.220 130.789  0.00  0.00    +0.056 C 
ATOM      5  C   LIG A   1      -5.412   6.152 131.893  0.00  0.00    +0.154 C 
ATOM      6  O   LIG A   1      -4.725   5.767 133.104  0.00  0.00    -0.371 OA
ATOM      7  C   LIG A   1      -3.819   4.700 132.812  0.00  0.00    +0.167 C 
ATOM      8  C   LIG A   1      -4.516   5.915 129.505  0.00  0.00    +0.167 C 
ENDROOT
BRANCH   2   9
ATOM      9  C   LIG A   1      -1.899   6.729 131.709  0.00  0.00    -0.015 A 
ATOM     10  C   LIG A   1      -2.500   7.982 131.923  0.00  0.00    +0.055 A 
ATOM     11  C   LIG A   1      -1.889   8.868 132.790  0.00  0.00    +0.167 A 
ATOM     12  O   LIG A   1      -2.345  10.107 133.113  0.00  0.00    -0.453 OA
ATOM     13  C   LIG A   1      -1.335  10.529 134.056  0.00  0.00    +0.466 C 
ATOM     14  O   LIG A   1      -0.285   9.560 134.245  0.00  0.00    -0.453 OA
ATOM     15  C   LIG A   1      -0.716   8.556 133.438  0.00  0.00    +0.166 A 
ATOM     16  C   LIG A   1      -0.096   7.344 133.262  0.00  0.00    +0.050 A 
ATOM     17  C   LIG A   1      -0.701   6.423 132.401  0.00  0.00    +0.010 A 
ENDBRANCH   2   9
BRANCH   5  18
ATOM     18  C   LIG A   1      -6.919   6.125 132.093  0.00  0.00    -0.015 A 
ATOM     19  C   LIG A   1      -7.792   6.669 131.129  0.00  0.00    +0.055 A 
ATOM     20  C   LIG A   1      -9.177   6.607 131.291  0.00  0.00    +0.162 A 
ATOM     21  C   LIG A   1      -9.691   5.982 132.429  0.00  0.00    +0.159 A 
ATOM     22  C   LIG A   1      -8.858   5.424 133.389  0.00  0.00    +0.049 A 
ATOM     23  C   LIG A   1      -7.475   5.493 133.220  0.00  0.00    +0.010 A 
BRANCH  20  24
ATOM     24  O   LIG A   1     -10.114   7.105 130.424  0.00  0.00    -0.491 OA
ATOM     25  C   LIG A   1     -10.148   6.519 129.126  0.00  0.00    +0.277 C 
ENDBRANCH  20  24
BRANCH  21  26
ATOM     26  O   LIG A   1     -11.044   5.900 132.617  0.00  0.00    -0.503 OA
ATOM     27  H   LIG A   1     -11.181   5.041 133.062  0.00  0.00    +0.292 HD
ENDBRANCH  21  26
ENDBRANCH   5  18
TORSDOF 4
ENDMDL
