MODEL 1
REMARK VINA RESULT:      -7.5      0.000      0.000
REMARK  Name = NuBBE_2502
REMARK  0 active torsions:
REMARK  status: ('A' for Active; 'I' for Inactive)
REMARK                            x       y       z     vdW  Elec       q    Type
REMARK                         _______ _______ _______ _____ _____    ______ ____
ROOT
ATOM      1  C   LIG A   1      -4.807   4.217 124.972  0.00  0.00    +0.008 C 
ATOM      2  C   LIG A   1      -5.877   3.573 124.464  0.00  0.00    -0.073 C 
ATOM      3  C   LIG A   1      -6.847   2.940 125.442  0.00  0.00    +0.031 C 
ATOM      4  C   LIG A   1      -8.293   3.333 125.224  0.00  0.00    +0.016 C 
ATOM      5  C   LIG A   1      -9.027   2.592 124.125  0.00  0.00    +0.067 C 
ATOM      6  C   LIG A   1      -9.532   1.203 124.249  0.00  0.00    +0.036 C 
ATOM      7  C   LIG A   1      -9.236   0.214 125.102  0.00  0.00    +0.020 C 
ATOM      8  C   LIG A   1     -10.189   1.018 122.914  0.00  0.00    +0.335 C 
ATOM      9  O   LIG A   1     -11.208   0.375 122.682  0.00  0.00    -0.245 OA
ATOM     10  O   LIG A   1      -9.469   1.817 122.042  0.00  0.00    -0.457 OA
ATOM     11  C   LIG A   1      -8.339   2.302 122.799  0.00  0.00    +0.192 C 
ATOM     12  C   LIG A   1      -7.500   3.503 122.338  0.00  0.00    +0.063 C 
ATOM     13  C   LIG A   1      -7.185   3.721 120.870  0.00  0.00    -0.069 C 
ATOM     14  C   LIG A   1      -8.066   4.098 119.936  0.00  0.00    +0.008 C 
ATOM     15  C   LIG A   1      -5.696   3.785 120.654  0.00  0.00    +0.031 C 
ATOM     16  C   LIG A   1      -5.197   4.190 122.032  0.00  0.00    +0.013 C 
ATOM     17  C   LIG A   1      -6.062   3.336 122.969  0.00  0.00    +0.025 C 
ENDROOT
TORSDOF 0
ENDMDL
MODEL 2
REMARK VINA RESULT:      -6.8      5.239      7.080
REMARK  Name = NuBBE_2502
REMARK  0 active torsions:
REMARK  status: ('A' for Active; 'I' for Inactive)
REMARK                            x       y       z     vdW  Elec       q    Type
REMARK                         _______ _______ _______ _____ _____    ______ ____
ROOT
ATOM      1  C   LIG A   1      -9.044  -4.063 128.082  0.00  0.00    +0.008 C 
ATOM      2  C   LIG A   1      -8.239  -3.063 127.674  0.00  0.00    -0.073 C 
ATOM      3  C   LIG A   1      -7.687  -2.127 128.731  0.00  0.00    +0.031 C 
ATOM      4  C   LIG A   1      -6.184  -1.953 128.683  0.00  0.00    +0.016 C 
ATOM      5  C   LIG A   1      -5.657  -0.980 127.648  0.00  0.00    +0.067 C 
ATOM      6  C   LIG A   1      -5.719   0.496 127.784  0.00  0.00    +0.036 C 
ATOM      7  C   LIG A   1      -6.452   1.295 128.569  0.00  0.00    +0.020 C 
ATOM      8  C   LIG A   1      -5.031   0.926 126.523  0.00  0.00    +0.335 C 
ATOM      9  O   LIG A   1      -4.303   1.904 126.383  0.00  0.00    -0.245 OA
ATOM     10  O   LIG A   1      -5.302  -0.072 125.603  0.00  0.00    -0.457 OA
ATOM     11  C   LIG A   1      -6.250  -0.949 126.247  0.00  0.00    +0.192 C 
ATOM     12  C   LIG A   1      -6.529  -2.370 125.735  0.00  0.00    +0.063 C 
ATOM     13  C   LIG A   1      -6.575  -2.673 124.249  0.00  0.00    -0.069 C 
ATOM     14  C   LIG A   1      -5.517  -2.685 123.428  0.00  0.00    +0.008 C 
ATOM     15  C   LIG A   1      -7.900  -3.282 123.875  0.00  0.00    +0.031 C 
ATOM     16  C   LIG A   1      -8.365  -3.859 125.203  0.00  0.00    +0.013 C 
ATOM     17  C   LIG A   1      -7.987  -2.756 126.201  0.00  0.00    +0.025 C 
ENDROOT
TORSDOF 0
ENDMDL
MODEL 3
REMARK VINA RESULT:      -6.8      5.292      6.780
REMARK  Name = NuBBE_2502
REMARK  0 active torsions:
REMARK  status: ('A' for Active; 'I' for Inactive)
REMARK                            x       y       z     vdW  Elec       q    Type
REMARK                         _______ _______ _______ _____ _____    ______ ____
ROOT
ATOM      1  C   LIG A   1      -9.386  -1.022 122.918  0.00  0.00    +0.008 C 
ATOM      2  C   LIG A   1      -8.575  -1.301 123.957  0.00  0.00    -0.073 C 
ATOM      3  C   LIG A   1      -9.132  -1.116 125.354  0.00  0.00    +0.031 C 
ATOM      4  C   LIG A   1      -8.968  -2.323 126.253  0.00  0.00    +0.016 C 
ATOM      5  C   LIG A   1      -7.606  -2.497 126.895  0.00  0.00    +0.067 C 
ATOM      6  C   LIG A   1      -7.121  -1.702 128.049  0.00  0.00    +0.036 C 
ATOM      7  C   LIG A   1      -7.529  -0.538 128.573  0.00  0.00    +0.020 C 
ATOM      8  C   LIG A   1      -5.773  -2.320 128.274  0.00  0.00    +0.335 C 
ATOM      9  O   LIG A   1      -5.218  -2.492 129.354  0.00  0.00    -0.245 OA
ATOM     10  O   LIG A   1      -5.358  -2.748 127.025  0.00  0.00    -0.457 OA
ATOM     11  C   LIG A   1      -6.338  -2.243 126.093  0.00  0.00    +0.192 C 
ATOM     12  C   LIG A   1      -6.469  -2.792 124.665  0.00  0.00    +0.063 C 
ATOM     13  C   LIG A   1      -5.243  -3.183 123.860  0.00  0.00    -0.069 C 
ATOM     14  C   LIG A   1      -4.467  -4.247 124.098  0.00  0.00    +0.008 C 
ATOM     15  C   LIG A   1      -5.198  -2.419 122.563  0.00  0.00    +0.031 C 
ATOM     16  C   LIG A   1      -6.660  -2.050 122.366  0.00  0.00    +0.013 C 
ATOM     17  C   LIG A   1      -7.100  -1.647 123.780  0.00  0.00    +0.025 C 
ENDROOT
TORSDOF 0
ENDMDL
MODEL 4
REMARK VINA RESULT:      -6.6      2.887      5.489
REMARK  Name = NuBBE_2502
REMARK  0 active torsions:
REMARK  status: ('A' for Active; 'I' for Inactive)
REMARK                            x       y       z     vdW  Elec       q    Type
REMARK                         _______ _______ _______ _____ _____    ______ ____
ROOT
ATOM      1  C   LIG A   1      -9.616  -2.648 122.866  0.00  0.00    +0.008 C 
ATOM      2  C   LIG A   1      -8.979  -1.481 123.079  0.00  0.00    -0.073 C 
ATOM      3  C   LIG A   1      -9.709  -0.203 122.714  0.00  0.00    +0.031 C 
ATOM      4  C   LIG A   1      -9.758   0.823 123.826  0.00  0.00    +0.016 C 
ATOM      5  C   LIG A   1      -8.515   1.669 124.009  0.00  0.00    +0.067 C 
ATOM      6  C   LIG A   1      -8.138   2.799 123.126  0.00  0.00    +0.036 C 
ATOM      7  C   LIG A   1      -8.528   3.142 121.891  0.00  0.00    +0.020 C 
ATOM      8  C   LIG A   1      -6.882   3.276 123.793  0.00  0.00    +0.335 C 
ATOM      9  O   LIG A   1      -6.496   4.437 123.882  0.00  0.00    -0.245 OA
ATOM     10  O   LIG A   1      -6.331   2.148 124.376  0.00  0.00    -0.457 OA
ATOM     11  C   LIG A   1      -7.133   1.039 123.917  0.00  0.00    +0.192 C 
ATOM     12  C   LIG A   1      -7.105  -0.332 124.607  0.00  0.00    +0.063 C 
ATOM     13  C   LIG A   1      -5.811  -0.909 125.151  0.00  0.00    -0.069 C 
ATOM     14  C   LIG A   1      -5.155  -0.459 126.228  0.00  0.00    +0.008 C 
ATOM     15  C   LIG A   1      -5.532  -2.254 124.534  0.00  0.00    +0.031 C 
ATOM     16  C   LIG A   1      -6.922  -2.696 124.104  0.00  0.00    +0.013 C 
ATOM     17  C   LIG A   1      -7.522  -1.407 123.527  0.00  0.00    +0.025 C 
ENDROOT
TORSDOF 0
ENDMDL
MODEL 5
REMARK VINA RESULT:      -6.5      3.196      6.038
REMARK  Name = NuBBE_2502
REMARK  0 active torsions:
REMARK  status: ('A' for Active; 'I' for Inactive)
REMARK                            x       y       z     vdW  Elec       q    Type
REMARK                         _______ _______ _______ _____ _____    ______ ____
ROOT
ATOM      1  C   LIG A   1      -6.313  -2.613 128.633  0.00  0.00    +0.008 C 
ATOM      2  C   LIG A   1      -6.644  -1.836 127.583  0.00  0.00    -0.073 C 
ATOM      3  C   LIG A   1      -5.788  -0.615 127.312  0.00  0.00    +0.031 C 
ATOM      4  C   LIG A   1      -5.281  -0.516 125.889  0.00  0.00    +0.016 C 
ATOM      5  C   LIG A   1      -6.260   0.032 124.869  0.00  0.00    +0.067 C 
ATOM      6  C   LIG A   1      -6.608   1.467 124.735  0.00  0.00    +0.036 C 
ATOM      7  C   LIG A   1      -6.460   2.508 125.564  0.00  0.00    +0.020 C 
ATOM      8  C   LIG A   1      -7.556   1.422 123.573  0.00  0.00    +0.335 C 
ATOM      9  O   LIG A   1      -7.679   2.271 122.696  0.00  0.00    -0.245 OA
ATOM     10  O   LIG A   1      -8.162   0.180 123.648  0.00  0.00    -0.457 OA
ATOM     11  C   LIG A   1      -7.719  -0.396 124.895  0.00  0.00    +0.192 C 
ATOM     12  C   LIG A   1      -7.849  -1.897 125.194  0.00  0.00    +0.063 C 
ATOM     13  C   LIG A   1      -9.065  -2.684 124.742  0.00  0.00    -0.069 C 
ATOM     14  C   LIG A   1      -9.351  -3.008 123.475  0.00  0.00    +0.008 C 
ATOM     15  C   LIG A   1      -9.736  -3.342 125.918  0.00  0.00    +0.031 C 
ATOM     16  C   LIG A   1      -8.598  -3.420 126.924  0.00  0.00    +0.013 C 
ATOM     17  C   LIG A   1      -7.912  -2.056 126.764  0.00  0.00    +0.025 C 
ENDROOT
TORSDOF 0
ENDMDL
MODEL 6
REMARK VINA RESULT:      -6.5      3.360      5.511
REMARK  Name = NuBBE_2502
REMARK  0 active torsions:
REMARK  status: ('A' for Active; 'I' for Inactive)
REMARK                            x       y       z     vdW  Elec       q    Type
REMARK                         _______ _______ _______ _____ _____    ______ ____
ROOT
ATOM      1  C   LIG A   1      -9.333  -3.137 123.215  0.00  0.00    +0.008 C 
ATOM      2  C   LIG A   1      -8.559  -2.214 123.819  0.00  0.00    -0.073 C 
ATOM      3  C   LIG A   1      -7.403  -2.709 124.664  0.00  0.00    +0.031 C 
ATOM      4  C   LIG A   1      -6.069  -2.080 124.320  0.00  0.00    +0.016 C 
ATOM      5  C   LIG A   1      -5.811  -0.704 124.899  0.00  0.00    +0.067 C 
ATOM      6  C   LIG A   1      -5.447  -0.450 126.314  0.00  0.00    +0.036 C 
ATOM      7  C   LIG A   1      -5.561  -1.199 127.419  0.00  0.00    +0.020 C 
ATOM      8  C   LIG A   1      -5.277   1.040 126.301  0.00  0.00    +0.335 C 
ATOM      9  O   LIG A   1      -4.463   1.690 126.950  0.00  0.00    -0.245 OA
ATOM     10  O   LIG A   1      -6.146   1.496 125.325  0.00  0.00    -0.457 OA
ATOM     11  C   LIG A   1      -6.914   0.343 124.917  0.00  0.00    +0.192 C 
ATOM     12  C   LIG A   1      -7.720   0.318 123.610  0.00  0.00    +0.063 C 
ATOM     13  C   LIG A   1      -8.463   1.549 123.124  0.00  0.00    -0.069 C 
ATOM     14  C   LIG A   1      -7.891   2.658 122.640  0.00  0.00    +0.008 C 
ATOM     15  C   LIG A   1      -9.926   1.244 122.941  0.00  0.00    +0.031 C 
ATOM     16  C   LIG A   1      -9.910  -0.265 122.753  0.00  0.00    +0.013 C 
ATOM     17  C   LIG A   1      -8.890  -0.725 123.803  0.00  0.00    +0.025 C 
ENDROOT
TORSDOF 0
ENDMDL
MODEL 7
REMARK VINA RESULT:      -6.4      3.639      5.180
REMARK  Name = NuBBE_2502
REMARK  0 active torsions:
REMARK  status: ('A' for Active; 'I' for Inactive)
REMARK                            x       y       z     vdW  Elec       q    Type
REMARK                         _______ _______ _______ _____ _____    ______ ____
ROOT
ATOM      1  C   LIG A   1      -5.412  -2.976 123.810  0.00  0.00    +0.008 C 
ATOM      2  C   LIG A   1      -6.132  -2.084 124.519  0.00  0.00    -0.073 C 
ATOM      3  C   LIG A   1      -5.551  -1.593 125.830  0.00  0.00    +0.031 C 
ATOM      4  C   LIG A   1      -5.503  -0.085 125.961  0.00  0.00    +0.016 C 
ATOM      5  C   LIG A   1      -6.799   0.591 126.363  0.00  0.00    +0.067 C 
ATOM      6  C   LIG A   1      -7.345   0.592 127.742  0.00  0.00    +0.036 C 
ATOM      7  C   LIG A   1      -7.088  -0.174 128.810  0.00  0.00    +0.020 C 
ATOM      8  C   LIG A   1      -8.581   1.423 127.558  0.00  0.00    +0.335 C 
ATOM      9  O   LIG A   1      -9.061   2.210 128.367  0.00  0.00    -0.245 OA
ATOM     10  O   LIG A   1      -8.980   1.193 126.253  0.00  0.00    -0.457 OA
ATOM     11  C   LIG A   1      -8.121   0.142 125.760  0.00  0.00    +0.192 C 
ATOM     12  C   LIG A   1      -7.971  -0.157 124.262  0.00  0.00    +0.063 C 
ATOM     13  C   LIG A   1      -9.160  -0.072 123.322  0.00  0.00    -0.069 C 
ATOM     14  C   LIG A   1      -9.765   1.060 122.940  0.00  0.00    +0.008 C 
ATOM     15  C   LIG A   1      -9.367  -1.383 122.612  0.00  0.00    +0.031 C 
ATOM     16  C   LIG A   1      -7.982  -2.006 122.695  0.00  0.00    +0.013 C 
ATOM     17  C   LIG A   1      -7.548  -1.673 124.128  0.00  0.00    +0.025 C 
ENDROOT
TORSDOF 0
ENDMDL
MODEL 8
REMARK VINA RESULT:      -6.4      2.501      4.366
REMARK  Name = NuBBE_2502
REMARK  0 active torsions:
REMARK  status: ('A' for Active; 'I' for Inactive)
REMARK                            x       y       z     vdW  Elec       q    Type
REMARK                         _______ _______ _______ _____ _____    ______ ____
ROOT
ATOM      1  C   LIG A   1     -10.340   1.320 123.385  0.00  0.00    +0.008 C 
ATOM      2  C   LIG A   1      -9.183   1.888 123.777  0.00  0.00    -0.073 C 
ATOM      3  C   LIG A   1      -8.721   1.635 125.199  0.00  0.00    +0.031 C 
ATOM      4  C   LIG A   1      -7.297   1.131 125.307  0.00  0.00    +0.016 C 
ATOM      5  C   LIG A   1      -6.209   2.183 125.216  0.00  0.00    +0.067 C 
ATOM      6  C   LIG A   1      -5.854   3.112 126.315  0.00  0.00    +0.036 C 
ATOM      7  C   LIG A   1      -6.510   3.487 127.421  0.00  0.00    +0.020 C 
ATOM      8  C   LIG A   1      -4.718   3.868 125.692  0.00  0.00    +0.335 C 
ATOM      9  O   LIG A   1      -3.719   4.293 126.265  0.00  0.00    -0.245 OA
ATOM     10  O   LIG A   1      -4.989   3.876 124.335  0.00  0.00    -0.457 OA
ATOM     11  C   LIG A   1      -6.308   3.307 124.197  0.00  0.00    +0.192 C 
ATOM     12  C   LIG A   1      -6.839   2.788 122.852  0.00  0.00    +0.063 C 
ATOM     13  C   LIG A   1      -6.521   3.507 121.554  0.00  0.00    -0.069 C 
ATOM     14  C   LIG A   1      -5.321   3.541 120.961  0.00  0.00    +0.008 C 
ATOM     15  C   LIG A   1      -7.789   3.898 120.843  0.00  0.00    +0.031 C 
ATOM     16  C   LIG A   1      -8.789   2.908 121.419  0.00  0.00    +0.013 C 
ATOM     17  C   LIG A   1      -8.415   2.877 122.907  0.00  0.00    +0.025 C 
ENDROOT
TORSDOF 0
ENDMDL
MODEL 9
REMARK VINA RESULT:      -6.3      3.524      6.568
REMARK  Name = NuBBE_2502
REMARK  0 active torsions:
REMARK  status: ('A' for Active; 'I' for Inactive)
REMARK                            x       y       z     vdW  Elec       q    Type
REMARK                         _______ _______ _______ _____ _____    ______ ____
ROOT
ATOM      1  C   LIG A   1      -8.657  -4.042 128.097  0.00  0.00    +0.008 C 
ATOM      2  C   LIG A   1      -8.319  -3.027 127.279  0.00  0.00    -0.073 C 
ATOM      3  C   LIG A   1      -8.389  -3.274 125.785  0.00  0.00    +0.031 C 
ATOM      4  C   LIG A   1      -9.190  -2.239 125.022  0.00  0.00    +0.016 C 
ATOM      5  C   LIG A   1      -8.473  -0.943 124.702  0.00  0.00    +0.067 C 
ATOM      6  C   LIG A   1      -7.457  -0.794 123.632  0.00  0.00    +0.036 C 
ATOM      7  C   LIG A   1      -6.723  -1.690 122.960  0.00  0.00    +0.020 C 
ATOM      8  C   LIG A   1      -7.137   0.667 123.745  0.00  0.00    +0.335 C 
ATOM      9  O   LIG A   1      -6.862   1.429 122.823  0.00  0.00    -0.245 OA
ATOM     10  O   LIG A   1      -7.335   0.979 125.078  0.00  0.00    -0.457 OA
ATOM     11  C   LIG A   1      -7.583  -0.279 125.742  0.00  0.00    +0.192 C 
ATOM     12  C   LIG A   1      -8.215  -0.356 127.139  0.00  0.00    +0.063 C 
ATOM     13  C   LIG A   1      -7.867   0.658 128.214  0.00  0.00    -0.069 C 
ATOM     14  C   LIG A   1      -8.243   1.942 128.218  0.00  0.00    +0.008 C 
ATOM     15  C   LIG A   1      -7.330  -0.034 129.439  0.00  0.00    +0.031 C 
ATOM     16  C   LIG A   1      -7.914  -1.431 129.290  0.00  0.00    +0.013 C 
ATOM     17  C   LIG A   1      -7.738  -1.713 127.792  0.00  0.00    +0.025 C 
ENDROOT
TORSDOF 0
ENDMDL
