MODEL 1
REMARK VINA RESULT:      -8.8      0.000      0.000
REMARK  Name = NuBBE_1036
REMARK  13 active torsions:
REMARK  status: ('A' for Active; 'I' for Inactive)
REMARK    1  A    between atoms: C_1  and  C_2
REMARK    2  A    between atoms: C_5  and  O_6
REMARK    3  A    between atoms: O_6  and  C_7
REMARK    4  A    between atoms: C_7  and  C_8
REMARK    5  A    between atoms: C_10  and  C_11
REMARK    6  A    between atoms: C_10  and  C_12
REMARK    7  A    between atoms: C_17  and  C_42
REMARK    8  A    between atoms: C_22  and  C_40
REMARK    9  A    between atoms: C_25  and  C_36
REMARK   10  A    between atoms: C_27  and  C_34
REMARK   11  A    between atoms: C_29  and  C_30
REMARK   12  A    between atoms: C_36  and  O_37
REMARK   13  A    between atoms: O_37  and  C_38
REMARK                            x       y       z     vdW  Elec       q    Type
REMARK                         _______ _______ _______ _____ _____    ______ ____
ROOT
ATOM      1  C   LIG A   1      -5.593  -2.973 130.354  0.00  0.00    +0.012 C 
ATOM      2  C   LIG A   1      -6.421  -2.047 131.269  0.00  0.00    -0.025 C 
ATOM      3  C   LIG A   1      -7.128  -2.955 132.324  0.00  0.00    +0.011 C 
ATOM      4  C   LIG A   1      -6.245  -3.555 133.423  0.00  0.00    +0.046 C 
ATOM      5  C   LIG A   1      -4.765  -3.166 133.430  0.00  0.00    +0.182 C 
ATOM      6  C   LIG A   1      -4.500  -1.664 133.083  0.00  0.00    +0.005 C 
ATOM      7  C   LIG A   1      -4.614  -0.878 134.423  0.00  0.00    +0.015 C 
ATOM      8  C   LIG A   1      -3.041  -1.475 132.599  0.00  0.00    +0.015 C 
ATOM      9  C   LIG A   1      -5.575  -1.035 132.104  0.00  0.00    +0.004 C 
ATOM     10  C   LIG A   1      -5.048   0.145 131.272  0.00  0.00    +0.005 C 
ATOM     11  C   LIG A   1      -6.159   0.906 130.548  0.00  0.00    +0.008 C 
ATOM     12  C   LIG A   1      -7.131   0.059 129.677  0.00  0.00    -0.019 C 
ATOM     13  C   LIG A   1      -7.547  -1.234 130.486  0.00  0.00    +0.006 C 
ATOM     14  C   LIG A   1      -8.509  -2.097 129.655  0.00  0.00    +0.031 C 
ATOM     15  C   LIG A   1      -8.110  -2.276 128.232  0.00  0.00    -0.026 C 
ATOM     16  C   LIG A   1      -7.262  -1.497 127.533  0.00  0.00    -0.063 C 
ATOM     17  C   LIG A   1      -6.583  -0.247 128.169  0.00  0.00    -0.005 C 
ATOM     18  C   LIG A   1      -6.849   0.965 127.207  0.00  0.00    +0.012 C 
ATOM     19  C   LIG A   1      -6.498   0.708 125.730  0.00  0.00    +0.019 C 
ATOM     20  C   LIG A   1      -7.113  -0.600 125.132  0.00  0.00    +0.074 C 
ATOM     21  C   LIG A   1      -6.873  -1.800 126.072  0.00  0.00    +0.035 C 
ATOM     22  C   LIG A   1      -7.228  -3.186 125.430  0.00  0.00    -0.003 C 
ATOM     23  C   LIG A   1      -6.450  -3.394 124.095  0.00  0.00    -0.011 C 
ATOM     24  C   LIG A   1      -4.956  -3.674 124.319  0.00  0.00    +0.008 C 
ATOM     25  C   LIG A   1      -6.649  -2.206 123.138  0.00  0.00    +0.004 C 
ATOM     26  C   LIG A   1      -6.350  -0.852 123.784  0.00  0.00    +0.019 C 
ATOM     27  C   LIG A   1      -8.716  -3.474 125.167  0.00  0.00    +0.008 C 
ATOM     28  C   LIG A   1      -5.036  -0.416 128.156  0.00  0.00    +0.016 C 
ATOM     29  C   LIG A   1      -8.435   0.938 129.588  0.00  0.00    +0.012 C 
ENDROOT
BRANCH  20  30
ATOM     30  C   LIG A   1      -8.603  -0.282 124.781  0.00  0.00    +0.314 C 
ATOM     31  O   LIG A   1      -9.561  -0.517 125.493  0.00  0.00    -0.250 OA
BRANCH  30  32
ATOM     32  O   LIG A   1      -8.673   0.155 123.484  0.00  0.00    -0.468 OA
ATOM     33  C   LIG A   1      -9.629   1.189 123.249  0.00  0.00    +0.280 C 
ENDBRANCH  30  32
ENDBRANCH  20  30
BRANCH   5  34
ATOM     34  O   LIG A   1      -3.981  -4.054 132.596  0.00  0.00    -0.461 OA
BRANCH  34  35
ATOM     35  C   LIG A   1      -3.145  -4.894 133.265  0.00  0.00    +0.304 C 
ATOM     36  C   LIG A   1      -3.850  -6.121 133.748  0.00  0.00    +0.136 C 
ATOM     37  O   LIG A   1      -1.939  -4.703 133.447  0.00  0.00    -0.251 OA
ENDBRANCH  34  35
ENDBRANCH   5  34
TORSDOF 4
ENDMDL
MODEL 2
REMARK VINA RESULT:      -8.6      2.314      8.256
REMARK  Name = NuBBE_1036
REMARK  13 active torsions:
REMARK  status: ('A' for Active; 'I' for Inactive)
REMARK    1  A    between atoms: C_1  and  C_2
REMARK    2  A    between atoms: C_5  and  O_6
REMARK    3  A    between atoms: O_6  and  C_7
REMARK    4  A    between atoms: C_7  and  C_8
REMARK    5  A    between atoms: C_10  and  C_11
REMARK    6  A    between atoms: C_10  and  C_12
REMARK    7  A    between atoms: C_17  and  C_42
REMARK    8  A    between atoms: C_22  and  C_40
REMARK    9  A    between atoms: C_25  and  C_36
REMARK   10  A    between atoms: C_27  and  C_34
REMARK   11  A    between atoms: C_29  and  C_30
REMARK   12  A    between atoms: C_36  and  O_37
REMARK   13  A    between atoms: O_37  and  C_38
REMARK                            x       y       z     vdW  Elec       q    Type
REMARK                         _______ _______ _______ _____ _____    ______ ____
ROOT
ATOM      1  C   LIG A   1      -8.050  -0.497 127.082  0.00  0.00    +0.012 C 
ATOM      2  C   LIG A   1      -7.681  -1.979 127.295  0.00  0.00    -0.025 C 
ATOM      3  C   LIG A   1      -8.929  -2.827 126.893  0.00  0.00    +0.011 C 
ATOM      4  C   LIG A   1      -9.242  -2.931 125.397  0.00  0.00    +0.046 C 
ATOM      5  C   LIG A   1      -8.276  -2.250 124.425  0.00  0.00    +0.182 C 
ATOM      6  C   LIG A   1      -6.768  -2.393 124.820  0.00  0.00    +0.005 C 
ATOM      7  C   LIG A   1      -6.282  -3.741 124.210  0.00  0.00    +0.015 C 
ATOM      8  C   LIG A   1      -5.928  -1.286 124.138  0.00  0.00    +0.015 C 
ATOM      9  C   LIG A   1      -6.525  -2.497 126.382  0.00  0.00    +0.004 C 
ATOM     10  C   LIG A   1      -5.137  -2.015 126.831  0.00  0.00    +0.005 C 
ATOM     11  C   LIG A   1      -4.822  -2.377 128.283  0.00  0.00    +0.008 C 
ATOM     12  C   LIG A   1      -5.876  -1.964 129.349  0.00  0.00    -0.019 C 
ATOM     13  C   LIG A   1      -7.317  -2.325 128.809  0.00  0.00    +0.006 C 
ATOM     14  C   LIG A   1      -8.388  -1.929 129.837  0.00  0.00    +0.031 C 
ATOM     15  C   LIG A   1      -8.199  -0.582 130.443  0.00  0.00    -0.026 C 
ATOM     16  C   LIG A   1      -7.054   0.127 130.480  0.00  0.00    -0.063 C 
ATOM     17  C   LIG A   1      -5.728  -0.423 129.874  0.00  0.00    -0.005 C 
ATOM     18  C   LIG A   1      -4.625  -0.301 130.982  0.00  0.00    +0.012 C 
ATOM     19  C   LIG A   1      -4.519   1.088 131.640  0.00  0.00    +0.019 C 
ATOM     20  C   LIG A   1      -5.875   1.667 132.161  0.00  0.00    +0.074 C 
ATOM     21  C   LIG A   1      -6.977   1.542 131.087  0.00  0.00    +0.035 C 
ATOM     22  C   LIG A   1      -8.289   2.328 131.434  0.00  0.00    -0.003 C 
ATOM     23  C   LIG A   1      -7.979   3.832 131.702  0.00  0.00    -0.011 C 
ATOM     24  C   LIG A   1      -7.637   4.604 130.419  0.00  0.00    +0.008 C 
ATOM     25  C   LIG A   1      -6.870   3.998 132.755  0.00  0.00    +0.004 C 
ATOM     26  C   LIG A   1      -5.610   3.189 132.439  0.00  0.00    +0.019 C 
ATOM     27  C   LIG A   1      -9.134   1.796 132.603  0.00  0.00    +0.008 C 
ATOM     28  C   LIG A   1      -5.234   0.514 128.734  0.00  0.00    +0.016 C 
ATOM     29  C   LIG A   1      -5.618  -2.948 130.550  0.00  0.00    +0.012 C 
ENDROOT
BRANCH  20  30
ATOM     30  C   LIG A   1      -6.165   0.978 133.534  0.00  0.00    +0.314 C 
ATOM     31  O   LIG A   1      -6.850  -0.014 133.695  0.00  0.00    -0.250 OA
BRANCH  30  32
ATOM     32  O   LIG A   1      -5.660   1.759 134.541  0.00  0.00    -0.468 OA
ATOM     33  C   LIG A   1      -5.004   1.040 135.587  0.00  0.00    +0.280 C 
ENDBRANCH  30  32
ENDBRANCH  20  30
BRANCH   5  34
ATOM     34  O   LIG A   1      -8.640  -0.866 124.200  0.00  0.00    -0.461 OA
BRANCH  34  35
ATOM     35  C   LIG A   1      -9.496  -0.650 123.164  0.00  0.00    +0.304 C 
ATOM     36  C   LIG A   1      -9.712   0.807 122.906  0.00  0.00    +0.136 C 
ATOM     37  O   LIG A   1     -10.029  -1.533 122.484  0.00  0.00    -0.251 OA
ENDBRANCH  34  35
ENDBRANCH   5  34
TORSDOF 4
ENDMDL
MODEL 3
REMARK VINA RESULT:      -8.5      4.242      8.310
REMARK  Name = NuBBE_1036
REMARK  13 active torsions:
REMARK  status: ('A' for Active; 'I' for Inactive)
REMARK    1  A    between atoms: C_1  and  C_2
REMARK    2  A    between atoms: C_5  and  O_6
REMARK    3  A    between atoms: O_6  and  C_7
REMARK    4  A    between atoms: C_7  and  C_8
REMARK    5  A    between atoms: C_10  and  C_11
REMARK    6  A    between atoms: C_10  and  C_12
REMARK    7  A    between atoms: C_17  and  C_42
REMARK    8  A    between atoms: C_22  and  C_40
REMARK    9  A    between atoms: C_25  and  C_36
REMARK   10  A    between atoms: C_27  and  C_34
REMARK   11  A    between atoms: C_29  and  C_30
REMARK   12  A    between atoms: C_36  and  O_37
REMARK   13  A    between atoms: O_37  and  C_38
REMARK                            x       y       z     vdW  Elec       q    Type
REMARK                         _______ _______ _______ _____ _____    ______ ____
ROOT
ATOM      1  C   LIG A   1      -6.226   0.817 128.957  0.00  0.00    +0.012 C 
ATOM      2  C   LIG A   1      -7.707   0.415 129.110  0.00  0.00    -0.025 C 
ATOM      3  C   LIG A   1      -8.356   0.502 127.692  0.00  0.00    +0.011 C 
ATOM      4  C   LIG A   1      -7.974  -0.590 126.688  0.00  0.00    +0.046 C 
ATOM      5  C   LIG A   1      -7.042  -1.702 127.175  0.00  0.00    +0.182 C 
ATOM      6  C   LIG A   1      -7.336  -2.186 128.634  0.00  0.00    +0.005 C 
ATOM      7  C   LIG A   1      -8.431  -3.286 128.517  0.00  0.00    +0.015 C 
ATOM      8  C   LIG A   1      -6.089  -2.885 129.228  0.00  0.00    +0.015 C 
ATOM      9  C   LIG A   1      -7.934  -1.059 129.572  0.00  0.00    +0.004 C 
ATOM     10  C   LIG A   1      -7.651  -1.275 131.067  0.00  0.00    +0.005 C 
ATOM     11  C   LIG A   1      -8.460  -0.341 131.968  0.00  0.00    +0.008 C 
ATOM     12  C   LIG A   1      -8.383   1.178 131.646  0.00  0.00    -0.019 C 
ATOM     13  C   LIG A   1      -8.522   1.378 130.085  0.00  0.00    +0.006 C 
ATOM     14  C   LIG A   1      -8.449   2.871 129.728  0.00  0.00    +0.031 C 
ATOM     15  C   LIG A   1      -7.367   3.623 130.423  0.00  0.00    -0.026 C 
ATOM     16  C   LIG A   1      -6.732   3.253 131.552  0.00  0.00    -0.063 C 
ATOM     17  C   LIG A   1      -7.091   1.935 132.302  0.00  0.00    -0.005 C 
ATOM     18  C   LIG A   1      -7.350   2.311 133.803  0.00  0.00    +0.012 C 
ATOM     19  C   LIG A   1      -6.244   3.158 134.458  0.00  0.00    +0.019 C 
ATOM     20  C   LIG A   1      -5.830   4.429 133.647  0.00  0.00    +0.074 C 
ATOM     21  C   LIG A   1      -5.584   4.080 132.164  0.00  0.00    +0.035 C 
ATOM     22  C   LIG A   1      -4.920   5.240 131.344  0.00  0.00    -0.003 C 
ATOM     23  C   LIG A   1      -3.585   5.695 132.010  0.00  0.00    -0.011 C 
ATOM     24  C   LIG A   1      -2.454   4.672 131.828  0.00  0.00    +0.008 C 
ATOM     25  C   LIG A   1      -3.786   6.033 133.496  0.00  0.00    +0.004 C 
ATOM     26  C   LIG A   1      -4.480   4.920 134.282  0.00  0.00    +0.019 C 
ATOM     27  C   LIG A   1      -5.776   6.491 131.082  0.00  0.00    +0.008 C 
ATOM     28  C   LIG A   1      -5.852   0.994 132.349  0.00  0.00    +0.016 C 
ATOM     29  C   LIG A   1      -9.702   1.772 132.267  0.00  0.00    +0.012 C 
ENDROOT
BRANCH  20  30
ATOM     30  C   LIG A   1      -6.912   5.522 133.932  0.00  0.00    +0.314 C 
ATOM     31  O   LIG A   1      -7.794   5.857 133.165  0.00  0.00    -0.250 OA
BRANCH  30  32
ATOM     32  O   LIG A   1      -6.611   6.151 135.112  0.00  0.00    -0.468 OA
ATOM     33  C   LIG A   1      -7.654   6.127 136.087  0.00  0.00    +0.280 C 
ENDBRANCH  30  32
ENDBRANCH  20  30
BRANCH   5  34
ATOM     34  O   LIG A   1      -5.650  -1.338 127.003  0.00  0.00    -0.461 OA
BRANCH  34  35
ATOM     35  C   LIG A   1      -5.338  -0.780 125.802  0.00  0.00    +0.304 C 
ATOM     36  C   LIG A   1      -5.429  -1.768 124.682  0.00  0.00    +0.136 C 
ATOM     37  O   LIG A   1      -5.034   0.403 125.623  0.00  0.00    -0.251 OA
ENDBRANCH  34  35
ENDBRANCH   5  34
TORSDOF 4
ENDMDL
MODEL 4
REMARK VINA RESULT:      -8.4      3.445      6.668
REMARK  Name = NuBBE_1036
REMARK  13 active torsions:
REMARK  status: ('A' for Active; 'I' for Inactive)
REMARK    1  A    between atoms: C_1  and  C_2
REMARK    2  A    between atoms: C_5  and  O_6
REMARK    3  A    between atoms: O_6  and  C_7
REMARK    4  A    between atoms: C_7  and  C_8
REMARK    5  A    between atoms: C_10  and  C_11
REMARK    6  A    between atoms: C_10  and  C_12
REMARK    7  A    between atoms: C_17  and  C_42
REMARK    8  A    between atoms: C_22  and  C_40
REMARK    9  A    between atoms: C_25  and  C_36
REMARK   10  A    between atoms: C_27  and  C_34
REMARK   11  A    between atoms: C_29  and  C_30
REMARK   12  A    between atoms: C_36  and  O_37
REMARK   13  A    between atoms: O_37  and  C_38
REMARK                            x       y       z     vdW  Elec       q    Type
REMARK                         _______ _______ _______ _____ _____    ______ ____
ROOT
ATOM      1  C   LIG A   1      -5.307  -0.193 132.093  0.00  0.00    +0.012 C 
ATOM      2  C   LIG A   1      -5.255  -0.733 130.649  0.00  0.00    -0.025 C 
ATOM      3  C   LIG A   1      -3.755  -1.012 130.316  0.00  0.00    +0.011 C 
ATOM      4  C   LIG A   1      -3.113  -2.229 130.989  0.00  0.00    +0.046 C 
ATOM      5  C   LIG A   1      -4.006  -3.098 131.877  0.00  0.00    +0.182 C 
ATOM      6  C   LIG A   1      -5.450  -3.311 131.313  0.00  0.00    +0.005 C 
ATOM      7  C   LIG A   1      -5.370  -4.537 130.356  0.00  0.00    +0.015 C 
ATOM      8  C   LIG A   1      -6.416  -3.720 132.452  0.00  0.00    +0.015 C 
ATOM      9  C   LIG A   1      -5.980  -2.100 130.441  0.00  0.00    +0.004 C 
ATOM     10  C   LIG A   1      -7.511  -1.974 130.411  0.00  0.00    +0.005 C 
ATOM     11  C   LIG A   1      -8.007  -0.984 129.357  0.00  0.00    +0.008 C 
ATOM     12  C   LIG A   1      -7.378   0.438 129.385  0.00  0.00    -0.019 C 
ATOM     13  C   LIG A   1      -5.814   0.301 129.571  0.00  0.00    +0.006 C 
ATOM     14  C   LIG A   1      -5.156   1.689 129.604  0.00  0.00    +0.031 C 
ATOM     15  C   LIG A   1      -5.863   2.691 130.449  0.00  0.00    -0.026 C 
ATOM     16  C   LIG A   1      -7.147   2.636 130.853  0.00  0.00    -0.063 C 
ATOM     17  C   LIG A   1      -8.087   1.462 130.442  0.00  0.00    -0.005 C 
ATOM     18  C   LIG A   1      -9.387   2.099 129.837  0.00  0.00    +0.012 C 
ATOM     19  C   LIG A   1     -10.040   3.188 130.708  0.00  0.00    +0.019 C 
ATOM     20  C   LIG A   1      -9.063   4.311 131.188  0.00  0.00    +0.074 C 
ATOM     21  C   LIG A   1      -7.771   3.703 131.774  0.00  0.00    +0.035 C 
ATOM     22  C   LIG A   1      -6.859   4.746 132.509  0.00  0.00    -0.003 C 
ATOM     23  C   LIG A   1      -7.653   5.484 133.629  0.00  0.00    -0.011 C 
ATOM     24  C   LIG A   1      -7.927   4.590 134.848  0.00  0.00    +0.008 C 
ATOM     25  C   LIG A   1      -8.959   6.088 133.087  0.00  0.00    +0.004 C 
ATOM     26  C   LIG A   1      -9.823   5.079 132.327  0.00  0.00    +0.019 C 
ATOM     27  C   LIG A   1      -6.164   5.804 131.636  0.00  0.00    +0.008 C 
ATOM     28  C   LIG A   1      -8.582   0.708 131.710  0.00  0.00    +0.016 C 
ATOM     29  C   LIG A   1      -7.582   0.980 127.921  0.00  0.00    +0.012 C 
ENDROOT
BRANCH  20  30
ATOM     30  C   LIG A   1      -8.882   5.299 129.989  0.00  0.00    +0.314 C 
ATOM     31  O   LIG A   1      -8.040   5.203 129.118  0.00  0.00    -0.250 OA
BRANCH  30  32
ATOM     32  O   LIG A   1      -9.716   6.373 130.166  0.00  0.00    -0.468 OA
ATOM     33  C   LIG A   1     -10.422   6.783 128.994  0.00  0.00    +0.280 C 
ENDBRANCH  30  32
ENDBRANCH  20  30
BRANCH   5  34
ATOM     34  O   LIG A   1      -4.032  -2.611 133.241  0.00  0.00    -0.461 OA
BRANCH  34  35
ATOM     35  C   LIG A   1      -2.828  -2.593 133.875  0.00  0.00    +0.304 C 
ATOM     36  C   LIG A   1      -2.493  -1.236 134.408  0.00  0.00    +0.136 C 
ATOM     37  O   LIG A   1      -2.088  -3.570 134.028  0.00  0.00    -0.251 OA
ENDBRANCH  34  35
ENDBRANCH   5  34
TORSDOF 4
ENDMDL
MODEL 5
REMARK VINA RESULT:      -8.4      4.307      7.250
REMARK  Name = NuBBE_1036
REMARK  13 active torsions:
REMARK  status: ('A' for Active; 'I' for Inactive)
REMARK    1  A    between atoms: C_1  and  C_2
REMARK    2  A    between atoms: C_5  and  O_6
REMARK    3  A    between atoms: O_6  and  C_7
REMARK    4  A    between atoms: C_7  and  C_8
REMARK    5  A    between atoms: C_10  and  C_11
REMARK    6  A    between atoms: C_10  and  C_12
REMARK    7  A    between atoms: C_17  and  C_42
REMARK    8  A    between atoms: C_22  and  C_40
REMARK    9  A    between atoms: C_25  and  C_36
REMARK   10  A    between atoms: C_27  and  C_34
REMARK   11  A    between atoms: C_29  and  C_30
REMARK   12  A    between atoms: C_36  and  O_37
REMARK   13  A    between atoms: O_37  and  C_38
REMARK                            x       y       z     vdW  Elec       q    Type
REMARK                         _______ _______ _______ _____ _____    ______ ____
ROOT
ATOM      1  C   LIG A   1      -4.876   0.009 130.589  0.00  0.00    +0.012 C 
ATOM      2  C   LIG A   1      -5.745  -0.164 129.327  0.00  0.00    -0.025 C 
ATOM      3  C   LIG A   1      -5.010  -1.183 128.399  0.00  0.00    +0.011 C 
ATOM      4  C   LIG A   1      -5.028  -2.651 128.834  0.00  0.00    +0.046 C 
ATOM      5  C   LIG A   1      -5.810  -3.003 130.101  0.00  0.00    +0.182 C 
ATOM      6  C   LIG A   1      -7.162  -2.230 130.250  0.00  0.00    +0.005 C 
ATOM      7  C   LIG A   1      -8.228  -3.060 129.475  0.00  0.00    +0.015 C 
ATOM      8  C   LIG A   1      -7.617  -2.224 131.730  0.00  0.00    +0.015 C 
ATOM      9  C   LIG A   1      -7.151  -0.791 129.588  0.00  0.00    +0.004 C 
ATOM     10  C   LIG A   1      -8.145   0.195 130.220  0.00  0.00    +0.005 C 
ATOM     11  C   LIG A   1      -8.317   1.475 129.401  0.00  0.00    +0.008 C 
ATOM     12  C   LIG A   1      -7.016   2.236 129.015  0.00  0.00    -0.019 C 
ATOM     13  C   LIG A   1      -5.943   1.191 128.510  0.00  0.00    +0.006 C 
ATOM     14  C   LIG A   1      -4.641   1.908 128.120  0.00  0.00    +0.031 C 
ATOM     15  C   LIG A   1      -4.188   2.943 129.091  0.00  0.00    -0.026 C 
ATOM     16  C   LIG A   1      -4.947   3.558 130.019  0.00  0.00    -0.063 C 
ATOM     17  C   LIG A   1      -6.466   3.248 130.174  0.00  0.00    -0.005 C 
ATOM     18  C   LIG A   1      -7.225   4.621 130.143  0.00  0.00    +0.012 C 
ATOM     19  C   LIG A   1      -6.672   5.689 131.103  0.00  0.00    +0.019 C 
ATOM     20  C   LIG A   1      -5.129   5.923 130.999  0.00  0.00    +0.074 C 
ATOM     21  C   LIG A   1      -4.366   4.582 131.015  0.00  0.00    +0.035 C 
ATOM     22  C   LIG A   1      -2.814   4.739 131.174  0.00  0.00    -0.003 C 
ATOM     23  C   LIG A   1      -2.469   5.560 132.453  0.00  0.00    -0.011 C 
ATOM     24  C   LIG A   1      -2.705   4.767 133.747  0.00  0.00    +0.008 C 
ATOM     25  C   LIG A   1      -3.227   6.898 132.483  0.00  0.00    +0.004 C 
ATOM     26  C   LIG A   1      -4.735   6.745 132.277  0.00  0.00    +0.019 C 
ATOM     27  C   LIG A   1      -2.049   5.353 129.989  0.00  0.00    +0.008 C 
ATOM     28  C   LIG A   1      -6.751   2.683 131.596  0.00  0.00    +0.016 C 
ATOM     29  C   LIG A   1      -7.420   3.073 127.745  0.00  0.00    +0.012 C 
ENDROOT
BRANCH  20  30
ATOM     30  C   LIG A   1      -4.892   6.840 129.755  0.00  0.00    +0.314 C 
ATOM     31  O   LIG A   1      -4.570   6.456 128.647  0.00  0.00    -0.250 OA
BRANCH  30  32
ATOM     32  O   LIG A   1      -4.949   8.152 130.149  0.00  0.00    -0.468 OA
ATOM     33  C   LIG A   1      -3.980   9.004 129.538  0.00  0.00    +0.280 C 
ENDBRANCH  30  32
ENDBRANCH  20  30
BRANCH   5  34
ATOM     34  O   LIG A   1      -4.987  -2.871 131.286  0.00  0.00    -0.461 OA
BRANCH  34  35
ATOM     35  C   LIG A   1      -4.368  -4.012 131.695  0.00  0.00    +0.304 C 
ATOM     36  C   LIG A   1      -5.289  -5.190 131.672  0.00  0.00    +0.136 C 
ATOM     37  O   LIG A   1      -3.182  -4.100 132.029  0.00  0.00    -0.251 OA
ENDBRANCH  34  35
ENDBRANCH   5  34
TORSDOF 4
ENDMDL
MODEL 6
REMARK VINA RESULT:      -8.3      3.695      8.668
REMARK  Name = NuBBE_1036
REMARK  13 active torsions:
REMARK  status: ('A' for Active; 'I' for Inactive)
REMARK    1  A    between atoms: C_1  and  C_2
REMARK    2  A    between atoms: C_5  and  O_6
REMARK    3  A    between atoms: O_6  and  C_7
REMARK    4  A    between atoms: C_7  and  C_8
REMARK    5  A    between atoms: C_10  and  C_11
REMARK    6  A    between atoms: C_10  and  C_12
REMARK    7  A    between atoms: C_17  and  C_42
REMARK    8  A    between atoms: C_22  and  C_40
REMARK    9  A    between atoms: C_25  and  C_36
REMARK   10  A    between atoms: C_27  and  C_34
REMARK   11  A    between atoms: C_29  and  C_30
REMARK   12  A    between atoms: C_36  and  O_37
REMARK   13  A    between atoms: O_37  and  C_38
REMARK                            x       y       z     vdW  Elec       q    Type
REMARK                         _______ _______ _______ _____ _____    ______ ____
ROOT
ATOM      1  C   LIG A   1      -8.586   1.018 126.816  0.00  0.00    +0.012 C 
ATOM      2  C   LIG A   1      -7.479  -0.017 127.100  0.00  0.00    -0.025 C 
ATOM      3  C   LIG A   1      -8.162  -1.420 127.152  0.00  0.00    +0.011 C 
ATOM      4  C   LIG A   1      -8.627  -2.012 125.818  0.00  0.00    +0.046 C 
ATOM      5  C   LIG A   1      -8.330  -1.211 124.548  0.00  0.00    +0.182 C 
ATOM      6  C   LIG A   1      -6.921  -0.530 124.540  0.00  0.00    +0.005 C 
ATOM      7  C   LIG A   1      -5.924  -1.593 123.990  0.00  0.00    +0.015 C 
ATOM      8  C   LIG A   1      -6.897   0.642 123.529  0.00  0.00    +0.015 C 
ATOM      9  C   LIG A   1      -6.396  -0.132 125.981  0.00  0.00    +0.004 C 
ATOM     10  C   LIG A   1      -5.399   1.037 125.981  0.00  0.00    +0.005 C 
ATOM     11  C   LIG A   1      -4.701   1.224 127.329  0.00  0.00    +0.008 C 
ATOM     12  C   LIG A   1      -5.619   1.334 128.580  0.00  0.00    -0.019 C 
ATOM     13  C   LIG A   1      -6.738   0.221 128.492  0.00  0.00    +0.006 C 
ATOM     14  C   LIG A   1      -7.667   0.300 129.714  0.00  0.00    +0.031 C 
ATOM     15  C   LIG A   1      -8.096   1.678 130.079  0.00  0.00    -0.026 C 
ATOM     16  C   LIG A   1      -7.490   2.827 129.723  0.00  0.00    -0.063 C 
ATOM     17  C   LIG A   1      -6.195   2.838 128.856  0.00  0.00    -0.005 C 
ATOM     18  C   LIG A   1      -5.141   3.725 129.606  0.00  0.00    +0.012 C 
ATOM     19  C   LIG A   1      -5.652   5.112 130.039  0.00  0.00    +0.019 C 
ATOM     20  C   LIG A   1      -7.001   5.092 130.829  0.00  0.00    +0.074 C 
ATOM     21  C   LIG A   1      -8.046   4.211 130.112  0.00  0.00    +0.035 C 
ATOM     22  C   LIG A   1      -9.495   4.345 130.699  0.00  0.00    -0.003 C 
ATOM     23  C   LIG A   1      -9.959   5.833 130.691  0.00  0.00    -0.011 C 
ATOM     24  C   LIG A   1     -10.286   6.344 129.280  0.00  0.00    +0.008 C 
ATOM     25  C   LIG A   1      -8.932   6.746 131.382  0.00  0.00    +0.004 C 
ATOM     26  C   LIG A   1      -7.511   6.576 130.841  0.00  0.00    +0.019 C 
ATOM     27  C   LIG A   1      -9.734   3.775 132.107  0.00  0.00    +0.008 C 
ATOM     28  C   LIG A   1      -6.454   3.594 127.521  0.00  0.00    +0.016 C 
ATOM     29  C   LIG A   1      -4.692   0.905 129.778  0.00  0.00    +0.012 C 
ENDROOT
BRANCH  20  30
ATOM     30  C   LIG A   1      -6.658   4.697 132.303  0.00  0.00    +0.314 C 
ATOM     31  O   LIG A   1      -6.708   3.572 132.762  0.00  0.00    -0.250 OA
BRANCH  30  32
ATOM     32  O   LIG A   1      -6.447   5.838 133.033  0.00  0.00    -0.468 OA
ATOM     33  C   LIG A   1      -5.208   5.877 133.742  0.00  0.00    +0.280 C 
ENDBRANCH  30  32
ENDBRANCH  20  30
BRANCH   5  34
ATOM     34  O   LIG A   1      -9.384  -0.260 124.262  0.00  0.00    -0.461 OA
BRANCH  34  35
ATOM     35  C   LIG A   1      -9.982  -0.401 123.048  0.00  0.00    +0.304 C 
ATOM     36  C   LIG A   1      -9.550  -1.651 122.350  0.00  0.00    +0.136 C 
ATOM     37  O   LIG A   1     -10.806   0.382 122.564  0.00  0.00    -0.251 OA
ENDBRANCH  34  35
ENDBRANCH   5  34
TORSDOF 4
ENDMDL
MODEL 7
REMARK VINA RESULT:      -8.3      2.369      8.317
REMARK  Name = NuBBE_1036
REMARK  13 active torsions:
REMARK  status: ('A' for Active; 'I' for Inactive)
REMARK    1  A    between atoms: C_1  and  C_2
REMARK    2  A    between atoms: C_5  and  O_6
REMARK    3  A    between atoms: O_6  and  C_7
REMARK    4  A    between atoms: C_7  and  C_8
REMARK    5  A    between atoms: C_10  and  C_11
REMARK    6  A    between atoms: C_10  and  C_12
REMARK    7  A    between atoms: C_17  and  C_42
REMARK    8  A    between atoms: C_22  and  C_40
REMARK    9  A    between atoms: C_25  and  C_36
REMARK   10  A    between atoms: C_27  and  C_34
REMARK   11  A    between atoms: C_29  and  C_30
REMARK   12  A    between atoms: C_36  and  O_37
REMARK   13  A    between atoms: O_37  and  C_38
REMARK                            x       y       z     vdW  Elec       q    Type
REMARK                         _______ _______ _______ _____ _____    ______ ____
ROOT
ATOM      1  C   LIG A   1      -5.954   0.842 129.486  0.00  0.00    +0.012 C 
ATOM      2  C   LIG A   1      -7.256   0.368 128.810  0.00  0.00    -0.025 C 
ATOM      3  C   LIG A   1      -8.270   1.554 128.883  0.00  0.00    +0.011 C 
ATOM      4  C   LIG A   1      -8.008   2.746 127.958  0.00  0.00    +0.046 C 
ATOM      5  C   LIG A   1      -6.817   2.649 127.001  0.00  0.00    +0.182 C 
ATOM      6  C   LIG A   1      -6.626   1.233 126.363  0.00  0.00    +0.005 C 
ATOM      7  C   LIG A   1      -7.527   1.201 125.093  0.00  0.00    +0.015 C 
ATOM      8  C   LIG A   1      -5.172   1.063 125.861  0.00  0.00    +0.015 C 
ATOM      9  C   LIG A   1      -7.117   0.045 127.288  0.00  0.00    +0.004 C 
ATOM     10  C   LIG A   1      -6.409  -1.292 127.016  0.00  0.00    +0.005 C 
ATOM     11  C   LIG A   1      -7.080  -2.474 127.716  0.00  0.00    +0.008 C 
ATOM     12  C   LIG A   1      -7.331  -2.330 129.244  0.00  0.00    -0.019 C 
ATOM     13  C   LIG A   1      -7.917  -0.890 129.532  0.00  0.00    +0.006 C 
ATOM     14  C   LIG A   1      -8.178  -0.710 131.035  0.00  0.00    +0.031 C 
ATOM     15  C   LIG A   1      -7.079  -1.194 131.918  0.00  0.00    -0.026 C 
ATOM     16  C   LIG A   1      -6.113  -2.071 131.586  0.00  0.00    -0.063 C 
ATOM     17  C   LIG A   1      -6.045  -2.723 130.172  0.00  0.00    -0.005 C 
ATOM     18  C   LIG A   1      -5.944  -4.275 130.381  0.00  0.00    +0.012 C 
ATOM     19  C   LIG A   1      -4.848  -4.725 131.364  0.00  0.00    +0.019 C 
ATOM     20  C   LIG A   1      -4.872  -3.996 132.747  0.00  0.00    +0.074 C 
ATOM     21  C   LIG A   1      -4.986  -2.468 132.561  0.00  0.00    +0.035 C 
ATOM     22  C   LIG A   1      -4.758  -1.652 133.881  0.00  0.00    -0.003 C 
ATOM     23  C   LIG A   1      -3.381  -2.008 134.520  0.00  0.00    -0.011 C 
ATOM     24  C   LIG A   1      -2.196  -1.423 133.737  0.00  0.00    +0.008 C 
ATOM     25  C   LIG A   1      -3.223  -3.526 134.704  0.00  0.00    +0.004 C 
ATOM     26  C   LIG A   1      -3.496  -4.322 133.427  0.00  0.00    +0.019 C 
ATOM     27  C   LIG A   1      -5.837  -1.768 134.970  0.00  0.00    +0.008 C 
ATOM     28  C   LIG A   1      -4.709  -2.341 129.473  0.00  0.00    +0.016 C 
ATOM     29  C   LIG A   1      -8.510  -3.331 129.539  0.00  0.00    +0.012 C 
ENDROOT
BRANCH  20  30
ATOM     30  C   LIG A   1      -5.994  -4.675 133.599  0.00  0.00    +0.314 C 
ATOM     31  O   LIG A   1      -7.122  -4.247 133.750  0.00  0.00    -0.250 OA
BRANCH  30  32
ATOM     32  O   LIG A   1      -5.458  -5.740 134.276  0.00  0.00    -0.468 OA
ATOM     33  C   LIG A   1      -6.073  -6.023 135.533  0.00  0.00    +0.280 C 
ENDBRANCH  30  32
ENDBRANCH  20  30
BRANCH   5  34
ATOM     34  O   LIG A   1      -5.598   3.123 127.625  0.00  0.00    -0.461 OA
BRANCH  34  35
ATOM     35  C   LIG A   1      -5.337   4.449 127.460  0.00  0.00    +0.304 C 
ATOM     36  C   LIG A   1      -5.299   4.839 126.016  0.00  0.00    +0.136 C 
ATOM     37  O   LIG A   1      -5.171   5.261 128.374  0.00  0.00    -0.251 OA
ENDBRANCH  34  35
ENDBRANCH   5  34
TORSDOF 4
ENDMDL
MODEL 8
REMARK VINA RESULT:      -8.3      3.967      9.072
REMARK  Name = NuBBE_1036
REMARK  13 active torsions:
REMARK  status: ('A' for Active; 'I' for Inactive)
REMARK    1  A    between atoms: C_1  and  C_2
REMARK    2  A    between atoms: C_5  and  O_6
REMARK    3  A    between atoms: O_6  and  C_7
REMARK    4  A    between atoms: C_7  and  C_8
REMARK    5  A    between atoms: C_10  and  C_11
REMARK    6  A    between atoms: C_10  and  C_12
REMARK    7  A    between atoms: C_17  and  C_42
REMARK    8  A    between atoms: C_22  and  C_40
REMARK    9  A    between atoms: C_25  and  C_36
REMARK   10  A    between atoms: C_27  and  C_34
REMARK   11  A    between atoms: C_29  and  C_30
REMARK   12  A    between atoms: C_36  and  O_37
REMARK   13  A    between atoms: O_37  and  C_38
REMARK                            x       y       z     vdW  Elec       q    Type
REMARK                         _______ _______ _______ _____ _____    ______ ____
ROOT
ATOM      1  C   LIG A   1      -7.094   1.381 127.630  0.00  0.00    +0.012 C 
ATOM      2  C   LIG A   1      -5.855   1.744 126.786  0.00  0.00    -0.025 C 
ATOM      3  C   LIG A   1      -5.263   0.406 126.239  0.00  0.00    +0.011 C 
ATOM      4  C   LIG A   1      -6.046  -0.292 125.123  0.00  0.00    +0.046 C 
ATOM      5  C   LIG A   1      -7.302   0.407 124.598  0.00  0.00    +0.182 C 
ATOM      6  C   LIG A   1      -7.158   1.960 124.465  0.00  0.00    +0.005 C 
ATOM      7  C   LIG A   1      -6.539   2.223 123.060  0.00  0.00    +0.015 C 
ATOM      8  C   LIG A   1      -8.554   2.629 124.450  0.00  0.00    +0.015 C 
ATOM      9  C   LIG A   1      -6.163   2.601 125.517  0.00  0.00    +0.004 C 
ATOM     10  C   LIG A   1      -6.458   4.074 125.840  0.00  0.00    +0.005 C 
ATOM     11  C   LIG A   1      -5.338   4.747 126.634  0.00  0.00    +0.008 C 
ATOM     12  C   LIG A   1      -4.869   4.023 127.929  0.00  0.00    -0.019 C 
ATOM     13  C   LIG A   1      -4.716   2.480 127.625  0.00  0.00    +0.006 C 
ATOM     14  C   LIG A   1      -4.255   1.730 128.884  0.00  0.00    +0.031 C 
ATOM     15  C   LIG A   1      -4.968   2.117 130.133  0.00  0.00    -0.026 C 
ATOM     16  C   LIG A   1      -5.659   3.255 130.342  0.00  0.00    -0.063 C 
ATOM     17  C   LIG A   1      -5.778   4.356 129.246  0.00  0.00    -0.005 C 
ATOM     18  C   LIG A   1      -5.354   5.715 129.905  0.00  0.00    +0.012 C 
ATOM     19  C   LIG A   1      -6.057   6.036 131.236  0.00  0.00    +0.019 C 
ATOM     20  C   LIG A   1      -6.008   4.885 132.294  0.00  0.00    +0.074 C 
ATOM     21  C   LIG A   1      -6.409   3.537 131.659  0.00  0.00    +0.035 C 
ATOM     22  C   LIG A   1      -6.634   2.389 132.704  0.00  0.00    -0.003 C 
ATOM     23  C   LIG A   1      -7.692   2.809 133.769  0.00  0.00    -0.011 C 
ATOM     24  C   LIG A   1      -9.121   2.828 133.208  0.00  0.00    +0.008 C 
ATOM     25  C   LIG A   1      -7.336   4.160 134.411  0.00  0.00    +0.004 C 
ATOM     26  C   LIG A   1      -7.067   5.265 133.388  0.00  0.00    +0.019 C 
ATOM     27  C   LIG A   1      -5.392   1.863 133.442  0.00  0.00    +0.008 C 
ATOM     28  C   LIG A   1      -7.271   4.565 128.860  0.00  0.00    +0.016 C 
ATOM     29  C   LIG A   1      -3.406   4.555 128.161  0.00  0.00    +0.012 C 
ENDROOT
BRANCH  20  30
ATOM     30  C   LIG A   1      -4.595   4.943 132.962  0.00  0.00    +0.314 C 
ATOM     31  O   LIG A   1      -3.625   4.295 132.617  0.00  0.00    -0.250 OA
BRANCH  30  32
ATOM     32  O   LIG A   1      -4.667   5.714 134.093  0.00  0.00    -0.468 OA
ATOM     33  C   LIG A   1      -3.659   6.720 134.198  0.00  0.00    +0.280 C 
ENDBRANCH  30  32
ENDBRANCH  20  30
BRANCH   5  34
ATOM     34  O   LIG A   1      -8.472   0.044 125.371  0.00  0.00    -0.461 OA
BRANCH  34  35
ATOM     35  C   LIG A   1      -9.009  -1.172 125.077  0.00  0.00    +0.304 C 
ATOM     36  C   LIG A   1      -8.940  -2.112 126.238  0.00  0.00    +0.136 C 
ATOM     37  O   LIG A   1      -9.520  -1.483 123.996  0.00  0.00    -0.251 OA
ENDBRANCH  34  35
ENDBRANCH   5  34
TORSDOF 4
ENDMDL
MODEL 9
REMARK VINA RESULT:      -8.2      4.117      8.711
REMARK  Name = NuBBE_1036
REMARK  13 active torsions:
REMARK  status: ('A' for Active; 'I' for Inactive)
REMARK    1  A    between atoms: C_1  and  C_2
REMARK    2  A    between atoms: C_5  and  O_6
REMARK    3  A    between atoms: O_6  and  C_7
REMARK    4  A    between atoms: C_7  and  C_8
REMARK    5  A    between atoms: C_10  and  C_11
REMARK    6  A    between atoms: C_10  and  C_12
REMARK    7  A    between atoms: C_17  and  C_42
REMARK    8  A    between atoms: C_22  and  C_40
REMARK    9  A    between atoms: C_25  and  C_36
REMARK   10  A    between atoms: C_27  and  C_34
REMARK   11  A    between atoms: C_29  and  C_30
REMARK   12  A    between atoms: C_36  and  O_37
REMARK   13  A    between atoms: O_37  and  C_38
REMARK                            x       y       z     vdW  Elec       q    Type
REMARK                         _______ _______ _______ _____ _____    ______ ____
ROOT
ATOM      1  C   LIG A   1      -6.398   1.940 127.453  0.00  0.00    +0.012 C 
ATOM      2  C   LIG A   1      -7.421   1.119 128.265  0.00  0.00    -0.025 C 
ATOM      3  C   LIG A   1      -8.807   1.290 127.564  0.00  0.00    +0.011 C 
ATOM      4  C   LIG A   1      -9.002   0.559 126.232  0.00  0.00    +0.046 C 
ATOM      5  C   LIG A   1      -7.853  -0.320 125.734  0.00  0.00    +0.182 C 
ATOM      6  C   LIG A   1      -7.139  -1.135 126.862  0.00  0.00    +0.005 C 
ATOM      7  C   LIG A   1      -7.949  -2.454 127.029  0.00  0.00    +0.015 C 
ATOM      8  C   LIG A   1      -5.722  -1.559 126.403  0.00  0.00    +0.015 C 
ATOM      9  C   LIG A   1      -7.156  -0.419 128.275  0.00  0.00    +0.004 C 
ATOM     10  C   LIG A   1      -5.996  -0.827 129.197  0.00  0.00    +0.005 C 
ATOM     11  C   LIG A   1      -6.181  -0.345 130.636  0.00  0.00    +0.008 C 
ATOM     12  C   LIG A   1      -6.482   1.168 130.832  0.00  0.00    -0.019 C 
ATOM     13  C   LIG A   1      -7.568   1.614 129.774  0.00  0.00    +0.006 C 
ATOM     14  C   LIG A   1      -7.892   3.107 129.936  0.00  0.00    +0.031 C 
ATOM     15  C   LIG A   1      -6.700   3.984 130.109  0.00  0.00    -0.026 C 
ATOM     16  C   LIG A   1      -5.472   3.599 130.505  0.00  0.00    -0.063 C 
ATOM     17  C   LIG A   1      -5.151   2.115 130.860  0.00  0.00    -0.005 C 
ATOM     18  C   LIG A   1      -4.477   2.112 132.277  0.00  0.00    +0.012 C 
ATOM     19  C   LIG A   1      -3.301   3.094 132.436  0.00  0.00    +0.019 C 
ATOM     20  C   LIG A   1      -3.611   4.560 131.990  0.00  0.00    +0.074 C 
ATOM     21  C   LIG A   1      -4.288   4.582 130.603  0.00  0.00    +0.035 C 
ATOM     22  C   LIG A   1      -4.395   6.014 129.974  0.00  0.00    -0.003 C 
ATOM     23  C   LIG A   1      -2.991   6.688 129.890  0.00  0.00    -0.011 C 
ATOM     24  C   LIG A   1      -2.105   6.075 128.796  0.00  0.00    +0.008 C 
ATOM     25  C   LIG A   1      -2.276   6.668 131.251  0.00  0.00    +0.004 C 
ATOM     26  C   LIG A   1      -2.218   5.277 131.885  0.00  0.00    +0.019 C 
ATOM     27  C   LIG A   1      -5.362   7.003 130.648  0.00  0.00    +0.008 C 
ATOM     28  C   LIG A   1      -4.050   1.566 129.908  0.00  0.00    +0.016 C 
ATOM     29  C   LIG A   1      -7.201   1.241 132.230  0.00  0.00    +0.012 C 
ENDROOT
BRANCH  20  30
ATOM     30  C   LIG A   1      -4.403   5.233 133.158  0.00  0.00    +0.314 C 
ATOM     31  O   LIG A   1      -5.615   5.294 133.244  0.00  0.00    -0.250 OA
BRANCH  30  32
ATOM     32  O   LIG A   1      -3.520   5.879 133.983  0.00  0.00    -0.468 OA
ATOM     33  C   LIG A   1      -3.595   5.499 135.357  0.00  0.00    +0.280 C 
ENDBRANCH  30  32
ENDBRANCH  20  30
BRANCH   5  34
ATOM     34  O   LIG A   1      -6.907   0.443 124.945  0.00  0.00    -0.461 OA
BRANCH  34  35
ATOM     35  C   LIG A   1      -7.128   0.434 123.602  0.00  0.00    +0.304 C 
ATOM     36  C   LIG A   1      -7.187  -0.955 123.051  0.00  0.00    +0.136 C 
ATOM     37  O   LIG A   1      -7.288   1.437 122.900  0.00  0.00    -0.251 OA
ENDBRANCH  34  35
ENDBRANCH   5  34
TORSDOF 4
ENDMDL
