MODEL 1
REMARK VINA RESULT:      -8.1      0.000      0.000
REMARK  Name = NuBBE_1821
REMARK  23 active torsions:
REMARK  status: ('A' for Active; 'I' for Inactive)
REMARK    1  A    between atoms: O_1  and  C_2
REMARK    2  A    between atoms: O_1  and  C_5
REMARK    3  A    between atoms: C_2  and  C_4
REMARK    4  A    between atoms: C_11  and  C_12
REMARK    5  A    between atoms: C_14  and  C_17
REMARK    6  A    between atoms: C_19  and  O_46
REMARK    7  A    between atoms: C_21  and  O_22
REMARK    8  A    between atoms: O_22  and  C_23
REMARK    9  A    between atoms: C_24  and  O_25
REMARK   10  A    between atoms: O_25  and  C_26
REMARK   11  A    between atoms: C_26  and  C_28
REMARK   12  A    between atoms: C_29  and  O_30
REMARK   13  A    between atoms: O_30  and  C_31
REMARK   14  A    between atoms: C_31  and  C_33
REMARK   15  A    between atoms: C_34  and  O_42
REMARK   16  A    between atoms: C_35  and  C_37
REMARK   17  A    between atoms: C_37  and  O_38
REMARK   18  A    between atoms: O_38  and  C_39
REMARK   19  A    between atoms: C_39  and  C_41
REMARK   20  A    between atoms: O_42  and  C_43
REMARK   21  A    between atoms: C_43  and  C_45
REMARK   22  A    between atoms: O_46  and  C_47
REMARK   23  A    between atoms: C_47  and  C_49
REMARK                            x       y       z     vdW  Elec       q    Type
REMARK                         _______ _______ _______ _____ _____    ______ ____
ROOT
ATOM      1  C   LIG A   1      -7.188   0.198 130.392  0.00  0.00    +0.149 A 
ATOM      2  C   LIG A   1      -7.793   0.339 129.097  0.00  0.00    +0.067 A 
ATOM      3  C   LIG A   1      -7.790  -0.838 128.317  0.00  0.00    -0.007 A 
ATOM      4  C   LIG A   1      -7.416  -2.076 128.840  0.00  0.00    +0.021 A 
ATOM      5  C   LIG A   1      -6.904  -2.180 130.128  0.00  0.00    +0.030 A 
ATOM      6  C   LIG A   1      -6.767  -1.046 130.935  0.00  0.00    +0.035 A 
ATOM      7  C   LIG A   1      -6.104  -1.184 132.290  0.00  0.00    +0.150 C 
ATOM      8  C   LIG A   1      -4.671  -0.656 132.302  0.00  0.00    +0.043 C 
ATOM      9  O   LIG A   1      -6.138  -2.541 132.774  0.00  0.00    -0.361 OA
ATOM     10  C   LIG A   1      -5.603  -3.501 131.867  0.00  0.00    +0.187 C 
ATOM     11  C   LIG A   1      -6.374  -3.495 130.559  0.00  0.00    +0.192 C 
ATOM     12  O   LIG A   1      -6.496  -4.481 129.837  0.00  0.00    -0.289 OA
ATOM     13  C   LIG A   1      -5.675  -4.878 132.516  0.00  0.00    +0.046 C 
ATOM     14  C   LIG A   1      -8.064  -0.784 126.960  0.00  0.00    +0.055 A 
ATOM     15  C   LIG A   1      -8.222   0.439 126.330  0.00  0.00    +0.136 A 
ATOM     16  C   LIG A   1      -8.397   1.599 127.080  0.00  0.00    +0.092 A 
ATOM     17  C   LIG A   1      -8.305   1.539 128.475  0.00  0.00    +0.139 A 
ENDROOT
BRANCH   1  18
ATOM     18  O   LIG A   1      -6.910   1.361 131.146  0.00  0.00    -0.425 OA
BRANCH  18  19
ATOM     19  C   LIG A   1      -7.787   1.618 132.213  0.00  0.00    +0.309 C 
ATOM     20  O   LIG A   1      -8.976   1.347 132.275  0.00  0.00    -0.251 OA
ATOM     21  C   LIG A   1      -6.988   2.163 133.354  0.00  0.00    +0.136 C 
ENDBRANCH  18  19
ENDBRANCH   1  18
BRANCH  17  22
ATOM     22  O   LIG A   1      -8.603   2.632 129.278  0.00  0.00    -0.459 OA
BRANCH  22  23
ATOM     23  C   LIG A   1      -8.008   3.905 128.926  0.00  0.00    +0.353 C 
ATOM     24  C   LIG A   1      -8.441   5.040 129.898  0.00  0.00    +0.288 C 
ATOM     25  C   LIG A   1      -7.543   5.160 131.140  0.00  0.00    +0.266 C 
ATOM     26  C   LIG A   1      -6.050   5.209 130.745  0.00  0.00    +0.253 C 
ATOM     27  C   LIG A   1      -5.782   3.899 129.946  0.00  0.00    +0.204 C 
ATOM     28  O   LIG A   1      -6.591   3.844 128.759  0.00  0.00    -0.328 OA
BRANCH  24  29
ATOM     29  O   LIG A   1      -9.812   4.816 130.309  0.00  0.00    -0.451 OA
BRANCH  29  30
ATOM     30  C   LIG A   1     -10.740   5.614 129.722  0.00  0.00    +0.304 C 
ATOM     31  O   LIG A   1     -11.907   5.297 129.509  0.00  0.00    -0.251 OA
ATOM     32  C   LIG A   1     -10.158   6.957 129.416  0.00  0.00    +0.136 C 
ENDBRANCH  29  30
ENDBRANCH  24  29
BRANCH  25  33
ATOM     33  O   LIG A   1      -7.970   6.321 131.885  0.00  0.00    -0.454 OA
BRANCH  33  34
ATOM     34  C   LIG A   1      -8.734   6.071 132.981  0.00  0.00    +0.304 C 
ATOM     35  O   LIG A   1      -9.921   6.311 133.124  0.00  0.00    -0.251 OA
ATOM     36  C   LIG A   1      -7.824   5.595 134.093  0.00  0.00    +0.136 C 
ENDBRANCH  33  34
ENDBRANCH  25  33
BRANCH  27  37
ATOM     37  C   LIG A   1      -4.321   3.736 129.492  0.00  0.00    +0.267 C 
BRANCH  37  38
ATOM     38  O   LIG A   1      -4.115   4.081 128.100  0.00  0.00    -0.462 OA
BRANCH  38  39
ATOM     39  C   LIG A   1      -2.886   4.534 127.751  0.00  0.00    +0.304 C 
ATOM     40  O   LIG A   1      -2.506   5.700 127.861  0.00  0.00    -0.251 OA
ATOM     41  C   LIG A   1      -2.107   3.454 127.064  0.00  0.00    +0.136 C 
ENDBRANCH  38  39
ENDBRANCH  37  38
ENDBRANCH  27  37
BRANCH  26  42
ATOM     42  O   LIG A   1      -5.652   6.332 129.904  0.00  0.00    -0.455 OA
BRANCH  42  43
ATOM     43  C   LIG A   1      -4.788   7.253 130.391  0.00  0.00    +0.304 C 
ATOM     44  O   LIG A   1      -4.485   8.330 129.845  0.00  0.00    -0.251 OA
ATOM     45  C   LIG A   1      -4.374   6.898 131.790  0.00  0.00    +0.136 C 
ENDBRANCH  42  43
ENDBRANCH  26  42
ENDBRANCH  22  23
ENDBRANCH  17  22
BRANCH  15  46
ATOM     46  O   LIG A   1      -8.310   0.513 124.926  0.00  0.00    -0.426 OA
BRANCH  46  47
ATOM     47  C   LIG A   1      -9.448   1.103 124.353  0.00  0.00    +0.309 C 
ATOM     48  O   LIG A   1     -10.618   0.830 124.576  0.00  0.00    -0.251 OA
ATOM     49  C   LIG A   1      -9.010   2.179 123.409  0.00  0.00    +0.136 C 
ENDBRANCH  46  47
ENDBRANCH  15  46
TORSDOF 15
ENDMDL
MODEL 2
REMARK VINA RESULT:      -8.0      1.953      6.301
REMARK  Name = NuBBE_1821
REMARK  23 active torsions:
REMARK  status: ('A' for Active; 'I' for Inactive)
REMARK    1  A    between atoms: O_1  and  C_2
REMARK    2  A    between atoms: O_1  and  C_5
REMARK    3  A    between atoms: C_2  and  C_4
REMARK    4  A    between atoms: C_11  and  C_12
REMARK    5  A    between atoms: C_14  and  C_17
REMARK    6  A    between atoms: C_19  and  O_46
REMARK    7  A    between atoms: C_21  and  O_22
REMARK    8  A    between atoms: O_22  and  C_23
REMARK    9  A    between atoms: C_24  and  O_25
REMARK   10  A    between atoms: O_25  and  C_26
REMARK   11  A    between atoms: C_26  and  C_28
REMARK   12  A    between atoms: C_29  and  O_30
REMARK   13  A    between atoms: O_30  and  C_31
REMARK   14  A    between atoms: C_31  and  C_33
REMARK   15  A    between atoms: C_34  and  O_42
REMARK   16  A    between atoms: C_35  and  C_37
REMARK   17  A    between atoms: C_37  and  O_38
REMARK   18  A    between atoms: O_38  and  C_39
REMARK   19  A    between atoms: C_39  and  C_41
REMARK   20  A    between atoms: O_42  and  C_43
REMARK   21  A    between atoms: C_43  and  C_45
REMARK   22  A    between atoms: O_46  and  C_47
REMARK   23  A    between atoms: C_47  and  C_49
REMARK                            x       y       z     vdW  Elec       q    Type
REMARK                         _______ _______ _______ _____ _____    ______ ____
ROOT
ATOM      1  C   LIG A   1      -8.078   0.905 127.711  0.00  0.00    +0.149 A 
ATOM      2  C   LIG A   1      -7.805   0.486 129.058  0.00  0.00    +0.067 A 
ATOM      3  C   LIG A   1      -7.834  -0.912 129.255  0.00  0.00    -0.007 A 
ATOM      4  C   LIG A   1      -7.918  -1.812 128.192  0.00  0.00    +0.021 A 
ATOM      5  C   LIG A   1      -8.108  -1.361 126.890  0.00  0.00    +0.030 A 
ATOM      6  C   LIG A   1      -8.202   0.007 126.616  0.00  0.00    +0.035 A 
ATOM      7  C   LIG A   1      -8.517   0.452 125.204  0.00  0.00    +0.150 C 
ATOM      8  C   LIG A   1      -9.966   0.908 125.038  0.00  0.00    +0.043 C 
ATOM      9  O   LIG A   1      -8.201  -0.563 124.232  0.00  0.00    -0.361 OA
ATOM     10  C   LIG A   1      -8.800  -1.830 124.490  0.00  0.00    +0.187 C 
ATOM     11  C   LIG A   1      -8.354  -2.372 125.836  0.00  0.00    +0.192 C 
ATOM     12  O   LIG A   1      -8.273  -3.570 126.093  0.00  0.00    -0.289 OA
ATOM     13  C   LIG A   1      -8.408  -2.791 123.375  0.00  0.00    +0.046 C 
ATOM     14  C   LIG A   1      -7.883  -1.443 130.534  0.00  0.00    +0.055 A 
ATOM     15  C   LIG A   1      -8.030  -0.607 131.629  0.00  0.00    +0.136 A 
ATOM     16  C   LIG A   1      -7.840   0.766 131.495  0.00  0.00    +0.092 A 
ATOM     17  C   LIG A   1      -7.605   1.310 130.227  0.00  0.00    +0.139 A 
ENDROOT
BRANCH   1  18
ATOM     18  O   LIG A   1      -8.324   2.273 127.458  0.00  0.00    -0.425 OA
BRANCH  18  19
ATOM     19  C   LIG A   1      -7.252   2.992 126.905  0.00  0.00    +0.309 C 
ATOM     20  O   LIG A   1      -6.061   2.743 127.011  0.00  0.00    -0.251 OA
ATOM     21  C   LIG A   1      -7.812   4.059 126.019  0.00  0.00    +0.136 C 
ENDBRANCH  18  19
ENDBRANCH   1  18
BRANCH  17  22
ATOM     22  O   LIG A   1      -7.275   2.648 130.053  0.00  0.00    -0.459 OA
BRANCH  22  23
ATOM     23  C   LIG A   1      -6.486   3.286 131.088  0.00  0.00    +0.353 C 
ATOM     24  C   LIG A   1      -4.972   3.305 130.737  0.00  0.00    +0.288 C 
ATOM     25  C   LIG A   1      -4.549   4.527 129.905  0.00  0.00    +0.266 C 
ATOM     26  C   LIG A   1      -5.062   5.837 130.542  0.00  0.00    +0.253 C 
ATOM     27  C   LIG A   1      -6.610   5.687 130.628  0.00  0.00    +0.204 C 
ATOM     28  O   LIG A   1      -6.975   4.574 131.463  0.00  0.00    -0.328 OA
BRANCH  24  29
ATOM     29  O   LIG A   1      -4.633   2.091 130.023  0.00  0.00    -0.451 OA
BRANCH  29  30
ATOM     30  C   LIG A   1      -4.166   1.070 130.786  0.00  0.00    +0.304 C 
ATOM     31  O   LIG A   1      -3.766   1.180 131.942  0.00  0.00    -0.251 OA
ATOM     32  C   LIG A   1      -4.254  -0.223 130.040  0.00  0.00    +0.136 C 
ENDBRANCH  29  30
ENDBRANCH  24  29
BRANCH  25  33
ATOM     33  O   LIG A   1      -3.113   4.491 129.761  0.00  0.00    -0.454 OA
BRANCH  33  34
ATOM     34  C   LIG A   1      -2.629   4.903 128.560  0.00  0.00    +0.304 C 
ATOM     35  O   LIG A   1      -2.378   6.046 128.217  0.00  0.00    -0.251 OA
ATOM     36  C   LIG A   1      -2.612   3.713 127.624  0.00  0.00    +0.136 C 
ENDBRANCH  33  34
ENDBRANCH  25  33
BRANCH  27  37
ATOM     37  C   LIG A   1      -7.323   6.923 131.206  0.00  0.00    +0.267 C 
BRANCH  37  38
ATOM     38  O   LIG A   1      -8.262   7.522 130.282  0.00  0.00    -0.462 OA
BRANCH  38  39
ATOM     39  C   LIG A   1      -9.357   6.792 129.953  0.00  0.00    +0.304 C 
ATOM     40  O   LIG A   1      -9.657   6.446 128.810  0.00  0.00    -0.251 OA
ATOM     41  C   LIG A   1     -10.236   6.601 131.150  0.00  0.00    +0.136 C 
ENDBRANCH  38  39
ENDBRANCH  37  38
ENDBRANCH  27  37
BRANCH  26  42
ATOM     42  O   LIG A   1      -4.567   6.128 131.883  0.00  0.00    -0.455 OA
BRANCH  42  43
ATOM     43  C   LIG A   1      -3.582   7.041 132.044  0.00  0.00    +0.304 C 
ATOM     44  O   LIG A   1      -2.683   7.001 132.905  0.00  0.00    -0.251 OA
ATOM     45  C   LIG A   1      -3.591   8.030 130.915  0.00  0.00    +0.136 C 
ENDBRANCH  42  43
ENDBRANCH  26  42
ENDBRANCH  22  23
ENDBRANCH  17  22
BRANCH  15  46
ATOM     46  O   LIG A   1      -8.273  -1.142 132.908  0.00  0.00    -0.426 OA
BRANCH  46  47
ATOM     47  C   LIG A   1      -7.370  -2.085 133.426  0.00  0.00    +0.309 C 
ATOM     48  O   LIG A   1      -6.155  -1.982 133.509  0.00  0.00    -0.251 OA
ATOM     49  C   LIG A   1      -8.139  -3.274 133.910  0.00  0.00    +0.136 C 
ENDBRANCH  46  47
ENDBRANCH  15  46
TORSDOF 15
ENDMDL
MODEL 3
REMARK VINA RESULT:      -8.0      1.818      2.152
REMARK  Name = NuBBE_1821
REMARK  23 active torsions:
REMARK  status: ('A' for Active; 'I' for Inactive)
REMARK    1  A    between atoms: O_1  and  C_2
REMARK    2  A    between atoms: O_1  and  C_5
REMARK    3  A    between atoms: C_2  and  C_4
REMARK    4  A    between atoms: C_11  and  C_12
REMARK    5  A    between atoms: C_14  and  C_17
REMARK    6  A    between atoms: C_19  and  O_46
REMARK    7  A    between atoms: C_21  and  O_22
REMARK    8  A    between atoms: O_22  and  C_23
REMARK    9  A    between atoms: C_24  and  O_25
REMARK   10  A    between atoms: O_25  and  C_26
REMARK   11  A    between atoms: C_26  and  C_28
REMARK   12  A    between atoms: C_29  and  O_30
REMARK   13  A    between atoms: O_30  and  C_31
REMARK   14  A    between atoms: C_31  and  C_33
REMARK   15  A    between atoms: C_34  and  O_42
REMARK   16  A    between atoms: C_35  and  C_37
REMARK   17  A    between atoms: C_37  and  O_38
REMARK   18  A    between atoms: O_38  and  C_39
REMARK   19  A    between atoms: C_39  and  C_41
REMARK   20  A    between atoms: O_42  and  C_43
REMARK   21  A    between atoms: C_43  and  C_45
REMARK   22  A    between atoms: O_46  and  C_47
REMARK   23  A    between atoms: C_47  and  C_49
REMARK                            x       y       z     vdW  Elec       q    Type
REMARK                         _______ _______ _______ _____ _____    ______ ____
ROOT
ATOM      1  C   LIG A   1      -6.305  -0.976 131.015  0.00  0.00    +0.149 A 
ATOM      2  C   LIG A   1      -7.088  -1.031 129.813  0.00  0.00    +0.067 A 
ATOM      3  C   LIG A   1      -7.158  -2.308 129.215  0.00  0.00    -0.007 A 
ATOM      4  C   LIG A   1      -6.675  -3.453 129.849  0.00  0.00    +0.021 A 
ATOM      5  C   LIG A   1      -5.985  -3.364 131.052  0.00  0.00    +0.030 A 
ATOM      6  C   LIG A   1      -5.772  -2.124 131.663  0.00  0.00    +0.035 A 
ATOM      7  C   LIG A   1      -4.923  -2.058 132.915  0.00  0.00    +0.150 C 
ATOM      8  C   LIG A   1      -3.520  -1.517 132.647  0.00  0.00    +0.043 C 
ATOM      9  O   LIG A   1      -4.847  -3.330 133.586  0.00  0.00    -0.361 OA
ATOM     10  C   LIG A   1      -4.414  -4.406 132.757  0.00  0.00    +0.187 C 
ATOM     11  C   LIG A   1      -5.359  -4.597 131.585  0.00  0.00    +0.192 C 
ATOM     12  O   LIG A   1      -5.550  -5.678 131.035  0.00  0.00    -0.289 OA
ATOM     13  C   LIG A   1      -4.351  -5.675 133.598  0.00  0.00    +0.046 C 
ATOM     14  C   LIG A   1      -7.620  -2.454 127.917  0.00  0.00    +0.055 A 
ATOM     15  C   LIG A   1      -7.903  -1.337 127.149  0.00  0.00    +0.136 A 
ATOM     16  C   LIG A   1      -8.007  -0.083 127.744  0.00  0.00    +0.092 A 
ATOM     17  C   LIG A   1      -7.720   0.061 129.107  0.00  0.00    +0.139 A 
ENDROOT
BRANCH   1  18
ATOM     18  O   LIG A   1      -5.960   0.286 131.549  0.00  0.00    -0.425 OA
BRANCH  18  19
ATOM     19  C   LIG A   1      -6.705   0.697 132.667  0.00  0.00    +0.309 C 
ATOM     20  O   LIG A   1      -7.852   0.385 132.947  0.00  0.00    -0.251 OA
ATOM     21  C   LIG A   1      -5.805   1.485 133.565  0.00  0.00    +0.136 C 
ENDBRANCH  18  19
ENDBRANCH   1  18
BRANCH  17  22
ATOM     22  O   LIG A   1      -7.937   1.256 129.781  0.00  0.00    -0.459 OA
BRANCH  22  23
ATOM     23  C   LIG A   1      -7.514   2.480 129.131  0.00  0.00    +0.353 C 
ATOM     24  C   LIG A   1      -7.690   3.720 130.053  0.00  0.00    +0.288 C 
ATOM     25  C   LIG A   1      -6.477   3.987 130.960  0.00  0.00    +0.266 C 
ATOM     26  C   LIG A   1      -5.164   3.992 130.145  0.00  0.00    +0.253 C 
ATOM     27  C   LIG A   1      -5.091   2.597 129.455  0.00  0.00    +0.204 C 
ATOM     28  O   LIG A   1      -6.204   2.401 128.567  0.00  0.00    -0.328 OA
BRANCH  24  29
ATOM     29  O   LIG A   1      -8.875   3.544 130.867  0.00  0.00    -0.451 OA
BRANCH  29  30
ATOM     30  C   LIG A   1     -10.006   4.126 130.394  0.00  0.00    +0.304 C 
ATOM     31  O   LIG A   1     -11.017   3.521 130.044  0.00  0.00    -0.251 OA
ATOM     32  C   LIG A   1      -9.872   5.615 130.404  0.00  0.00    +0.136 C 
ENDBRANCH  29  30
ENDBRANCH  24  29
BRANCH  25  33
ATOM     33  O   LIG A   1      -6.713   5.227 131.661  0.00  0.00    -0.454 OA
BRANCH  33  34
ATOM     34  C   LIG A   1      -6.362   5.238 132.975  0.00  0.00    +0.304 C 
ATOM     35  O   LIG A   1      -5.234   5.243 133.438  0.00  0.00    -0.251 OA
ATOM     36  C   LIG A   1      -7.619   5.064 133.800  0.00  0.00    +0.136 C 
ENDBRANCH  33  34
ENDBRANCH  25  33
BRANCH  27  37
ATOM     37  C   LIG A   1      -3.817   2.385 128.617  0.00  0.00    +0.267 C 
BRANCH  37  38
ATOM     38  O   LIG A   1      -4.069   2.373 127.191  0.00  0.00    -0.462 OA
BRANCH  38  39
ATOM     39  C   LIG A   1      -3.452   3.324 126.447  0.00  0.00    +0.304 C 
ATOM     40  O   LIG A   1      -4.008   4.038 125.613  0.00  0.00    -0.251 OA
ATOM     41  C   LIG A   1      -1.971   3.277 126.664  0.00  0.00    +0.136 C 
ENDBRANCH  38  39
ENDBRANCH  37  38
ENDBRANCH  27  37
BRANCH  26  42
ATOM     42  O   LIG A   1      -5.066   5.009 129.105  0.00  0.00    -0.455 OA
BRANCH  42  43
ATOM     43  C   LIG A   1      -4.148   5.996 129.225  0.00  0.00    +0.304 C 
ATOM     44  O   LIG A   1      -4.154   7.078 128.609  0.00  0.00    -0.251 OA
ATOM     45  C   LIG A   1      -3.204   5.702 130.355  0.00  0.00    +0.136 C 
ENDBRANCH  42  43
ENDBRANCH  26  42
ENDBRANCH  22  23
ENDBRANCH  17  22
BRANCH  15  46
ATOM     46  O   LIG A   1      -8.188  -1.467 125.776  0.00  0.00    -0.426 OA
BRANCH  46  47
ATOM     47  C   LIG A   1      -8.940  -2.572 125.347  0.00  0.00    +0.309 C 
ATOM     48  O   LIG A   1     -10.084  -2.860 125.664  0.00  0.00    -0.251 OA
ATOM     49  C   LIG A   1      -8.118  -3.370 124.383  0.00  0.00    +0.136 C 
ENDBRANCH  46  47
ENDBRANCH  15  46
TORSDOF 15
ENDMDL
MODEL 4
REMARK VINA RESULT:      -7.9      2.710      7.196
REMARK  Name = NuBBE_1821
REMARK  23 active torsions:
REMARK  status: ('A' for Active; 'I' for Inactive)
REMARK    1  A    between atoms: O_1  and  C_2
REMARK    2  A    between atoms: O_1  and  C_5
REMARK    3  A    between atoms: C_2  and  C_4
REMARK    4  A    between atoms: C_11  and  C_12
REMARK    5  A    between atoms: C_14  and  C_17
REMARK    6  A    between atoms: C_19  and  O_46
REMARK    7  A    between atoms: C_21  and  O_22
REMARK    8  A    between atoms: O_22  and  C_23
REMARK    9  A    between atoms: C_24  and  O_25
REMARK   10  A    between atoms: O_25  and  C_26
REMARK   11  A    between atoms: C_26  and  C_28
REMARK   12  A    between atoms: C_29  and  O_30
REMARK   13  A    between atoms: O_30  and  C_31
REMARK   14  A    between atoms: C_31  and  C_33
REMARK   15  A    between atoms: C_34  and  O_42
REMARK   16  A    between atoms: C_35  and  C_37
REMARK   17  A    between atoms: C_37  and  O_38
REMARK   18  A    between atoms: O_38  and  C_39
REMARK   19  A    between atoms: C_39  and  C_41
REMARK   20  A    between atoms: O_42  and  C_43
REMARK   21  A    between atoms: C_43  and  C_45
REMARK   22  A    between atoms: O_46  and  C_47
REMARK   23  A    between atoms: C_47  and  C_49
REMARK                            x       y       z     vdW  Elec       q    Type
REMARK                         _______ _______ _______ _____ _____    ______ ____
ROOT
ATOM      1  C   LIG A   1      -7.256   3.728 131.005  0.00  0.00    +0.149 A 
ATOM      2  C   LIG A   1      -8.008   4.824 130.460  0.00  0.00    +0.067 A 
ATOM      3  C   LIG A   1      -8.232   5.888 131.361  0.00  0.00    -0.007 A 
ATOM      4  C   LIG A   1      -7.603   5.955 132.605  0.00  0.00    +0.021 A 
ATOM      5  C   LIG A   1      -6.821   4.902 133.065  0.00  0.00    +0.030 A 
ATOM      6  C   LIG A   1      -6.633   3.757 132.284  0.00  0.00    +0.035 A 
ATOM      7  C   LIG A   1      -5.865   2.589 132.864  0.00  0.00    +0.150 C 
ATOM      8  C   LIG A   1      -6.776   1.441 133.296  0.00  0.00    +0.043 C 
ATOM      9  O   LIG A   1      -5.015   2.988 133.956  0.00  0.00    -0.361 OA
ATOM     10  C   LIG A   1      -5.688   3.697 134.994  0.00  0.00    +0.187 C 
ATOM     11  C   LIG A   1      -6.319   4.968 134.457  0.00  0.00    +0.192 C 
ATOM     12  O   LIG A   1      -6.496   5.977 135.134  0.00  0.00    -0.289 OA
ATOM     13  C   LIG A   1      -4.681   4.028 136.090  0.00  0.00    +0.046 C 
ATOM     14  C   LIG A   1      -9.176   6.862 131.080  0.00  0.00    +0.055 A 
ATOM     15  C   LIG A   1      -9.997   6.736 129.971  0.00  0.00    +0.136 A 
ATOM     16  C   LIG A   1      -9.702   5.804 128.980  0.00  0.00    +0.092 A 
ATOM     17  C   LIG A   1      -8.631   4.921 129.160  0.00  0.00    +0.139 A 
ENDROOT
BRANCH   1  18
ATOM     18  O   LIG A   1      -7.194   2.516 130.283  0.00  0.00    -0.425 OA
BRANCH  18  19
ATOM     19  C   LIG A   1      -8.330   1.694 130.373  0.00  0.00    +0.309 C 
ATOM     20  O   LIG A   1      -9.357   1.919 130.994  0.00  0.00    -0.251 OA
ATOM     21  C   LIG A   1      -8.142   0.533 129.450  0.00  0.00    +0.136 C 
ENDBRANCH  18  19
ENDBRANCH   1  18
BRANCH  17  22
ATOM     22  O   LIG A   1      -8.208   4.065 128.151  0.00  0.00    -0.459 OA
BRANCH  22  23
ATOM     23  C   LIG A   1      -7.751   4.662 126.912  0.00  0.00    +0.353 C 
ATOM     24  C   LIG A   1      -6.211   4.539 126.739  0.00  0.00    +0.288 C 
ATOM     25  C   LIG A   1      -5.772   3.228 126.067  0.00  0.00    +0.266 C 
ATOM     26  C   LIG A   1      -6.571   2.974 124.769  0.00  0.00    +0.253 C 
ATOM     27  C   LIG A   1      -8.069   2.947 125.195  0.00  0.00    +0.204 C 
ATOM     28  O   LIG A   1      -8.467   4.206 125.764  0.00  0.00    -0.328 OA
BRANCH  24  29
ATOM     29  O   LIG A   1      -5.575   4.656 128.036  0.00  0.00    -0.451 OA
BRANCH  29  30
ATOM     30  C   LIG A   1      -4.591   5.586 128.127  0.00  0.00    +0.304 C 
ATOM     31  O   LIG A   1      -4.353   6.445 127.281  0.00  0.00    -0.251 OA
ATOM     32  C   LIG A   1      -3.865   5.455 129.427  0.00  0.00    +0.136 C 
ENDBRANCH  29  30
ENDBRANCH  24  29
BRANCH  25  33
ATOM     33  O   LIG A   1      -4.346   3.296 125.849  0.00  0.00    -0.454 OA
BRANCH  33  34
ATOM     34  C   LIG A   1      -3.580   2.595 126.726  0.00  0.00    +0.304 C 
ATOM     35  O   LIG A   1      -3.965   1.841 127.604  0.00  0.00    -0.251 OA
ATOM     36  C   LIG A   1      -2.142   3.038 126.557  0.00  0.00    +0.136 C 
ENDBRANCH  33  34
ENDBRANCH  25  33
BRANCH  27  37
ATOM     37  C   LIG A   1      -9.040   2.662 124.035  0.00  0.00    +0.267 C 
BRANCH  37  38
ATOM     38  O   LIG A   1      -9.823   1.460 124.231  0.00  0.00    -0.462 OA
BRANCH  38  39
ATOM     39  C   LIG A   1      -9.817   0.548 123.226  0.00  0.00    +0.304 C 
ATOM     40  O   LIG A   1     -10.741   0.364 122.434  0.00  0.00    -0.251 OA
ATOM     41  C   LIG A   1      -8.595  -0.315 123.313  0.00  0.00    +0.136 C 
ENDBRANCH  38  39
ENDBRANCH  37  38
ENDBRANCH  27  37
BRANCH  26  42
ATOM     42  O   LIG A   1      -6.423   3.980 123.724  0.00  0.00    -0.455 OA
BRANCH  42  43
ATOM     43  C   LIG A   1      -5.888   3.627 122.533  0.00  0.00    +0.304 C 
ATOM     44  O   LIG A   1      -6.285   2.704 121.798  0.00  0.00    -0.251 OA
ATOM     45  C   LIG A   1      -4.851   4.626 122.106  0.00  0.00    +0.136 C 
ENDBRANCH  42  43
ENDBRANCH  26  42
ENDBRANCH  22  23
ENDBRANCH  17  22
BRANCH  15  46
ATOM     46  O   LIG A   1     -11.081   7.615 129.782  0.00  0.00    -0.426 OA
BRANCH  46  47
ATOM     47  C   LIG A   1     -12.386   7.117 129.935  0.00  0.00    +0.309 C 
ATOM     48  O   LIG A   1     -13.035   6.475 129.124  0.00  0.00    -0.251 OA
ATOM     49  C   LIG A   1     -12.881   7.475 131.302  0.00  0.00    +0.136 C 
ENDBRANCH  46  47
ENDBRANCH  15  46
TORSDOF 15
ENDMDL
MODEL 5
REMARK VINA RESULT:      -7.9      2.097      5.435
REMARK  Name = NuBBE_1821
REMARK  23 active torsions:
REMARK  status: ('A' for Active; 'I' for Inactive)
REMARK    1  A    between atoms: O_1  and  C_2
REMARK    2  A    between atoms: O_1  and  C_5
REMARK    3  A    between atoms: C_2  and  C_4
REMARK    4  A    between atoms: C_11  and  C_12
REMARK    5  A    between atoms: C_14  and  C_17
REMARK    6  A    between atoms: C_19  and  O_46
REMARK    7  A    between atoms: C_21  and  O_22
REMARK    8  A    between atoms: O_22  and  C_23
REMARK    9  A    between atoms: C_24  and  O_25
REMARK   10  A    between atoms: O_25  and  C_26
REMARK   11  A    between atoms: C_26  and  C_28
REMARK   12  A    between atoms: C_29  and  O_30
REMARK   13  A    between atoms: O_30  and  C_31
REMARK   14  A    between atoms: C_31  and  C_33
REMARK   15  A    between atoms: C_34  and  O_42
REMARK   16  A    between atoms: C_35  and  C_37
REMARK   17  A    between atoms: C_37  and  O_38
REMARK   18  A    between atoms: O_38  and  C_39
REMARK   19  A    between atoms: C_39  and  C_41
REMARK   20  A    between atoms: O_42  and  C_43
REMARK   21  A    between atoms: C_43  and  C_45
REMARK   22  A    between atoms: O_46  and  C_47
REMARK   23  A    between atoms: C_47  and  C_49
REMARK                            x       y       z     vdW  Elec       q    Type
REMARK                         _______ _______ _______ _____ _____    ______ ____
ROOT
ATOM      1  C   LIG A   1      -7.707  -0.333 127.609  0.00  0.00    +0.149 A 
ATOM      2  C   LIG A   1      -6.721   0.703 127.735  0.00  0.00    +0.067 A 
ATOM      3  C   LIG A   1      -5.925   0.898 126.585  0.00  0.00    -0.007 A 
ATOM      4  C   LIG A   1      -6.211   0.277 125.369  0.00  0.00    +0.021 A 
ATOM      5  C   LIG A   1      -7.225  -0.668 125.272  0.00  0.00    +0.030 A 
ATOM      6  C   LIG A   1      -7.994  -1.006 126.390  0.00  0.00    +0.035 A 
ATOM      7  C   LIG A   1      -9.016  -2.117 126.270  0.00  0.00    +0.150 C 
ATOM      8  C   LIG A   1      -8.550  -3.419 126.918  0.00  0.00    +0.043 C 
ATOM      9  O   LIG A   1      -9.403  -2.352 124.903  0.00  0.00    -0.361 OA
ATOM     10  C   LIG A   1      -8.313  -2.592 124.017  0.00  0.00    +0.187 C 
ATOM     11  C   LIG A   1      -7.365  -1.406 123.995  0.00  0.00    +0.192 C 
ATOM     12  O   LIG A   1      -6.679  -1.102 123.023  0.00  0.00    -0.289 OA
ATOM     13  C   LIG A   1      -8.866  -2.853 122.621  0.00  0.00    +0.046 C 
ATOM     14  C   LIG A   1      -4.759   1.643 126.654  0.00  0.00    +0.055 A 
ATOM     15  C   LIG A   1      -4.296   2.100 127.876  0.00  0.00    +0.136 A 
ATOM     16  C   LIG A   1      -5.123   2.074 128.996  0.00  0.00    +0.092 A 
ATOM     17  C   LIG A   1      -6.390   1.485 128.904  0.00  0.00    +0.139 A 
ENDROOT
BRANCH   1  18
ATOM     18  O   LIG A   1      -8.378  -0.782 128.769  0.00  0.00    -0.425 OA
BRANCH  18  19
ATOM     19  C   LIG A   1      -7.620  -1.584 129.639  0.00  0.00    +0.309 C 
ATOM     20  O   LIG A   1      -6.607  -2.212 129.372  0.00  0.00    -0.251 OA
ATOM     21  C   LIG A   1      -8.177  -1.434 131.018  0.00  0.00    +0.136 C 
ENDBRANCH  18  19
ENDBRANCH   1  18
BRANCH  17  22
ATOM     22  O   LIG A   1      -7.307   1.551 129.945  0.00  0.00    -0.459 OA
BRANCH  22  23
ATOM     23  C   LIG A   1      -8.463   2.406 129.769  0.00  0.00    +0.353 C 
ATOM     24  C   LIG A   1      -8.444   3.619 130.741  0.00  0.00    +0.288 C 
ATOM     25  C   LIG A   1      -7.679   4.835 130.191  0.00  0.00    +0.266 C 
ATOM     26  C   LIG A   1      -8.145   5.184 128.760  0.00  0.00    +0.253 C 
ATOM     27  C   LIG A   1      -7.903   3.900 127.912  0.00  0.00    +0.204 C 
ATOM     28  O   LIG A   1      -8.679   2.798 128.413  0.00  0.00    -0.328 OA
BRANCH  24  29
ATOM     29  O   LIG A   1      -7.863   3.210 132.003  0.00  0.00    -0.451 OA
BRANCH  29  30
ATOM     30  C   LIG A   1      -8.747   2.888 132.981  0.00  0.00    +0.304 C 
ATOM     31  O   LIG A   1      -9.439   1.873 132.999  0.00  0.00    -0.251 OA
ATOM     32  C   LIG A   1      -8.725   3.916 134.066  0.00  0.00    +0.136 C 
ENDBRANCH  29  30
ENDBRANCH  24  29
BRANCH  25  33
ATOM     33  O   LIG A   1      -7.848   5.924 131.124  0.00  0.00    -0.454 OA
BRANCH  33  34
ATOM     34  C   LIG A   1      -6.764   6.726 131.298  0.00  0.00    +0.304 C 
ATOM     35  O   LIG A   1      -6.398   7.641 130.580  0.00  0.00    -0.251 OA
ATOM     36  C   LIG A   1      -5.958   6.182 132.459  0.00  0.00    +0.136 C 
ENDBRANCH  33  34
ENDBRANCH  25  33
BRANCH  27  37
ATOM     37  C   LIG A   1      -8.271   4.058 126.426  0.00  0.00    +0.267 C 
BRANCH  37  38
ATOM     38  O   LIG A   1      -8.832   2.856 125.847  0.00  0.00    -0.462 OA
BRANCH  38  39
ATOM     39  C   LIG A   1      -8.853   2.773 124.494  0.00  0.00    +0.304 C 
ATOM     40  O   LIG A   1      -8.306   3.568 123.730  0.00  0.00    -0.251 OA
ATOM     41  C   LIG A   1      -9.767   1.671 124.052  0.00  0.00    +0.136 C 
ENDBRANCH  38  39
ENDBRANCH  37  38
ENDBRANCH  27  37
BRANCH  26  42
ATOM     42  O   LIG A   1      -9.549   5.552 128.621  0.00  0.00    -0.455 OA
BRANCH  42  43
ATOM     43  C   LIG A   1      -9.884   6.854 128.475  0.00  0.00    +0.304 C 
ATOM     44  O   LIG A   1      -9.584   7.778 129.254  0.00  0.00    -0.251 OA
ATOM     45  C   LIG A   1     -10.514   7.088 127.132  0.00  0.00    +0.136 C 
ENDBRANCH  42  43
ENDBRANCH  26  42
ENDBRANCH  22  23
ENDBRANCH  17  22
BRANCH  15  46
ATOM     46  O   LIG A   1      -3.021   2.688 127.983  0.00  0.00    -0.426 OA
BRANCH  46  47
ATOM     47  C   LIG A   1      -2.688   3.735 127.107  0.00  0.00    +0.309 C 
ATOM     48  O   LIG A   1      -3.210   4.837 127.035  0.00  0.00    -0.251 OA
ATOM     49  C   LIG A   1      -1.534   3.303 126.256  0.00  0.00    +0.136 C 
ENDBRANCH  46  47
ENDBRANCH  15  46
TORSDOF 15
ENDMDL
MODEL 6
REMARK VINA RESULT:      -7.8      2.404      3.873
REMARK  Name = NuBBE_1821
REMARK  23 active torsions:
REMARK  status: ('A' for Active; 'I' for Inactive)
REMARK    1  A    between atoms: O_1  and  C_2
REMARK    2  A    between atoms: O_1  and  C_5
REMARK    3  A    between atoms: C_2  and  C_4
REMARK    4  A    between atoms: C_11  and  C_12
REMARK    5  A    between atoms: C_14  and  C_17
REMARK    6  A    between atoms: C_19  and  O_46
REMARK    7  A    between atoms: C_21  and  O_22
REMARK    8  A    between atoms: O_22  and  C_23
REMARK    9  A    between atoms: C_24  and  O_25
REMARK   10  A    between atoms: O_25  and  C_26
REMARK   11  A    between atoms: C_26  and  C_28
REMARK   12  A    between atoms: C_29  and  O_30
REMARK   13  A    between atoms: O_30  and  C_31
REMARK   14  A    between atoms: C_31  and  C_33
REMARK   15  A    between atoms: C_34  and  O_42
REMARK   16  A    between atoms: C_35  and  C_37
REMARK   17  A    between atoms: C_37  and  O_38
REMARK   18  A    between atoms: O_38  and  C_39
REMARK   19  A    between atoms: C_39  and  C_41
REMARK   20  A    between atoms: O_42  and  C_43
REMARK   21  A    between atoms: C_43  and  C_45
REMARK   22  A    between atoms: O_46  and  C_47
REMARK   23  A    between atoms: C_47  and  C_49
REMARK                            x       y       z     vdW  Elec       q    Type
REMARK                         _______ _______ _______ _____ _____    ______ ____
ROOT
ATOM      1  C   LIG A   1      -5.684  -1.200 129.728  0.00  0.00    +0.149 A 
ATOM      2  C   LIG A   1      -6.876  -1.423 128.959  0.00  0.00    +0.067 A 
ATOM      3  C   LIG A   1      -7.359  -2.749 128.995  0.00  0.00    -0.007 A 
ATOM      4  C   LIG A   1      -6.837  -3.707 129.865  0.00  0.00    +0.021 A 
ATOM      5  C   LIG A   1      -5.724  -3.427 130.649  0.00  0.00    +0.030 A 
ATOM      6  C   LIG A   1      -5.112  -2.171 130.596  0.00  0.00    +0.035 A 
ATOM      7  C   LIG A   1      -3.839  -1.940 131.382  0.00  0.00    +0.150 C 
ATOM      8  C   LIG A   1      -2.591  -1.945 130.500  0.00  0.00    +0.043 C 
ATOM      9  O   LIG A   1      -3.690  -2.884 132.460  0.00  0.00    -0.361 OA
ATOM     10  C   LIG A   1      -3.778  -4.249 132.062  0.00  0.00    +0.187 C 
ATOM     11  C   LIG A   1      -5.125  -4.538 131.424  0.00  0.00    +0.192 C 
ATOM     12  O   LIG A   1      -5.671  -5.638 131.457  0.00  0.00    -0.289 OA
ATOM     13  C   LIG A   1      -3.573  -5.130 133.288  0.00  0.00    +0.046 C 
ATOM     14  C   LIG A   1      -8.310  -3.178 128.083  0.00  0.00    +0.055 A 
ATOM     15  C   LIG A   1      -8.707  -2.346 127.049  0.00  0.00    +0.136 A 
ATOM     16  C   LIG A   1      -8.387  -0.992 127.074  0.00  0.00    +0.092 A 
ATOM     17  C   LIG A   1      -7.569  -0.494 128.096  0.00  0.00    +0.139 A 
ENDROOT
BRANCH   1  18
ATOM     18  O   LIG A   1      -4.978   0.012 129.560  0.00  0.00    -0.425 OA
BRANCH  18  19
ATOM     19  C   LIG A   1      -5.043   0.909 130.640  0.00  0.00    +0.309 C 
ATOM     20  O   LIG A   1      -5.468   0.685 131.762  0.00  0.00    -0.251 OA
ATOM     21  C   LIG A   1      -4.359   2.176 130.237  0.00  0.00    +0.136 C 
ENDBRANCH  18  19
ENDBRANCH   1  18
BRANCH  17  22
ATOM     22  O   LIG A   1      -7.328   0.865 128.246  0.00  0.00    -0.459 OA
BRANCH  22  23
ATOM     23  C   LIG A   1      -8.476   1.742 128.361  0.00  0.00    +0.353 C 
ATOM     24  C   LIG A   1      -8.569   2.399 129.767  0.00  0.00    +0.288 C 
ATOM     25  C   LIG A   1      -7.775   3.711 129.885  0.00  0.00    +0.266 C 
ATOM     26  C   LIG A   1      -8.109   4.669 128.721  0.00  0.00    +0.253 C 
ATOM     27  C   LIG A   1      -7.768   3.887 127.418  0.00  0.00    +0.204 C 
ATOM     28  O   LIG A   1      -8.569   2.699 127.305  0.00  0.00    -0.328 OA
BRANCH  24  29
ATOM     29  O   LIG A   1      -8.103   1.458 130.765  0.00  0.00    -0.451 OA
BRANCH  29  30
ATOM     30  C   LIG A   1      -9.057   0.951 131.587  0.00  0.00    +0.304 C 
ATOM     31  O   LIG A   1     -10.046   1.564 131.981  0.00  0.00    -0.251 OA
ATOM     32  C   LIG A   1      -8.765  -0.480 131.907  0.00  0.00    +0.136 C 
ENDBRANCH  29  30
ENDBRANCH  24  29
BRANCH  25  33
ATOM     33  O   LIG A   1      -8.049   4.280 131.184  0.00  0.00    -0.454 OA
BRANCH  33  34
ATOM     34  C   LIG A   1      -6.959   4.585 131.937  0.00  0.00    +0.304 C 
ATOM     35  O   LIG A   1      -6.314   3.829 132.644  0.00  0.00    -0.251 OA
ATOM     36  C   LIG A   1      -6.765   6.086 131.900  0.00  0.00    +0.136 C 
ENDBRANCH  33  34
ENDBRANCH  25  33
BRANCH  27  37
ATOM     37  C   LIG A   1      -7.996   4.696 126.129  0.00  0.00    +0.267 C 
BRANCH  37  38
ATOM     38  O   LIG A   1      -8.629   3.926 125.078  0.00  0.00    -0.462 OA
BRANCH  38  39
ATOM     39  C   LIG A   1      -7.818   3.375 124.141  0.00  0.00    +0.304 C 
ATOM     40  O   LIG A   1      -6.587   3.379 124.183  0.00  0.00    -0.251 OA
ATOM     41  C   LIG A   1      -8.621   2.900 122.970  0.00  0.00    +0.136 C 
ENDBRANCH  38  39
ENDBRANCH  37  38
ENDBRANCH  27  37
BRANCH  26  42
ATOM     42  O   LIG A   1      -9.500   5.099 128.630  0.00  0.00    -0.455 OA
BRANCH  42  43
ATOM     43  C   LIG A   1      -9.795   6.418 128.707  0.00  0.00    +0.304 C 
ATOM     44  O   LIG A   1     -10.042   7.168 127.744  0.00  0.00    -0.251 OA
ATOM     45  C   LIG A   1      -9.977   6.834 130.138  0.00  0.00    +0.136 C 
ENDBRANCH  42  43
ENDBRANCH  26  42
ENDBRANCH  22  23
ENDBRANCH  17  22
BRANCH  15  46
ATOM     46  O   LIG A   1      -9.525  -2.836 126.013  0.00  0.00    -0.426 OA
BRANCH  46  47
ATOM     47  C   LIG A   1      -9.065  -2.737 124.689  0.00  0.00    +0.309 C 
ATOM     48  O   LIG A   1      -9.468  -1.981 123.818  0.00  0.00    -0.251 OA
ATOM     49  C   LIG A   1      -7.946  -3.711 124.493  0.00  0.00    +0.136 C 
ENDBRANCH  46  47
ENDBRANCH  15  46
TORSDOF 15
ENDMDL
MODEL 7
REMARK VINA RESULT:      -7.8      2.493      8.170
REMARK  Name = NuBBE_1821
REMARK  23 active torsions:
REMARK  status: ('A' for Active; 'I' for Inactive)
REMARK    1  A    between atoms: O_1  and  C_2
REMARK    2  A    between atoms: O_1  and  C_5
REMARK    3  A    between atoms: C_2  and  C_4
REMARK    4  A    between atoms: C_11  and  C_12
REMARK    5  A    between atoms: C_14  and  C_17
REMARK    6  A    between atoms: C_19  and  O_46
REMARK    7  A    between atoms: C_21  and  O_22
REMARK    8  A    between atoms: O_22  and  C_23
REMARK    9  A    between atoms: C_24  and  O_25
REMARK   10  A    between atoms: O_25  and  C_26
REMARK   11  A    between atoms: C_26  and  C_28
REMARK   12  A    between atoms: C_29  and  O_30
REMARK   13  A    between atoms: O_30  and  C_31
REMARK   14  A    between atoms: C_31  and  C_33
REMARK   15  A    between atoms: C_34  and  O_42
REMARK   16  A    between atoms: C_35  and  C_37
REMARK   17  A    between atoms: C_37  and  O_38
REMARK   18  A    between atoms: O_38  and  C_39
REMARK   19  A    between atoms: C_39  and  C_41
REMARK   20  A    between atoms: O_42  and  C_43
REMARK   21  A    between atoms: C_43  and  C_45
REMARK   22  A    between atoms: O_46  and  C_47
REMARK   23  A    between atoms: C_47  and  C_49
REMARK                            x       y       z     vdW  Elec       q    Type
REMARK                         _______ _______ _______ _____ _____    ______ ____
ROOT
ATOM      1  C   LIG A   1      -4.129   4.058 129.778  0.00  0.00    +0.149 A 
ATOM      2  C   LIG A   1      -4.369   2.765 130.355  0.00  0.00    +0.067 A 
ATOM      3  C   LIG A   1      -3.822   2.586 131.644  0.00  0.00    -0.007 A 
ATOM      4  C   LIG A   1      -3.273   3.642 132.372  0.00  0.00    +0.021 A 
ATOM      5  C   LIG A   1      -3.126   4.901 131.801  0.00  0.00    +0.030 A 
ATOM      6  C   LIG A   1      -3.541   5.141 130.487  0.00  0.00    +0.035 A 
ATOM      7  C   LIG A   1      -3.265   6.493 129.865  0.00  0.00    +0.150 C 
ATOM      8  C   LIG A   1      -2.099   6.462 128.878  0.00  0.00    +0.043 C 
ATOM      9  O   LIG A   1      -3.047   7.513 130.859  0.00  0.00    -0.361 OA
ATOM     10  C   LIG A   1      -2.036   7.197 131.813  0.00  0.00    +0.187 C 
ATOM     11  C   LIG A   1      -2.388   5.929 132.570  0.00  0.00    +0.192 C 
ATOM     12  O   LIG A   1      -2.024   5.703 133.721  0.00  0.00    -0.289 OA
ATOM     13  C   LIG A   1      -1.893   8.367 132.778  0.00  0.00    +0.046 C 
ATOM     14  C   LIG A   1      -3.716   1.319 132.196  0.00  0.00    +0.055 A 
ATOM     15  C   LIG A   1      -4.033   0.203 131.440  0.00  0.00    +0.136 A 
ATOM     16  C   LIG A   1      -4.725   0.339 130.240  0.00  0.00    +0.092 A 
ATOM     17  C   LIG A   1      -5.007   1.619 129.747  0.00  0.00    +0.139 A 
ENDROOT
BRANCH   1  18
ATOM     18  O   LIG A   1      -4.407   4.257 128.407  0.00  0.00    -0.425 OA
BRANCH  18  19
ATOM     19  C   LIG A   1      -3.453   3.742 127.512  0.00  0.00    +0.309 C 
ATOM     20  O   LIG A   1      -2.405   3.181 127.791  0.00  0.00    -0.251 OA
ATOM     21  C   LIG A   1      -4.001   3.862 126.126  0.00  0.00    +0.136 C 
ENDBRANCH  18  19
ENDBRANCH   1  18
BRANCH  17  22
ATOM     22  O   LIG A   1      -5.809   1.815 128.630  0.00  0.00    -0.459 OA
BRANCH  22  23
ATOM     23  C   LIG A   1      -6.964   0.955 128.474  0.00  0.00    +0.353 C 
ATOM     24  C   LIG A   1      -8.107   1.653 127.684  0.00  0.00    +0.288 C 
ATOM     25  C   LIG A   1      -7.993   1.484 126.160  0.00  0.00    +0.266 C 
ATOM     26  C   LIG A   1      -7.781   0.001 125.780  0.00  0.00    +0.253 C 
ATOM     27  C   LIG A   1      -6.487  -0.445 126.523  0.00  0.00    +0.204 C 
ATOM     28  O   LIG A   1      -6.646  -0.334 127.948  0.00  0.00    -0.328 OA
BRANCH  24  29
ATOM     29  O   LIG A   1      -8.124   3.062 128.016  0.00  0.00    -0.451 OA
BRANCH  29  30
ATOM     30  C   LIG A   1      -8.727   3.384 129.189  0.00  0.00    +0.304 C 
ATOM     31  O   LIG A   1      -9.811   2.948 129.567  0.00  0.00    -0.251 OA
ATOM     32  C   LIG A   1      -7.861   4.306 129.987  0.00  0.00    +0.136 C 
ENDBRANCH  29  30
ENDBRANCH  24  29
BRANCH  25  33
ATOM     33  O   LIG A   1      -9.173   2.060 125.560  0.00  0.00    -0.454 OA
BRANCH  33  34
ATOM     34  C   LIG A   1      -9.025   2.518 124.288  0.00  0.00    +0.304 C 
ATOM     35  O   LIG A   1      -8.438   3.525 123.929  0.00  0.00    -0.251 OA
ATOM     36  C   LIG A   1      -9.873   1.657 123.375  0.00  0.00    +0.136 C 
ENDBRANCH  33  34
ENDBRANCH  25  33
BRANCH  27  37
ATOM     37  C   LIG A   1      -6.077  -1.900 126.238  0.00  0.00    +0.267 C 
BRANCH  37  38
ATOM     38  O   LIG A   1      -5.387  -2.061 124.975  0.00  0.00    -0.462 OA
BRANCH  38  39
ATOM     39  C   LIG A   1      -6.004  -2.805 124.023  0.00  0.00    +0.304 C 
ATOM     40  O   LIG A   1      -6.280  -3.999 124.131  0.00  0.00    -0.251 OA
ATOM     41  C   LIG A   1      -6.160  -2.013 122.762  0.00  0.00    +0.136 C 
ENDBRANCH  38  39
ENDBRANCH  37  38
ENDBRANCH  27  37
BRANCH  26  42
ATOM     42  O   LIG A   1      -8.852  -0.912 126.162  0.00  0.00    -0.455 OA
BRANCH  42  43
ATOM     43  C   LIG A   1      -9.310  -1.813 125.262  0.00  0.00    +0.304 C 
ATOM     44  O   LIG A   1      -9.435  -1.624 124.038  0.00  0.00    -0.251 OA
ATOM     45  C   LIG A   1      -9.475  -3.160 125.905  0.00  0.00    +0.136 C 
ENDBRANCH  42  43
ENDBRANCH  26  42
ENDBRANCH  22  23
ENDBRANCH  17  22
BRANCH  15  46
ATOM     46  O   LIG A   1      -3.749  -1.090 131.921  0.00  0.00    -0.426 OA
BRANCH  46  47
ATOM     47  C   LIG A   1      -3.461  -2.105 130.995  0.00  0.00    +0.309 C 
ATOM     48  O   LIG A   1      -2.523  -2.154 130.214  0.00  0.00    -0.251 OA
ATOM     49  C   LIG A   1      -4.494  -3.181 131.122  0.00  0.00    +0.136 C 
ENDBRANCH  46  47
ENDBRANCH  15  46
TORSDOF 15
ENDMDL
MODEL 8
REMARK VINA RESULT:      -7.8      2.316      6.391
REMARK  Name = NuBBE_1821
REMARK  23 active torsions:
REMARK  status: ('A' for Active; 'I' for Inactive)
REMARK    1  A    between atoms: O_1  and  C_2
REMARK    2  A    between atoms: O_1  and  C_5
REMARK    3  A    between atoms: C_2  and  C_4
REMARK    4  A    between atoms: C_11  and  C_12
REMARK    5  A    between atoms: C_14  and  C_17
REMARK    6  A    between atoms: C_19  and  O_46
REMARK    7  A    between atoms: C_21  and  O_22
REMARK    8  A    between atoms: O_22  and  C_23
REMARK    9  A    between atoms: C_24  and  O_25
REMARK   10  A    between atoms: O_25  and  C_26
REMARK   11  A    between atoms: C_26  and  C_28
REMARK   12  A    between atoms: C_29  and  O_30
REMARK   13  A    between atoms: O_30  and  C_31
REMARK   14  A    between atoms: C_31  and  C_33
REMARK   15  A    between atoms: C_34  and  O_42
REMARK   16  A    between atoms: C_35  and  C_37
REMARK   17  A    between atoms: C_37  and  O_38
REMARK   18  A    between atoms: O_38  and  C_39
REMARK   19  A    between atoms: C_39  and  C_41
REMARK   20  A    between atoms: O_42  and  C_43
REMARK   21  A    between atoms: C_43  and  C_45
REMARK   22  A    between atoms: O_46  and  C_47
REMARK   23  A    between atoms: C_47  and  C_49
REMARK                            x       y       z     vdW  Elec       q    Type
REMARK                         _______ _______ _______ _____ _____    ______ ____
ROOT
ATOM      1  C   LIG A   1      -5.674  -0.453 130.124  0.00  0.00    +0.149 A 
ATOM      2  C   LIG A   1      -6.348   0.805 129.970  0.00  0.00    +0.067 A 
ATOM      3  C   LIG A   1      -6.022   1.769 130.949  0.00  0.00    -0.007 A 
ATOM      4  C   LIG A   1      -4.983   1.581 131.861  0.00  0.00    +0.021 A 
ATOM      5  C   LIG A   1      -4.304   0.370 131.928  0.00  0.00    +0.030 A 
ATOM      6  C   LIG A   1      -4.636  -0.682 131.069  0.00  0.00    +0.035 A 
ATOM      7  C   LIG A   1      -3.948  -2.019 131.244  0.00  0.00    +0.150 C 
ATOM      8  C   LIG A   1      -4.840  -3.057 131.923  0.00  0.00    +0.043 C 
ATOM      9  O   LIG A   1      -2.699  -1.897 131.953  0.00  0.00    -0.361 OA
ATOM     10  C   LIG A   1      -2.799  -1.229 133.208  0.00  0.00    +0.187 C 
ATOM     11  C   LIG A   1      -3.328   0.182 133.026  0.00  0.00    +0.192 C 
ATOM     12  O   LIG A   1      -3.050   1.114 133.777  0.00  0.00    -0.289 OA
ATOM     13  C   LIG A   1      -1.421  -1.199 133.856  0.00  0.00    +0.046 C 
ATOM     14  C   LIG A   1      -6.798   2.906 131.105  0.00  0.00    +0.055 A 
ATOM     15  C   LIG A   1      -7.974   3.050 130.387  0.00  0.00    +0.136 A 
ATOM     16  C   LIG A   1      -8.243   2.215 129.305  0.00  0.00    +0.092 A 
ATOM     17  C   LIG A   1      -7.370   1.161 129.013  0.00  0.00    +0.139 A 
ENDROOT
BRANCH   1  18
ATOM     18  O   LIG A   1      -6.111  -1.561 129.363  0.00  0.00    -0.425 OA
BRANCH  18  19
ATOM     19  C   LIG A   1      -7.312  -2.154 129.787  0.00  0.00    +0.309 C 
ATOM     20  O   LIG A   1      -7.916  -1.940 130.826  0.00  0.00    -0.251 OA
ATOM     21  C   LIG A   1      -7.829  -3.009 128.675  0.00  0.00    +0.136 C 
ENDBRANCH  18  19
ENDBRANCH   1  18
BRANCH  17  22
ATOM     22  O   LIG A   1      -7.515   0.383 127.871  0.00  0.00    -0.459 OA
BRANCH  22  23
ATOM     23  C   LIG A   1      -6.642   0.668 126.750  0.00  0.00    +0.353 C 
ATOM     24  C   LIG A   1      -7.307   0.314 125.389  0.00  0.00    +0.288 C 
ATOM     25  C   LIG A   1      -8.148   1.458 124.801  0.00  0.00    +0.266 C 
ATOM     26  C   LIG A   1      -7.352   2.782 124.784  0.00  0.00    +0.253 C 
ATOM     27  C   LIG A   1      -6.945   3.048 126.264  0.00  0.00    +0.204 C 
ATOM     28  O   LIG A   1      -6.108   1.992 126.767  0.00  0.00    -0.328 OA
BRANCH  24  29
ATOM     29  O   LIG A   1      -8.136  -0.862 125.556  0.00  0.00    -0.451 OA
BRANCH  29  30
ATOM     30  C   LIG A   1      -7.641  -2.011 125.030  0.00  0.00    +0.304 C 
ATOM     31  O   LIG A   1      -6.503  -2.436 125.210  0.00  0.00    -0.251 OA
ATOM     32  C   LIG A   1      -8.693  -2.719 124.237  0.00  0.00    +0.136 C 
ENDBRANCH  29  30
ENDBRANCH  24  29
BRANCH  25  33
ATOM     33  O   LIG A   1      -8.597   1.051 123.490  0.00  0.00    -0.454 OA
BRANCH  33  34
ATOM     34  C   LIG A   1      -9.942   0.920 123.340  0.00  0.00    +0.304 C 
ATOM     35  O   LIG A   1     -10.812   1.344 124.081  0.00  0.00    -0.251 OA
ATOM     36  C   LIG A   1     -10.198  -0.007 122.170  0.00  0.00    +0.136 C 
ENDBRANCH  33  34
ENDBRANCH  25  33
BRANCH  27  37
ATOM     37  C   LIG A   1      -6.167   4.361 126.468  0.00  0.00    +0.267 C 
BRANCH  37  38
ATOM     38  O   LIG A   1      -5.891   4.648 127.860  0.00  0.00    -0.462 OA
BRANCH  38  39
ATOM     39  C   LIG A   1      -4.648   5.100 128.163  0.00  0.00    +0.304 C 
ATOM     40  O   LIG A   1      -4.165   6.159 127.762  0.00  0.00    -0.251 OA
ATOM     41  C   LIG A   1      -3.885   4.058 128.923  0.00  0.00    +0.136 C 
ENDBRANCH  38  39
ENDBRANCH  37  38
ENDBRANCH  27  37
BRANCH  26  42
ATOM     42  O   LIG A   1      -6.135   2.782 123.981  0.00  0.00    -0.455 OA
BRANCH  42  43
ATOM     43  C   LIG A   1      -5.991   3.694 122.992  0.00  0.00    +0.304 C 
ATOM     44  O   LIG A   1      -5.502   4.832 123.113  0.00  0.00    -0.251 OA
ATOM     45  C   LIG A   1      -6.326   3.084 121.661  0.00  0.00    +0.136 C 
ENDBRANCH  42  43
ENDBRANCH  26  42
ENDBRANCH  22  23
ENDBRANCH  17  22
BRANCH  15  46
ATOM     46  O   LIG A   1      -8.863   4.102 130.675  0.00  0.00    -0.426 OA
BRANCH  46  47
ATOM     47  C   LIG A   1      -8.768   5.288 129.929  0.00  0.00    +0.309 C 
ATOM     48  O   LIG A   1      -9.053   5.449 128.751  0.00  0.00    -0.251 OA
ATOM     49  C   LIG A   1      -8.272   6.382 130.822  0.00  0.00    +0.136 C 
ENDBRANCH  46  47
ENDBRANCH  15  46
TORSDOF 15
ENDMDL
MODEL 9
REMARK VINA RESULT:      -7.6      2.084      5.954
REMARK  Name = NuBBE_1821
REMARK  23 active torsions:
REMARK  status: ('A' for Active; 'I' for Inactive)
REMARK    1  A    between atoms: O_1  and  C_2
REMARK    2  A    between atoms: O_1  and  C_5
REMARK    3  A    between atoms: C_2  and  C_4
REMARK    4  A    between atoms: C_11  and  C_12
REMARK    5  A    between atoms: C_14  and  C_17
REMARK    6  A    between atoms: C_19  and  O_46
REMARK    7  A    between atoms: C_21  and  O_22
REMARK    8  A    between atoms: O_22  and  C_23
REMARK    9  A    between atoms: C_24  and  O_25
REMARK   10  A    between atoms: O_25  and  C_26
REMARK   11  A    between atoms: C_26  and  C_28
REMARK   12  A    between atoms: C_29  and  O_30
REMARK   13  A    between atoms: O_30  and  C_31
REMARK   14  A    between atoms: C_31  and  C_33
REMARK   15  A    between atoms: C_34  and  O_42
REMARK   16  A    between atoms: C_35  and  C_37
REMARK   17  A    between atoms: C_37  and  O_38
REMARK   18  A    between atoms: O_38  and  C_39
REMARK   19  A    between atoms: C_39  and  C_41
REMARK   20  A    between atoms: O_42  and  C_43
REMARK   21  A    between atoms: C_43  and  C_45
REMARK   22  A    between atoms: O_46  and  C_47
REMARK   23  A    between atoms: C_47  and  C_49
REMARK                            x       y       z     vdW  Elec       q    Type
REMARK                         _______ _______ _______ _____ _____    ______ ____
ROOT
ATOM      1  C   LIG A   1      -6.311  -1.395 130.389  0.00  0.00    +0.149 A 
ATOM      2  C   LIG A   1      -7.092  -0.217 130.644  0.00  0.00    +0.067 A 
ATOM      3  C   LIG A   1      -7.680  -0.169 131.926  0.00  0.00    -0.007 A 
ATOM      4  C   LIG A   1      -7.362  -1.089 132.926  0.00  0.00    +0.021 A 
ATOM      5  C   LIG A   1      -6.541  -2.177 132.657  0.00  0.00    +0.030 A 
ATOM      6  C   LIG A   1      -6.001  -2.366 131.381  0.00  0.00    +0.035 A 
ATOM      7  C   LIG A   1      -5.201  -3.620 131.099  0.00  0.00    +0.150 C 
ATOM      8  C   LIG A   1      -5.985  -4.651 130.288  0.00  0.00    +0.043 C 
ATOM      9  O   LIG A   1      -4.691  -4.220 132.306  0.00  0.00    -0.361 OA
ATOM     10  C   LIG A   1      -5.683  -4.483 133.294  0.00  0.00    +0.187 C 
ATOM     11  C   LIG A   1      -6.378  -3.201 133.715  0.00  0.00    +0.192 C 
ATOM     12  O   LIG A   1      -6.863  -3.025 134.830  0.00  0.00    -0.289 OA
ATOM     13  C   LIG A   1      -5.012  -5.140 134.495  0.00  0.00    +0.046 C 
ATOM     14  C   LIG A   1      -8.684   0.744 132.207  0.00  0.00    +0.055 A 
ATOM     15  C   LIG A   1      -9.207   1.536 131.198  0.00  0.00    +0.136 A 
ATOM     16  C   LIG A   1      -8.552   1.638 129.974  0.00  0.00    +0.092 A 
ATOM     17  C   LIG A   1      -7.418   0.854 129.730  0.00  0.00    +0.139 A 
ENDROOT
BRANCH   1  18
ATOM     18  O   LIG A   1      -5.893  -1.666 129.066  0.00  0.00    -0.425 OA
BRANCH  18  19
ATOM     19  C   LIG A   1      -6.875  -2.201 128.215  0.00  0.00    +0.309 C 
ATOM     20  O   LIG A   1      -8.031  -2.473 128.499  0.00  0.00    -0.251 OA
ATOM     21  C   LIG A   1      -6.314  -2.256 126.830  0.00  0.00    +0.136 C 
ENDBRANCH  18  19
ENDBRANCH   1  18
BRANCH  17  22
ATOM     22  O   LIG A   1      -6.648   1.013 128.585  0.00  0.00    -0.459 OA
BRANCH  22  23
ATOM     23  C   LIG A   1      -7.108   1.965 127.594  0.00  0.00    +0.353 C 
ATOM     24  C   LIG A   1      -6.124   3.158 127.432  0.00  0.00    +0.288 C 
ATOM     25  C   LIG A   1      -5.006   2.897 126.409  0.00  0.00    +0.266 C 
ATOM     26  C   LIG A   1      -5.583   2.375 125.075  0.00  0.00    +0.253 C 
ATOM     27  C   LIG A   1      -6.370   1.079 125.434  0.00  0.00    +0.204 C 
ATOM     28  O   LIG A   1      -7.447   1.365 126.343  0.00  0.00    -0.328 OA
BRANCH  24  29
ATOM     29  O   LIG A   1      -5.540   3.472 128.720  0.00  0.00    -0.451 OA
BRANCH  29  30
ATOM     30  C   LIG A   1      -6.226   4.368 129.474  0.00  0.00    +0.304 C 
ATOM     31  O   LIG A   1      -7.016   5.200 129.035  0.00  0.00    -0.251 OA
ATOM     32  C   LIG A   1      -5.925   4.170 130.925  0.00  0.00    +0.136 C 
ENDBRANCH  29  30
ENDBRANCH  24  29
BRANCH  25  33
ATOM     33  O   LIG A   1      -4.248   4.117 126.259  0.00  0.00    -0.454 OA
BRANCH  33  34
ATOM     34  C   LIG A   1      -3.085   4.181 126.961  0.00  0.00    +0.304 C 
ATOM     35  O   LIG A   1      -2.729   5.065 127.721  0.00  0.00    -0.251 OA
ATOM     36  C   LIG A   1      -2.199   3.039 126.510  0.00  0.00    +0.136 C 
ENDBRANCH  33  34
ENDBRANCH  25  33
BRANCH  27  37
ATOM     37  C   LIG A   1      -6.996   0.375 124.217  0.00  0.00    +0.267 C 
BRANCH  37  38
ATOM     38  O   LIG A   1      -8.436   0.516 124.157  0.00  0.00    -0.462 OA
BRANCH  38  39
ATOM     39  C   LIG A   1      -9.099  -0.286 123.286  0.00  0.00    +0.304 C 
ATOM     40  O   LIG A   1     -10.205  -0.041 122.804  0.00  0.00    -0.251 OA
ATOM     41  C   LIG A   1      -8.372  -1.584 123.113  0.00  0.00    +0.136 C 
ENDBRANCH  38  39
ENDBRANCH  37  38
ENDBRANCH  27  37
BRANCH  26  42
ATOM     42  O   LIG A   1      -6.499   3.274 124.383  0.00  0.00    -0.455 OA
BRANCH  42  43
ATOM     43  C   LIG A   1      -6.096   3.888 123.247  0.00  0.00    +0.304 C 
ATOM     44  O   LIG A   1      -5.324   4.862 123.177  0.00  0.00    -0.251 OA
ATOM     45  C   LIG A   1      -6.553   3.117 122.042  0.00  0.00    +0.136 C 
ENDBRANCH  42  43
ENDBRANCH  26  42
ENDBRANCH  22  23
ENDBRANCH  17  22
BRANCH  15  46
ATOM     46  O   LIG A   1     -10.350   2.324 131.429  0.00  0.00    -0.426 OA
BRANCH  46  47
ATOM     47  C   LIG A   1     -10.382   3.631 130.913  0.00  0.00    +0.309 C 
ATOM     48  O   LIG A   1     -10.992   4.026 129.931  0.00  0.00    -0.251 OA
ATOM     49  C   LIG A   1      -9.552   4.515 131.790  0.00  0.00    +0.136 C 
ENDBRANCH  46  47
ENDBRANCH  15  46
TORSDOF 15
ENDMDL
