MODEL 1
REMARK VINA RESULT:      -7.2      0.000      0.000
REMARK  Name = NuBBE_1073
REMARK  7 active torsions:
REMARK  status: ('A' for Active; 'I' for Inactive)
REMARK    1  A    between atoms: C_1  and  C_2
REMARK    2  A    between atoms: C_1  and  C_13
REMARK    3  A    between atoms: C_2  and  C_3
REMARK    4  A    between atoms: C_3  and  C_4
REMARK    5  A    between atoms: C_5  and  O_6
REMARK    6  A    between atoms: C_8  and  O_11
REMARK    7  A    between atoms: O_11  and  C_12
REMARK                            x       y       z     vdW  Elec       q    Type
REMARK                         _______ _______ _______ _____ _____    ______ ____
ROOT
ATOM      1  C   LIG A   1      -9.508   0.490 124.196  0.00  0.00    +0.009 C 
ENDROOT
BRANCH   1   2
ATOM      2  C   LIG A   1      -9.720   1.951 123.795  0.00  0.00    +0.035 C 
BRANCH   2   3
ATOM      3  C   LIG A   1      -8.484   2.618 123.206  0.00  0.00    -0.044 A 
ATOM      4  C   LIG A   1      -8.545   3.098 121.887  0.00  0.00    +0.053 A 
ATOM      5  C   LIG A   1      -7.410   3.663 121.337  0.00  0.00    +0.167 A 
ATOM      6  C   LIG A   1      -6.239   3.776 122.046  0.00  0.00    +0.166 A 
ATOM      7  C   LIG A   1      -6.137   3.340 123.345  0.00  0.00    +0.050 A 
ATOM      8  C   LIG A   1      -7.267   2.759 123.923  0.00  0.00    +0.007 A 
ATOM      9  O   LIG A   1      -5.240   4.344 121.319  0.00  0.00    -0.453 OA
ATOM     10  C   LIG A   1      -5.903   4.519 120.050  0.00  0.00    +0.466 C 
ATOM     11  O   LIG A   1      -7.297   4.148 120.071  0.00  0.00    -0.453 OA
ENDBRANCH   2   3
ENDBRANCH   1   2
BRANCH   1  12
ATOM     12  C   LIG A   1      -9.136  -0.442 123.041  0.00  0.00    +0.039 C 
BRANCH  12  13
ATOM     13  C   LIG A   1      -8.179  -1.569 123.410  0.00  0.00    -0.006 A 
ATOM     14  C   LIG A   1      -8.552  -2.744 124.077  0.00  0.00    +0.123 A 
ATOM     15  C   LIG A   1      -7.627  -3.749 124.376  0.00  0.00    +0.091 A 
ATOM     16  C   LIG A   1      -6.285  -3.587 124.046  0.00  0.00    +0.124 A 
ATOM     17  C   LIG A   1      -5.882  -2.404 123.431  0.00  0.00    +0.046 A 
ATOM     18  C   LIG A   1      -6.815  -1.406 123.117  0.00  0.00    +0.011 A 
BRANCH  14  19
ATOM     19  O   LIG A   1      -9.847  -2.933 124.472  0.00  0.00    -0.506 OA
ATOM     20  H   LIG A   1      -9.978  -3.856 124.743  0.00  0.00    +0.292 HD
ENDBRANCH  14  19
BRANCH  16  21
ATOM     21  O   LIG A   1      -5.293  -4.495 124.288  0.00  0.00    -0.495 OA
ATOM     22  C   LIG A   1      -4.113  -4.373 123.500  0.00  0.00    +0.277 C 
ENDBRANCH  16  21
ENDBRANCH  12  13
ENDBRANCH   1  12
TORSDOF 6
ENDMDL
MODEL 2
REMARK VINA RESULT:      -7.1      3.158      7.031
REMARK  Name = NuBBE_1073
REMARK  7 active torsions:
REMARK  status: ('A' for Active; 'I' for Inactive)
REMARK    1  A    between atoms: C_1  and  C_2
REMARK    2  A    between atoms: C_1  and  C_13
REMARK    3  A    between atoms: C_2  and  C_3
REMARK    4  A    between atoms: C_3  and  C_4
REMARK    5  A    between atoms: C_5  and  O_6
REMARK    6  A    between atoms: C_8  and  O_11
REMARK    7  A    between atoms: O_11  and  C_12
REMARK                            x       y       z     vdW  Elec       q    Type
REMARK                         _______ _______ _______ _____ _____    ______ ____
ROOT
ATOM      1  C   LIG A   1      -8.661  -3.092 124.194  0.00  0.00    +0.009 C 
ENDROOT
BRANCH   1   2
ATOM      2  C   LIG A   1      -9.387  -2.916 125.528  0.00  0.00    +0.035 C 
BRANCH   2   3
ATOM      3  C   LIG A   1      -8.465  -2.899 126.739  0.00  0.00    -0.044 A 
ATOM      4  C   LIG A   1      -7.239  -2.219 126.640  0.00  0.00    +0.053 A 
ATOM      5  C   LIG A   1      -6.382  -2.242 127.723  0.00  0.00    +0.167 A 
ATOM      6  C   LIG A   1      -6.702  -2.897 128.889  0.00  0.00    +0.166 A 
ATOM      7  C   LIG A   1      -7.896  -3.557 129.041  0.00  0.00    +0.050 A 
ATOM      8  C   LIG A   1      -8.779  -3.556 127.958  0.00  0.00    +0.007 A 
ATOM      9  O   LIG A   1      -5.717  -2.812 129.823  0.00  0.00    -0.453 OA
ATOM     10  C   LIG A   1      -4.716  -2.079 129.088  0.00  0.00    +0.466 C 
ATOM     11  O   LIG A   1      -5.155  -1.659 127.778  0.00  0.00    -0.453 OA
ENDBRANCH   2   3
ENDBRANCH   1   2
BRANCH   1  12
ATOM     12  C   LIG A   1      -9.177  -2.200 123.063  0.00  0.00    +0.039 C 
BRANCH  12  13
ATOM     13  C   LIG A   1      -8.785  -0.731 123.175  0.00  0.00    -0.006 A 
ATOM     14  C   LIG A   1      -9.659   0.344 122.963  0.00  0.00    +0.123 A 
ATOM     15  C   LIG A   1      -9.241   1.671 123.095  0.00  0.00    +0.091 A 
ATOM     16  C   LIG A   1      -7.916   1.962 123.408  0.00  0.00    +0.124 A 
ATOM     17  C   LIG A   1      -7.018   0.910 123.571  0.00  0.00    +0.046 A 
ATOM     18  C   LIG A   1      -7.444  -0.420 123.456  0.00  0.00    +0.011 A 
BRANCH  14  19
ATOM     19  O   LIG A   1     -10.957   0.118 122.601  0.00  0.00    -0.506 OA
ATOM     20  H   LIG A   1     -11.219   0.744 121.906  0.00  0.00    +0.292 HD
ENDBRANCH  14  19
BRANCH  16  21
ATOM     21  O   LIG A   1      -7.393   3.215 123.561  0.00  0.00    -0.495 OA
ATOM     22  C   LIG A   1      -6.311   3.562 122.702  0.00  0.00    +0.277 C 
ENDBRANCH  16  21
ENDBRANCH  12  13
ENDBRANCH   1  12
TORSDOF 6
ENDMDL
MODEL 3
REMARK VINA RESULT:      -7.0      8.329     10.626
REMARK  Name = NuBBE_1073
REMARK  7 active torsions:
REMARK  status: ('A' for Active; 'I' for Inactive)
REMARK    1  A    between atoms: C_1  and  C_2
REMARK    2  A    between atoms: C_1  and  C_13
REMARK    3  A    between atoms: C_2  and  C_3
REMARK    4  A    between atoms: C_3  and  C_4
REMARK    5  A    between atoms: C_5  and  O_6
REMARK    6  A    between atoms: C_8  and  O_11
REMARK    7  A    between atoms: O_11  and  C_12
REMARK                            x       y       z     vdW  Elec       q    Type
REMARK                         _______ _______ _______ _____ _____    ______ ____
ROOT
ATOM      1  C   LIG A   1      -5.972   6.416 131.870  0.00  0.00    +0.009 C 
ENDROOT
BRANCH   1   2
ATOM      2  C   LIG A   1      -6.914   7.017 130.827  0.00  0.00    +0.035 C 
BRANCH   2   3
ATOM      3  C   LIG A   1      -8.390   6.784 131.116  0.00  0.00    -0.044 A 
ATOM      4  C   LIG A   1      -9.340   7.298 130.217  0.00  0.00    +0.053 A 
ATOM      5  C   LIG A   1     -10.681   7.125 130.503  0.00  0.00    +0.167 A 
ATOM      6  C   LIG A   1     -11.104   6.460 131.629  0.00  0.00    +0.166 A 
ATOM      7  C   LIG A   1     -10.214   5.923 132.526  0.00  0.00    +0.050 A 
ATOM      8  C   LIG A   1      -8.851   6.088 132.265  0.00  0.00    +0.007 A 
ATOM      9  O   LIG A   1     -12.459   6.415 131.732  0.00  0.00    -0.453 OA
ATOM     10  C   LIG A   1     -12.839   7.183 130.571  0.00  0.00    +0.466 C 
ATOM     11  O   LIG A   1     -11.719   7.582 129.753  0.00  0.00    -0.453 OA
ENDBRANCH   2   3
ENDBRANCH   1   2
BRANCH   1  12
ATOM     12  C   LIG A   1      -4.483   6.607 131.573  0.00  0.00    +0.039 C 
BRANCH  12  13
ATOM     13  C   LIG A   1      -4.017   6.033 130.240  0.00  0.00    -0.006 A 
ATOM     14  C   LIG A   1      -3.837   6.784 129.070  0.00  0.00    +0.123 A 
ATOM     15  C   LIG A   1      -3.393   6.201 127.880  0.00  0.00    +0.091 A 
ATOM     16  C   LIG A   1      -3.152   4.832 127.817  0.00  0.00    +0.124 A 
ATOM     17  C   LIG A   1      -3.375   4.057 128.954  0.00  0.00    +0.046 A 
ATOM     18  C   LIG A   1      -3.803   4.648 130.150  0.00  0.00    +0.011 A 
BRANCH  14  19
ATOM     19  O   LIG A   1      -4.110   8.124 129.059  0.00  0.00    -0.506 OA
ATOM     20  H   LIG A   1      -4.700   8.334 128.317  0.00  0.00    +0.292 HD
ENDBRANCH  14  19
BRANCH  16  21
ATOM     21  O   LIG A   1      -2.720   4.151 126.714  0.00  0.00    -0.495 OA
ATOM     22  C   LIG A   1      -1.795   3.091 126.942  0.00  0.00    +0.277 C 
ENDBRANCH  16  21
ENDBRANCH  12  13
ENDBRANCH   1  12
TORSDOF 6
ENDMDL
MODEL 4
REMARK VINA RESULT:      -6.7      5.207      7.257
REMARK  Name = NuBBE_1073
REMARK  7 active torsions:
REMARK  status: ('A' for Active; 'I' for Inactive)
REMARK    1  A    between atoms: C_1  and  C_2
REMARK    2  A    between atoms: C_1  and  C_13
REMARK    3  A    between atoms: C_2  and  C_3
REMARK    4  A    between atoms: C_3  and  C_4
REMARK    5  A    between atoms: C_5  and  O_6
REMARK    6  A    between atoms: C_8  and  O_11
REMARK    7  A    between atoms: O_11  and  C_12
REMARK                            x       y       z     vdW  Elec       q    Type
REMARK                         _______ _______ _______ _____ _____    ______ ____
ROOT
ATOM      1  C   LIG A   1      -8.267  -3.240 128.825  0.00  0.00    +0.009 C 
ENDROOT
BRANCH   1   2
ATOM      2  C   LIG A   1      -8.970  -3.967 127.678  0.00  0.00    +0.035 C 
BRANCH   2   3
ATOM      3  C   LIG A   1      -8.776  -3.313 126.317  0.00  0.00    -0.044 A 
ATOM      4  C   LIG A   1      -9.247  -2.003 126.129  0.00  0.00    +0.053 A 
ATOM      5  C   LIG A   1      -9.111  -1.426 124.880  0.00  0.00    +0.167 A 
ATOM      6  C   LIG A   1      -8.521  -2.092 123.833  0.00  0.00    +0.166 A 
ATOM      7  C   LIG A   1      -8.028  -3.365 123.974  0.00  0.00    +0.050 A 
ATOM      8  C   LIG A   1      -8.158  -3.975 125.223  0.00  0.00    +0.007 A 
ATOM      9  O   LIG A   1      -8.503  -1.355 122.690  0.00  0.00    -0.453 OA
ATOM     10  C   LIG A   1      -9.203  -0.172 123.125  0.00  0.00    +0.466 C 
ATOM     11  O   LIG A   1      -9.536  -0.182 124.529  0.00  0.00    -0.453 OA
ENDBRANCH   2   3
ENDBRANCH   1   2
BRANCH   1  12
ATOM     12  C   LIG A   1      -6.848  -2.763 128.505  0.00  0.00    +0.039 C 
BRANCH  12  13
ATOM     13  C   LIG A   1      -5.805  -3.101 129.563  0.00  0.00    -0.006 A 
ATOM     14  C   LIG A   1      -4.603  -2.403 129.745  0.00  0.00    +0.123 A 
ATOM     15  C   LIG A   1      -3.690  -2.754 130.745  0.00  0.00    +0.091 A 
ATOM     16  C   LIG A   1      -3.941  -3.846 131.571  0.00  0.00    +0.124 A 
ATOM     17  C   LIG A   1      -5.104  -4.587 131.373  0.00  0.00    +0.046 A 
ATOM     18  C   LIG A   1      -6.025  -4.221 130.382  0.00  0.00    +0.011 A 
BRANCH  14  19
ATOM     19  O   LIG A   1      -4.280  -1.356 128.929  0.00  0.00    -0.506 OA
ATOM     20  H   LIG A   1      -3.374  -1.463 128.597  0.00  0.00    +0.292 HD
ENDBRANCH  14  19
BRANCH  16  21
ATOM     21  O   LIG A   1      -3.126  -4.285 132.577  0.00  0.00    -0.495 OA
ATOM     22  C   LIG A   1      -3.081  -3.484 133.754  0.00  0.00    +0.277 C 
ENDBRANCH  16  21
ENDBRANCH  12  13
ENDBRANCH   1  12
TORSDOF 6
ENDMDL
MODEL 5
REMARK VINA RESULT:      -6.7      3.265      4.297
REMARK  Name = NuBBE_1073
REMARK  7 active torsions:
REMARK  status: ('A' for Active; 'I' for Inactive)
REMARK    1  A    between atoms: C_1  and  C_2
REMARK    2  A    between atoms: C_1  and  C_13
REMARK    3  A    between atoms: C_2  and  C_3
REMARK    4  A    between atoms: C_3  and  C_4
REMARK    5  A    between atoms: C_5  and  O_6
REMARK    6  A    between atoms: C_8  and  O_11
REMARK    7  A    between atoms: O_11  and  C_12
REMARK                            x       y       z     vdW  Elec       q    Type
REMARK                         _______ _______ _______ _____ _____    ______ ____
ROOT
ATOM      1  C   LIG A   1      -9.012  -3.667 124.492  0.00  0.00    +0.009 C 
ENDROOT
BRANCH   1   2
ATOM      2  C   LIG A   1      -9.244  -2.844 123.224  0.00  0.00    +0.035 C 
BRANCH   2   3
ATOM      3  C   LIG A   1      -8.599  -1.466 123.251  0.00  0.00    -0.044 A 
ATOM      4  C   LIG A   1      -9.429  -0.334 123.184  0.00  0.00    +0.053 A 
ATOM      5  C   LIG A   1      -8.840   0.916 123.163  0.00  0.00    +0.167 A 
ATOM      6  C   LIG A   1      -7.476   1.078 123.219  0.00  0.00    +0.166 A 
ATOM      7  C   LIG A   1      -6.626   0.003 123.306  0.00  0.00    +0.050 A 
ATOM      8  C   LIG A   1      -7.193  -1.273 123.322  0.00  0.00    +0.007 A 
ATOM      9  O   LIG A   1      -7.103   2.384 123.169  0.00  0.00    -0.453 OA
ATOM     10  C   LIG A   1      -8.387   3.022 123.015  0.00  0.00    +0.466 C 
ATOM     11  O   LIG A   1      -9.498   2.103 123.075  0.00  0.00    -0.453 OA
ENDBRANCH   2   3
ENDBRANCH   1   2
BRANCH   1  12
ATOM     12  C   LIG A   1      -9.516  -3.013 125.780  0.00  0.00    +0.039 C 
BRANCH  12  13
ATOM     13  C   LIG A   1      -8.504  -2.974 126.918  0.00  0.00    -0.006 A 
ATOM     14  C   LIG A   1      -8.664  -3.630 128.147  0.00  0.00    +0.123 A 
ATOM     15  C   LIG A   1      -7.691  -3.567 129.149  0.00  0.00    +0.091 A 
ATOM     16  C   LIG A   1      -6.539  -2.809 128.961  0.00  0.00    +0.124 A 
ATOM     17  C   LIG A   1      -6.383  -2.106 127.768  0.00  0.00    +0.046 A 
ATOM     18  C   LIG A   1      -7.353  -2.186 126.759  0.00  0.00    +0.011 A 
BRANCH  14  19
ATOM     19  O   LIG A   1      -9.800  -4.345 128.407  0.00  0.00    -0.506 OA
ATOM     20  H   LIG A   1      -9.895  -5.060 127.758  0.00  0.00    +0.292 HD
ENDBRANCH  14  19
BRANCH  16  21
ATOM     21  O   LIG A   1      -5.522  -2.671 129.864  0.00  0.00    -0.495 OA
ATOM     22  C   LIG A   1      -4.436  -3.585 129.744  0.00  0.00    +0.277 C 
ENDBRANCH  16  21
ENDBRANCH  12  13
ENDBRANCH   1  12
TORSDOF 6
ENDMDL
MODEL 6
REMARK VINA RESULT:      -6.5      5.803      7.659
REMARK  Name = NuBBE_1073
REMARK  7 active torsions:
REMARK  status: ('A' for Active; 'I' for Inactive)
REMARK    1  A    between atoms: C_1  and  C_2
REMARK    2  A    between atoms: C_1  and  C_13
REMARK    3  A    between atoms: C_2  and  C_3
REMARK    4  A    between atoms: C_3  and  C_4
REMARK    5  A    between atoms: C_5  and  O_6
REMARK    6  A    between atoms: C_8  and  O_11
REMARK    7  A    between atoms: O_11  and  C_12
REMARK                            x       y       z     vdW  Elec       q    Type
REMARK                         _______ _______ _______ _____ _____    ______ ____
ROOT
ATOM      1  C   LIG A   1      -8.536  -3.245 128.866  0.00  0.00    +0.009 C 
ENDROOT
BRANCH   1   2
ATOM      2  C   LIG A   1      -8.825  -4.120 127.644  0.00  0.00    +0.035 C 
BRANCH   2   3
ATOM      3  C   LIG A   1      -8.700  -3.389 126.315  0.00  0.00    -0.044 A 
ATOM      4  C   LIG A   1      -9.138  -2.056 126.238  0.00  0.00    +0.053 A 
ATOM      5  C   LIG A   1      -9.067  -1.407 125.020  0.00  0.00    +0.167 A 
ATOM      6  C   LIG A   1      -8.572  -2.024 123.896  0.00  0.00    +0.166 A 
ATOM      7  C   LIG A   1      -8.115  -3.319 123.926  0.00  0.00    +0.050 A 
ATOM      8  C   LIG A   1      -8.181  -4.001 125.143  0.00  0.00    +0.007 A 
ATOM      9  O   LIG A   1      -8.605  -1.220 122.800  0.00  0.00    -0.453 OA
ATOM     10  C   LIG A   1      -9.233  -0.044 123.353  0.00  0.00    +0.466 C 
ATOM     11  O   LIG A   1      -9.471  -0.132 124.774  0.00  0.00    -0.453 OA
ENDBRANCH   2   3
ENDBRANCH   1   2
BRANCH   1  12
ATOM     12  C   LIG A   1      -7.051  -3.049 129.175  0.00  0.00    +0.039 C 
BRANCH  12  13
ATOM     13  C   LIG A   1      -6.600  -3.588 130.527  0.00  0.00    -0.006 A 
ATOM     14  C   LIG A   1      -6.928  -3.011 131.762  0.00  0.00    +0.123 A 
ATOM     15  C   LIG A   1      -6.494  -3.562 132.972  0.00  0.00    +0.091 A 
ATOM     16  C   LIG A   1      -5.683  -4.692 132.976  0.00  0.00    +0.124 A 
ATOM     17  C   LIG A   1      -5.301  -5.251 131.758  0.00  0.00    +0.046 A 
ATOM     18  C   LIG A   1      -5.752  -4.707 130.548  0.00  0.00    +0.011 A 
BRANCH  14  19
ATOM     19  O   LIG A   1      -7.677  -1.869 131.815  0.00  0.00    -0.506 OA
ATOM     20  H   LIG A   1      -7.100  -1.101 131.951  0.00  0.00    +0.292 HD
ENDBRANCH  14  19
BRANCH  16  21
ATOM     21  O   LIG A   1      -5.197  -5.317 134.091  0.00  0.00    -0.495 OA
ATOM     22  C   LIG A   1      -3.998  -6.068 133.928  0.00  0.00    +0.277 C 
ENDBRANCH  16  21
ENDBRANCH  12  13
ENDBRANCH   1  12
TORSDOF 6
ENDMDL
MODEL 7
REMARK VINA RESULT:      -6.5      8.416     11.868
REMARK  Name = NuBBE_1073
REMARK  7 active torsions:
REMARK  status: ('A' for Active; 'I' for Inactive)
REMARK    1  A    between atoms: C_1  and  C_2
REMARK    2  A    between atoms: C_1  and  C_13
REMARK    3  A    between atoms: C_2  and  C_3
REMARK    4  A    between atoms: C_3  and  C_4
REMARK    5  A    between atoms: C_5  and  O_6
REMARK    6  A    between atoms: C_8  and  O_11
REMARK    7  A    between atoms: O_11  and  C_12
REMARK                            x       y       z     vdW  Elec       q    Type
REMARK                         _______ _______ _______ _____ _____    ______ ____
ROOT
ATOM      1  C   LIG A   1      -9.431   4.573 130.049  0.00  0.00    +0.009 C 
ENDROOT
BRANCH   1   2
ATOM      2  C   LIG A   1     -10.049   3.425 130.849  0.00  0.00    +0.035 C 
BRANCH   2   3
ATOM      3  C   LIG A   1      -9.286   2.112 130.740  0.00  0.00    -0.044 A 
ATOM      4  C   LIG A   1      -9.293   1.239 131.840  0.00  0.00    +0.053 A 
ATOM      5  C   LIG A   1      -8.564   0.068 131.758  0.00  0.00    +0.167 A 
ATOM      6  C   LIG A   1      -7.849  -0.265 130.632  0.00  0.00    +0.166 A 
ATOM      7  C   LIG A   1      -7.829   0.546 129.524  0.00  0.00    +0.050 A 
ATOM      8  C   LIG A   1      -8.552   1.740 129.583  0.00  0.00    +0.007 A 
ATOM      9  O   LIG A   1      -7.190  -1.447 130.762  0.00  0.00    -0.453 OA
ATOM     10  C   LIG A   1      -7.524  -1.790 132.123  0.00  0.00    +0.466 C 
ATOM     11  O   LIG A   1      -8.446  -0.866 132.740  0.00  0.00    -0.453 OA
ENDBRANCH   2   3
ENDBRANCH   1   2
BRANCH   1  12
ATOM     12  C   LIG A   1      -9.427   5.924 130.768  0.00  0.00    +0.039 C 
BRANCH  12  13
ATOM     13  C   LIG A   1     -10.520   6.889 130.327  0.00  0.00    -0.006 A 
ATOM     14  C   LIG A   1     -11.784   6.986 130.925  0.00  0.00    +0.123 A 
ATOM     15  C   LIG A   1     -12.741   7.904 130.482  0.00  0.00    +0.091 A 
ATOM     16  C   LIG A   1     -12.470   8.729 129.394  0.00  0.00    +0.124 A 
ATOM     17  C   LIG A   1     -11.240   8.612 128.751  0.00  0.00    +0.046 A 
ATOM     18  C   LIG A   1     -10.276   7.704 129.209  0.00  0.00    +0.011 A 
BRANCH  14  19
ATOM     19  O   LIG A   1     -12.123   6.164 131.962  0.00  0.00    -0.506 OA
ATOM     20  H   LIG A   1     -12.976   6.439 132.335  0.00  0.00    +0.292 HD
ENDBRANCH  14  19
BRANCH  16  21
ATOM     21  O   LIG A   1     -13.324   9.660 128.871  0.00  0.00    -0.495 OA
ATOM     22  C   LIG A   1     -13.536  10.836 129.646  0.00  0.00    +0.277 C 
ENDBRANCH  16  21
ENDBRANCH  12  13
ENDBRANCH   1  12
TORSDOF 6
ENDMDL
MODEL 8
REMARK VINA RESULT:      -6.5      1.805      2.734
REMARK  Name = NuBBE_1073
REMARK  7 active torsions:
REMARK  status: ('A' for Active; 'I' for Inactive)
REMARK    1  A    between atoms: C_1  and  C_2
REMARK    2  A    between atoms: C_1  and  C_13
REMARK    3  A    between atoms: C_2  and  C_3
REMARK    4  A    between atoms: C_3  and  C_4
REMARK    5  A    between atoms: C_5  and  O_6
REMARK    6  A    between atoms: C_8  and  O_11
REMARK    7  A    between atoms: O_11  and  C_12
REMARK                            x       y       z     vdW  Elec       q    Type
REMARK                         _______ _______ _______ _____ _____    ______ ____
ROOT
ATOM      1  C   LIG A   1      -7.918   2.217 125.011  0.00  0.00    +0.009 C 
ENDROOT
BRANCH   1   2
ATOM      2  C   LIG A   1      -6.727   2.679 124.169  0.00  0.00    +0.035 C 
BRANCH   2   3
ATOM      3  C   LIG A   1      -7.097   3.124 122.762  0.00  0.00    -0.044 A 
ATOM      4  C   LIG A   1      -6.091   3.663 121.942  0.00  0.00    +0.053 A 
ATOM      5  C   LIG A   1      -6.436   4.109 120.680  0.00  0.00    +0.167 A 
ATOM      6  C   LIG A   1      -7.725   4.027 120.208  0.00  0.00    +0.166 A 
ATOM      7  C   LIG A   1      -8.737   3.490 120.965  0.00  0.00    +0.050 A 
ATOM      8  C   LIG A   1      -8.418   3.038 122.247  0.00  0.00    +0.007 A 
ATOM      9  O   LIG A   1      -7.855   4.535 118.954  0.00  0.00    -0.453 OA
ATOM     10  C   LIG A   1      -6.510   5.000 118.715  0.00  0.00    +0.466 C 
ATOM     11  O   LIG A   1      -5.591   4.677 119.779  0.00  0.00    -0.453 OA
ENDBRANCH   2   3
ENDBRANCH   1   2
BRANCH   1  12
ATOM     12  C   LIG A   1      -7.617   1.055 125.960  0.00  0.00    +0.039 C 
BRANCH  12  13
ATOM     13  C   LIG A   1      -6.972  -0.159 125.304  0.00  0.00    -0.006 A 
ATOM     14  C   LIG A   1      -5.692  -0.643 125.610  0.00  0.00    +0.123 A 
ATOM     15  C   LIG A   1      -5.161  -1.773 124.981  0.00  0.00    +0.091 A 
ATOM     16  C   LIG A   1      -5.886  -2.431 123.993  0.00  0.00    +0.124 A 
ATOM     17  C   LIG A   1      -7.138  -1.936 123.635  0.00  0.00    +0.046 A 
ATOM     18  C   LIG A   1      -7.675  -0.815 124.280  0.00  0.00    +0.011 A 
BRANCH  14  19
ATOM     19  O   LIG A   1      -4.914  -0.004 126.534  0.00  0.00    -0.506 OA
ATOM     20  H   LIG A   1      -4.905   0.950 126.355  0.00  0.00    +0.292 HD
ENDBRANCH  14  19
BRANCH  16  21
ATOM     21  O   LIG A   1      -5.471  -3.540 123.309  0.00  0.00    -0.495 OA
ATOM     22  C   LIG A   1      -4.346  -4.232 123.841  0.00  0.00    +0.277 C 
ENDBRANCH  16  21
ENDBRANCH  12  13
ENDBRANCH   1  12
TORSDOF 6
ENDMDL
MODEL 9
REMARK VINA RESULT:      -6.2      9.314     10.626
REMARK  Name = NuBBE_1073
REMARK  7 active torsions:
REMARK  status: ('A' for Active; 'I' for Inactive)
REMARK    1  A    between atoms: C_1  and  C_2
REMARK    2  A    between atoms: C_1  and  C_13
REMARK    3  A    between atoms: C_2  and  C_3
REMARK    4  A    between atoms: C_3  and  C_4
REMARK    5  A    between atoms: C_5  and  O_6
REMARK    6  A    between atoms: C_8  and  O_11
REMARK    7  A    between atoms: O_11  and  C_12
REMARK                            x       y       z     vdW  Elec       q    Type
REMARK                         _______ _______ _______ _____ _____    ______ ____
ROOT
ATOM      1  C   LIG A   1      -7.810   6.075 132.652  0.00  0.00    +0.009 C 
ENDROOT
BRANCH   1   2
ATOM      2  C   LIG A   1      -9.292   5.724 132.789  0.00  0.00    +0.035 C 
BRANCH   2   3
ATOM      3  C   LIG A   1     -10.179   6.349 131.722  0.00  0.00    -0.044 A 
ATOM      4  C   LIG A   1      -9.573   6.871 130.566  0.00  0.00    +0.053 A 
ATOM      5  C   LIG A   1     -10.373   7.479 129.618  0.00  0.00    +0.167 A 
ATOM      6  C   LIG A   1     -11.736   7.574 129.771  0.00  0.00    +0.166 A 
ATOM      7  C   LIG A   1     -12.376   7.062 130.873  0.00  0.00    +0.050 A 
ATOM      8  C   LIG A   1     -11.590   6.447 131.851  0.00  0.00    +0.007 A 
ATOM      9  O   LIG A   1     -12.334   8.222 128.736  0.00  0.00    -0.453 OA
ATOM     10  C   LIG A   1     -11.182   8.576 127.943  0.00  0.00    +0.466 C 
ATOM     11  O   LIG A   1      -9.942   8.054 128.464  0.00  0.00    -0.453 OA
ENDBRANCH   2   3
ENDBRANCH   1   2
BRANCH   1  12
ATOM     12  C   LIG A   1      -6.898   4.886 132.343  0.00  0.00    +0.039 C 
BRANCH  12  13
ATOM     13  C   LIG A   1      -5.680   5.219 131.489  0.00  0.00    -0.006 A 
ATOM     14  C   LIG A   1      -5.690   5.306 130.090  0.00  0.00    +0.123 A 
ATOM     15  C   LIG A   1      -4.540   5.629 129.363  0.00  0.00    +0.091 A 
ATOM     16  C   LIG A   1      -3.330   5.837 130.020  0.00  0.00    +0.124 A 
ATOM     17  C   LIG A   1      -3.286   5.702 131.406  0.00  0.00    +0.046 A 
ATOM     18  C   LIG A   1      -4.444   5.396 132.133  0.00  0.00    +0.011 A 
BRANCH  14  19
ATOM     19  O   LIG A   1      -6.837   5.060 129.390  0.00  0.00    -0.506 OA
ATOM     20  H   LIG A   1      -7.360   4.379 129.842  0.00  0.00    +0.292 HD
ENDBRANCH  14  19
BRANCH  16  21
ATOM     21  O   LIG A   1      -2.144   6.154 129.419  0.00  0.00    -0.495 OA
ATOM     22  C   LIG A   1      -2.226   6.862 128.185  0.00  0.00    +0.277 C 
ENDBRANCH  16  21
ENDBRANCH  12  13
ENDBRANCH   1  12
TORSDOF 6
ENDMDL
