MODEL 1
REMARK VINA RESULT:      -8.4      0.000      0.000
REMARK  Name = NuBBE_1592
REMARK  11 active torsions:
REMARK  status: ('A' for Active; 'I' for Inactive)
REMARK    1  A    between atoms: C_1  and  O_2
REMARK    2  A    between atoms: O_2  and  C_3
REMARK    3  A    between atoms: C_6  and  C_7
REMARK    4  A    between atoms: C_6  and  C_8
REMARK    5  A    between atoms: C_12  and  O_13
REMARK    6  A    between atoms: O_13  and  C_14
REMARK    7  A    between atoms: C_18  and  C_19
REMARK    8  A    between atoms: C_21  and  O_22
REMARK    9  A    between atoms: O_22  and  C_23
REMARK   10  A    between atoms: C_24  and  O_25
REMARK   11  A    between atoms: O_25  and  C_26
REMARK                            x       y       z     vdW  Elec       q    Type
REMARK                         _______ _______ _______ _____ _____    ______ ____
ROOT
ATOM      1  C   LIG A   1      -8.738   2.158 129.773  0.00  0.00    +0.206 A 
ATOM      2  C   LIG A   1      -7.981   1.033 130.136  0.00  0.00    +0.177 A 
ATOM      3  O   LIG A   1      -7.547   0.245 129.115  0.00  0.00    -0.478 OA
ATOM      4  C   LIG A   1      -6.833  -0.966 129.330  0.00  0.00    +0.124 C 
ATOM      5  C   LIG A   1      -5.502  -0.767 128.599  0.00  0.00    +0.060 C 
ATOM      6  C   LIG A   1      -7.643  -2.067 128.629  0.00  0.00    +0.060 C 
ATOM      7  C   LIG A   1      -6.608  -1.292 130.779  0.00  0.00    +0.020 C 
ATOM      8  C   LIG A   1      -6.976  -0.482 131.779  0.00  0.00    +0.015 C 
ATOM      9  C   LIG A   1      -7.670   0.772 131.473  0.00  0.00    +0.063 A 
ATOM     10  C   LIG A   1      -8.049   1.699 132.468  0.00  0.00    +0.145 A 
ATOM     11  C   LIG A   1      -8.755   2.869 132.111  0.00  0.00    +0.110 A 
ATOM     12  C   LIG A   1      -9.102   3.090 130.762  0.00  0.00    +0.188 A 
ATOM     13  O   LIG A   1      -9.777   4.217 130.350  0.00  0.00    -0.451 OA
ATOM     14  C   LIG A   1     -10.147   5.173 131.280  0.00  0.00    +0.140 A 
ATOM     15  C   LIG A   1      -9.915   5.055 132.595  0.00  0.00    +0.098 A 
ATOM     16  C   LIG A   1      -9.145   3.916 133.071  0.00  0.00    +0.197 A 
ATOM     17  O   LIG A   1      -8.848   3.903 134.280  0.00  0.00    -0.287 OA
ENDROOT
BRANCH  14  18
ATOM     18  C   LIG A   1     -10.811   6.368 130.728  0.00  0.00    +0.021 A 
ATOM     19  C   LIG A   1     -10.335   7.048 129.589  0.00  0.00    +0.061 A 
ATOM     20  C   LIG A   1     -11.044   8.122 129.027  0.00  0.00    +0.162 A 
ATOM     21  C   LIG A   1     -12.246   8.546 129.612  0.00  0.00    +0.162 A 
ATOM     22  C   LIG A   1     -12.722   7.857 130.736  0.00  0.00    +0.050 A 
ATOM     23  C   LIG A   1     -12.016   6.788 131.288  0.00  0.00    +0.015 A 
BRANCH  20  24
ATOM     24  O   LIG A   1     -10.590   8.553 127.806  0.00  0.00    -0.491 OA
ATOM     25  C   LIG A   1     -10.941   7.731 126.698  0.00  0.00    +0.277 C 
ENDBRANCH  20  24
BRANCH  21  26
ATOM     26  O   LIG A   1     -12.964   9.552 129.015  0.00  0.00    -0.491 OA
ATOM     27  C   LIG A   1     -13.357  10.609 129.894  0.00  0.00    +0.277 C 
ENDBRANCH  21  26
ENDBRANCH  14  18
BRANCH   1  29
ATOM     28  C   LIG A   1      -8.137   2.999 127.626  0.00  0.00    +0.277 C 
ATOM     29  O   LIG A   1      -9.137   2.415 128.474  0.00  0.00    -0.488 OA
ENDBRANCH   1  29
BRANCH  10  30
ATOM     30  O   LIG A   1      -7.539   1.487 133.726  0.00  0.00    -0.494 OA
ATOM     31  C   LIG A   1      -6.201   1.943 133.917  0.00  0.00    +0.277 C 
ENDBRANCH  10  30
TORSDOF 5
ENDMDL
MODEL 2
REMARK VINA RESULT:      -7.9      2.632      4.270
REMARK  Name = NuBBE_1592
REMARK  11 active torsions:
REMARK  status: ('A' for Active; 'I' for Inactive)
REMARK    1  A    between atoms: C_1  and  O_2
REMARK    2  A    between atoms: O_2  and  C_3
REMARK    3  A    between atoms: C_6  and  C_7
REMARK    4  A    between atoms: C_6  and  C_8
REMARK    5  A    between atoms: C_12  and  O_13
REMARK    6  A    between atoms: O_13  and  C_14
REMARK    7  A    between atoms: C_18  and  C_19
REMARK    8  A    between atoms: C_21  and  O_22
REMARK    9  A    between atoms: O_22  and  C_23
REMARK   10  A    between atoms: C_24  and  O_25
REMARK   11  A    between atoms: O_25  and  C_26
REMARK                            x       y       z     vdW  Elec       q    Type
REMARK                         _______ _______ _______ _____ _____    ______ ____
ROOT
ATOM      1  C   LIG A   1      -8.686   0.681 126.369  0.00  0.00    +0.206 A 
ATOM      2  C   LIG A   1      -8.035  -0.466 125.887  0.00  0.00    +0.177 A 
ATOM      3  O   LIG A   1      -8.189  -0.733 124.562  0.00  0.00    -0.478 OA
ATOM      4  C   LIG A   1      -7.651  -1.896 123.946  0.00  0.00    +0.124 C 
ATOM      5  C   LIG A   1      -6.726  -1.362 122.849  0.00  0.00    +0.060 C 
ATOM      6  C   LIG A   1      -8.840  -2.626 123.302  0.00  0.00    +0.060 C 
ATOM      7  C   LIG A   1      -6.903  -2.796 124.889  0.00  0.00    +0.020 C 
ATOM      8  C   LIG A   1      -6.694  -2.496 126.177  0.00  0.00    +0.015 C 
ATOM      9  C   LIG A   1      -7.246  -1.255 126.728  0.00  0.00    +0.063 A 
ATOM     10  C   LIG A   1      -7.031  -0.848 128.062  0.00  0.00    +0.145 A 
ATOM     11  C   LIG A   1      -7.627   0.338 128.544  0.00  0.00    +0.110 A 
ATOM     12  C   LIG A   1      -8.458   1.095 127.694  0.00  0.00    +0.188 A 
ATOM     13  O   LIG A   1      -9.057   2.266 128.101  0.00  0.00    -0.451 OA
ATOM     14  C   LIG A   1      -8.855   2.727 129.391  0.00  0.00    +0.140 A 
ATOM     15  C   LIG A   1      -8.124   2.074 130.304  0.00  0.00    +0.098 A 
ATOM     16  C   LIG A   1      -7.417   0.867 129.902  0.00  0.00    +0.197 A 
ATOM     17  O   LIG A   1      -6.655   0.355 130.743  0.00  0.00    -0.287 OA
ENDROOT
BRANCH  14  18
ATOM     18  C   LIG A   1      -9.490   4.020 129.706  0.00  0.00    +0.021 A 
ATOM     19  C   LIG A   1      -9.248   5.191 128.962  0.00  0.00    +0.061 A 
ATOM     20  C   LIG A   1      -9.943   6.383 129.222  0.00  0.00    +0.162 A 
ATOM     21  C   LIG A   1     -10.892   6.425 130.254  0.00  0.00    +0.162 A 
ATOM     22  C   LIG A   1     -11.139   5.253 130.982  0.00  0.00    +0.050 A 
ATOM     23  C   LIG A   1     -10.449   4.071 130.716  0.00  0.00    +0.015 A 
BRANCH  20  24
ATOM     24  O   LIG A   1      -9.773   7.380 128.295  0.00  0.00    -0.491 OA
ATOM     25  C   LIG A   1     -10.591   7.282 127.134  0.00  0.00    +0.277 C 
ENDBRANCH  20  24
BRANCH  21  26
ATOM     26  O   LIG A   1     -11.613   7.575 130.456  0.00  0.00    -0.491 OA
ATOM     27  C   LIG A   1     -12.864   7.388 131.124  0.00  0.00    +0.277 C 
ENDBRANCH  21  26
ENDBRANCH  14  18
BRANCH   1  29
ATOM     28  C   LIG A   1      -8.899   2.404 124.737  0.00  0.00    +0.277 C 
ATOM     29  O   LIG A   1      -9.538   1.449 125.595  0.00  0.00    -0.488 OA
ENDBRANCH   1  29
BRANCH  10  30
ATOM     30  O   LIG A   1      -6.088  -1.554 128.771  0.00  0.00    -0.494 OA
ATOM     31  C   LIG A   1      -6.586  -2.700 129.458  0.00  0.00    +0.277 C 
ENDBRANCH  10  30
TORSDOF 5
ENDMDL
MODEL 3
REMARK VINA RESULT:      -7.7      4.863     10.057
REMARK  Name = NuBBE_1592
REMARK  11 active torsions:
REMARK  status: ('A' for Active; 'I' for Inactive)
REMARK    1  A    between atoms: C_1  and  O_2
REMARK    2  A    between atoms: O_2  and  C_3
REMARK    3  A    between atoms: C_6  and  C_7
REMARK    4  A    between atoms: C_6  and  C_8
REMARK    5  A    between atoms: C_12  and  O_13
REMARK    6  A    between atoms: O_13  and  C_14
REMARK    7  A    between atoms: C_18  and  C_19
REMARK    8  A    between atoms: C_21  and  O_22
REMARK    9  A    between atoms: O_22  and  C_23
REMARK   10  A    between atoms: C_24  and  O_25
REMARK   11  A    between atoms: O_25  and  C_26
REMARK                            x       y       z     vdW  Elec       q    Type
REMARK                         _______ _______ _______ _____ _____    ______ ____
ROOT
ATOM      1  C   LIG A   1      -7.204   0.626 127.591  0.00  0.00    +0.206 A 
ATOM      2  C   LIG A   1      -7.597   1.280 126.412  0.00  0.00    +0.177 A 
ATOM      3  O   LIG A   1      -7.105   2.536 126.229  0.00  0.00    -0.478 OA
ATOM      4  C   LIG A   1      -7.471   3.350 125.121  0.00  0.00    +0.124 C 
ATOM      5  C   LIG A   1      -6.150   3.659 124.413  0.00  0.00    +0.060 C 
ATOM      6  C   LIG A   1      -8.049   4.643 125.716  0.00  0.00    +0.060 C 
ATOM      7  C   LIG A   1      -8.446   2.698 124.181  0.00  0.00    +0.020 C 
ATOM      8  C   LIG A   1      -8.874   1.438 124.327  0.00  0.00    +0.015 C 
ATOM      9  C   LIG A   1      -8.416   0.648 125.474  0.00  0.00    +0.063 A 
ATOM     10  C   LIG A   1      -8.787  -0.699 125.672  0.00  0.00    +0.145 A 
ATOM     11  C   LIG A   1      -8.347  -1.392 126.821  0.00  0.00    +0.110 A 
ATOM     12  C   LIG A   1      -7.560  -0.722 127.780  0.00  0.00    +0.188 A 
ATOM     13  O   LIG A   1      -7.089  -1.345 128.913  0.00  0.00    -0.451 OA
ATOM     14  C   LIG A   1      -7.399  -2.676 129.142  0.00  0.00    +0.140 A 
ATOM     15  C   LIG A   1      -8.174  -3.405 128.329  0.00  0.00    +0.098 A 
ATOM     16  C   LIG A   1      -8.640  -2.810 127.085  0.00  0.00    +0.197 A 
ATOM     17  O   LIG A   1      -9.257  -3.556 126.301  0.00  0.00    -0.287 OA
ENDROOT
BRANCH  14  18
ATOM     18  C   LIG A   1      -6.796  -3.265 130.352  0.00  0.00    +0.021 A 
ATOM     19  C   LIG A   1      -7.088  -2.806 131.652  0.00  0.00    +0.061 A 
ATOM     20  C   LIG A   1      -6.577  -3.452 132.789  0.00  0.00    +0.162 A 
ATOM     21  C   LIG A   1      -5.744  -4.570 132.641  0.00  0.00    +0.162 A 
ATOM     22  C   LIG A   1      -5.468  -5.030 131.346  0.00  0.00    +0.050 A 
ATOM     23  C   LIG A   1      -5.982  -4.388 130.220  0.00  0.00    +0.015 A 
BRANCH  20  24
ATOM     24  O   LIG A   1      -7.106  -3.042 133.987  0.00  0.00    -0.491 OA
ATOM     25  C   LIG A   1      -8.410  -3.533 134.279  0.00  0.00    +0.277 C 
ENDBRANCH  20  24
BRANCH  21  26
ATOM     26  O   LIG A   1      -5.304  -5.232 133.760  0.00  0.00    -0.491 OA
ATOM     27  C   LIG A   1      -4.018  -5.843 133.628  0.00  0.00    +0.277 C 
ENDBRANCH  21  26
ENDBRANCH  14  18
BRANCH   1  29
ATOM     28  C   LIG A   1      -7.216   1.969 129.559  0.00  0.00    +0.277 C 
ATOM     29  O   LIG A   1      -6.459   1.237 128.584  0.00  0.00    -0.488 OA
ENDBRANCH   1  29
BRANCH  10  30
ATOM     30  O   LIG A   1      -9.420  -1.319 124.621  0.00  0.00    -0.494 OA
ATOM     31  C   LIG A   1      -8.557  -1.757 123.573  0.00  0.00    +0.277 C 
ENDBRANCH  10  30
TORSDOF 5
ENDMDL
MODEL 4
REMARK VINA RESULT:      -7.5      4.938      7.721
REMARK  Name = NuBBE_1592
REMARK  11 active torsions:
REMARK  status: ('A' for Active; 'I' for Inactive)
REMARK    1  A    between atoms: C_1  and  O_2
REMARK    2  A    between atoms: O_2  and  C_3
REMARK    3  A    between atoms: C_6  and  C_7
REMARK    4  A    between atoms: C_6  and  C_8
REMARK    5  A    between atoms: C_12  and  O_13
REMARK    6  A    between atoms: O_13  and  C_14
REMARK    7  A    between atoms: C_18  and  C_19
REMARK    8  A    between atoms: C_21  and  O_22
REMARK    9  A    between atoms: O_22  and  C_23
REMARK   10  A    between atoms: C_24  and  O_25
REMARK   11  A    between atoms: O_25  and  C_26
REMARK                            x       y       z     vdW  Elec       q    Type
REMARK                         _______ _______ _______ _____ _____    ______ ____
ROOT
ATOM      1  C   LIG A   1      -4.336   5.224 128.841  0.00  0.00    +0.206 A 
ATOM      2  C   LIG A   1      -4.285   5.566 130.202  0.00  0.00    +0.177 A 
ATOM      3  O   LIG A   1      -3.155   6.200 130.620  0.00  0.00    -0.478 OA
ATOM      4  C   LIG A   1      -2.927   6.543 131.981  0.00  0.00    +0.124 C 
ATOM      5  C   LIG A   1      -2.743   8.063 131.973  0.00  0.00    +0.060 C 
ATOM      6  C   LIG A   1      -1.603   5.870 132.373  0.00  0.00    +0.060 C 
ATOM      7  C   LIG A   1      -4.040   6.141 132.907  0.00  0.00    +0.020 C 
ATOM      8  C   LIG A   1      -5.179   5.580 132.483  0.00  0.00    +0.015 C 
ATOM      9  C   LIG A   1      -5.357   5.296 131.056  0.00  0.00    +0.063 A 
ATOM     10  C   LIG A   1      -6.545   4.748 130.528  0.00  0.00    +0.145 A 
ATOM     11  C   LIG A   1      -6.636   4.457 129.148  0.00  0.00    +0.110 A 
ATOM     12  C   LIG A   1      -5.526   4.693 128.311  0.00  0.00    +0.188 A 
ATOM     13  O   LIG A   1      -5.558   4.443 126.958  0.00  0.00    -0.451 OA
ATOM     14  C   LIG A   1      -6.709   3.933 126.382  0.00  0.00    +0.140 A 
ATOM     15  C   LIG A   1      -7.812   3.626 127.079  0.00  0.00    +0.098 A 
ATOM     16  C   LIG A   1      -7.850   3.935 128.500  0.00  0.00    +0.197 A 
ATOM     17  O   LIG A   1      -8.932   3.746 129.088  0.00  0.00    -0.287 OA
ENDROOT
BRANCH  14  18
ATOM     18  C   LIG A   1      -6.659   3.759 124.919  0.00  0.00    +0.021 A 
ATOM     19  C   LIG A   1      -7.720   3.201 124.179  0.00  0.00    +0.061 A 
ATOM     20  C   LIG A   1      -7.685   3.141 122.777  0.00  0.00    +0.162 A 
ATOM     21  C   LIG A   1      -6.567   3.630 122.086  0.00  0.00    +0.162 A 
ATOM     22  C   LIG A   1      -5.520   4.197 122.825  0.00  0.00    +0.050 A 
ATOM     23  C   LIG A   1      -5.563   4.259 124.218  0.00  0.00    +0.015 A 
BRANCH  20  24
ATOM     24  O   LIG A   1      -8.862   2.776 122.173  0.00  0.00    -0.491 OA
ATOM     25  C   LIG A   1      -9.540   1.675 122.768  0.00  0.00    +0.277 C 
ENDBRANCH  20  24
BRANCH  21  26
ATOM     26  O   LIG A   1      -6.572   3.627 120.713  0.00  0.00    -0.491 OA
ATOM     27  C   LIG A   1      -5.721   4.604 120.109  0.00  0.00    +0.277 C 
ENDBRANCH  21  26
ENDBRANCH  14  18
BRANCH   1  29
ATOM     28  C   LIG A   1      -2.444   4.245 127.775  0.00  0.00    +0.277 C 
ATOM     29  O   LIG A   1      -3.272   5.400 127.976  0.00  0.00    -0.488 OA
ENDBRANCH   1  29
BRANCH  10  30
ATOM     30  O   LIG A   1      -7.625   4.697 131.376  0.00  0.00    -0.494 OA
ATOM     31  C   LIG A   1      -8.311   5.935 131.551  0.00  0.00    +0.277 C 
ENDBRANCH  10  30
TORSDOF 5
ENDMDL
MODEL 5
REMARK VINA RESULT:      -7.4      2.556      8.448
REMARK  Name = NuBBE_1592
REMARK  11 active torsions:
REMARK  status: ('A' for Active; 'I' for Inactive)
REMARK    1  A    between atoms: C_1  and  O_2
REMARK    2  A    between atoms: O_2  and  C_3
REMARK    3  A    between atoms: C_6  and  C_7
REMARK    4  A    between atoms: C_6  and  C_8
REMARK    5  A    between atoms: C_12  and  O_13
REMARK    6  A    between atoms: O_13  and  C_14
REMARK    7  A    between atoms: C_18  and  C_19
REMARK    8  A    between atoms: C_21  and  O_22
REMARK    9  A    between atoms: O_22  and  C_23
REMARK   10  A    between atoms: C_24  and  O_25
REMARK   11  A    between atoms: O_25  and  C_26
REMARK                            x       y       z     vdW  Elec       q    Type
REMARK                         _______ _______ _______ _____ _____    ______ ____
ROOT
ATOM      1  C   LIG A   1      -8.584   2.853 129.004  0.00  0.00    +0.206 A 
ATOM      2  C   LIG A   1      -9.041   3.695 130.031  0.00  0.00    +0.177 A 
ATOM      3  O   LIG A   1      -9.698   4.820 129.638  0.00  0.00    -0.478 OA
ATOM      4  C   LIG A   1     -10.155   5.804 130.558  0.00  0.00    +0.124 C 
ATOM      5  C   LIG A   1     -11.666   5.879 130.328  0.00  0.00    +0.060 C 
ATOM      6  C   LIG A   1      -9.504   7.126 130.125  0.00  0.00    +0.060 C 
ATOM      7  C   LIG A   1      -9.844   5.486 131.994  0.00  0.00    +0.020 C 
ATOM      8  C   LIG A   1      -9.260   4.347 132.383  0.00  0.00    +0.015 C 
ATOM      9  C   LIG A   1      -8.857   3.361 131.375  0.00  0.00    +0.063 A 
ATOM     10  C   LIG A   1      -8.277   2.119 131.709  0.00  0.00    +0.145 A 
ATOM     11  C   LIG A   1      -7.870   1.232 130.688  0.00  0.00    +0.110 A 
ATOM     12  C   LIG A   1      -8.021   1.607 129.338  0.00  0.00    +0.188 A 
ATOM     13  O   LIG A   1      -7.656   0.782 128.298  0.00  0.00    -0.451 OA
ATOM     14  C   LIG A   1      -7.110  -0.461 128.569  0.00  0.00    +0.140 A 
ATOM     15  C   LIG A   1      -6.875  -0.912 129.809  0.00  0.00    +0.098 A 
ATOM     16  C   LIG A   1      -7.305  -0.104 130.941  0.00  0.00    +0.197 A 
ATOM     17  O   LIG A   1      -7.178  -0.609 132.073  0.00  0.00    -0.287 OA
ENDROOT
BRANCH  14  18
ATOM     18  C   LIG A   1      -6.811  -1.291 127.388  0.00  0.00    +0.021 A 
ATOM     19  C   LIG A   1      -7.687  -2.286 126.911  0.00  0.00    +0.061 A 
ATOM     20  C   LIG A   1      -7.422  -2.990 125.725  0.00  0.00    +0.162 A 
ATOM     21  C   LIG A   1      -6.254  -2.717 124.999  0.00  0.00    +0.162 A 
ATOM     22  C   LIG A   1      -5.393  -1.717 125.470  0.00  0.00    +0.050 A 
ATOM     23  C   LIG A   1      -5.664  -1.017 126.646  0.00  0.00    +0.015 A 
BRANCH  20  24
ATOM     24  O   LIG A   1      -8.451  -3.770 125.261  0.00  0.00    -0.491 OA
ATOM     25  C   LIG A   1      -9.360  -3.122 124.377  0.00  0.00    +0.277 C 
ENDBRANCH  20  24
BRANCH  21  26
ATOM     26  O   LIG A   1      -6.039  -3.364 123.808  0.00  0.00    -0.491 OA
ATOM     27  C   LIG A   1      -4.680  -3.360 123.361  0.00  0.00    +0.277 C 
ENDBRANCH  21  26
ENDBRANCH  14  18
BRANCH   1  29
ATOM     28  C   LIG A   1      -7.571   3.927 127.135  0.00  0.00    +0.277 C 
ATOM     29  O   LIG A   1      -8.674   3.177 127.663  0.00  0.00    -0.488 OA
ENDBRANCH   1  29
BRANCH  10  30
ATOM     30  O   LIG A   1      -8.310   1.767 133.037  0.00  0.00    -0.494 OA
ATOM     31  C   LIG A   1      -7.176   2.179 133.797  0.00  0.00    +0.277 C 
ENDBRANCH  10  30
TORSDOF 5
ENDMDL
MODEL 6
REMARK VINA RESULT:      -7.4      5.873      8.205
REMARK  Name = NuBBE_1592
REMARK  11 active torsions:
REMARK  status: ('A' for Active; 'I' for Inactive)
REMARK    1  A    between atoms: C_1  and  O_2
REMARK    2  A    between atoms: O_2  and  C_3
REMARK    3  A    between atoms: C_6  and  C_7
REMARK    4  A    between atoms: C_6  and  C_8
REMARK    5  A    between atoms: C_12  and  O_13
REMARK    6  A    between atoms: O_13  and  C_14
REMARK    7  A    between atoms: C_18  and  C_19
REMARK    8  A    between atoms: C_21  and  O_22
REMARK    9  A    between atoms: O_22  and  C_23
REMARK   10  A    between atoms: C_24  and  O_25
REMARK   11  A    between atoms: O_25  and  C_26
REMARK                            x       y       z     vdW  Elec       q    Type
REMARK                         _______ _______ _______ _____ _____    ______ ____
ROOT
ATOM      1  C   LIG A   1      -6.040   0.493 126.282  0.00  0.00    +0.206 A 
ATOM      2  C   LIG A   1      -6.808  -0.203 125.335  0.00  0.00    +0.177 A 
ATOM      3  O   LIG A   1      -7.233  -1.443 125.700  0.00  0.00    -0.478 OA
ATOM      4  C   LIG A   1      -7.956  -2.297 124.821  0.00  0.00    +0.124 C 
ATOM      5  C   LIG A   1      -9.275  -2.573 125.547  0.00  0.00    +0.060 C 
ATOM      6  C   LIG A   1      -7.142  -3.596 124.725  0.00  0.00    +0.060 C 
ATOM      7  C   LIG A   1      -8.203  -1.704 123.462  0.00  0.00    +0.020 C 
ATOM      8  C   LIG A   1      -7.845  -0.458 123.129  0.00  0.00    +0.015 C 
ATOM      9  C   LIG A   1      -7.139   0.376 124.107  0.00  0.00    +0.063 A 
ATOM     10  C   LIG A   1      -6.769   1.712 123.847  0.00  0.00    +0.145 A 
ATOM     11  C   LIG A   1      -6.052   2.448 124.816  0.00  0.00    +0.110 A 
ATOM     12  C   LIG A   1      -5.686   1.831 126.029  0.00  0.00    +0.188 A 
ATOM     13  O   LIG A   1      -4.999   2.499 127.018  0.00  0.00    -0.451 OA
ATOM     14  C   LIG A   1      -4.636   3.822 126.827  0.00  0.00    +0.140 A 
ATOM     15  C   LIG A   1      -4.887   4.502 125.700  0.00  0.00    +0.098 A 
ATOM     16  C   LIG A   1      -5.669   3.861 124.654  0.00  0.00    +0.197 A 
ATOM     17  O   LIG A   1      -5.983   4.564 123.675  0.00  0.00    -0.287 OA
ENDROOT
BRANCH  14  18
ATOM     18  C   LIG A   1      -3.959   4.462 127.969  0.00  0.00    +0.021 A 
ATOM     19  C   LIG A   1      -4.078   3.989 129.291  0.00  0.00    +0.061 A 
ATOM     20  C   LIG A   1      -3.341   4.557 130.342  0.00  0.00    +0.162 A 
ATOM     21  C   LIG A   1      -2.476   5.630 130.087  0.00  0.00    +0.162 A 
ATOM     22  C   LIG A   1      -2.350   6.088 128.768  0.00  0.00    +0.050 A 
ATOM     23  C   LIG A   1      -3.081   5.517 127.726  0.00  0.00    +0.015 A 
BRANCH  20  24
ATOM     24  O   LIG A   1      -3.383   3.871 131.530  0.00  0.00    -0.491 OA
ATOM     25  C   LIG A   1      -4.473   4.196 132.386  0.00  0.00    +0.277 C 
ENDBRANCH  20  24
BRANCH  21  26
ATOM     26  O   LIG A   1      -1.711   6.134 131.109  0.00  0.00    -0.491 OA
ATOM     27  C   LIG A   1      -2.291   7.244 131.799  0.00  0.00    +0.277 C 
ENDBRANCH  21  26
ENDBRANCH  14  18
BRANCH   1  29
ATOM     28  C   LIG A   1      -6.554   0.037 128.564  0.00  0.00    +0.277 C 
ATOM     29  O   LIG A   1      -5.623  -0.065 127.477  0.00  0.00    -0.488 OA
ENDBRANCH   1  29
BRANCH  10  30
ATOM     30  O   LIG A   1      -7.298   2.283 122.714  0.00  0.00    -0.494 OA
ATOM     31  C   LIG A   1      -8.652   2.713 122.833  0.00  0.00    +0.277 C 
ENDBRANCH  10  30
TORSDOF 5
ENDMDL
MODEL 7
REMARK VINA RESULT:      -7.2      2.366      4.925
REMARK  Name = NuBBE_1592
REMARK  11 active torsions:
REMARK  status: ('A' for Active; 'I' for Inactive)
REMARK    1  A    between atoms: C_1  and  O_2
REMARK    2  A    between atoms: O_2  and  C_3
REMARK    3  A    between atoms: C_6  and  C_7
REMARK    4  A    between atoms: C_6  and  C_8
REMARK    5  A    between atoms: C_12  and  O_13
REMARK    6  A    between atoms: O_13  and  C_14
REMARK    7  A    between atoms: C_18  and  C_19
REMARK    8  A    between atoms: C_21  and  O_22
REMARK    9  A    between atoms: O_22  and  C_23
REMARK   10  A    between atoms: C_24  and  O_25
REMARK   11  A    between atoms: O_25  and  C_26
REMARK                            x       y       z     vdW  Elec       q    Type
REMARK                         _______ _______ _______ _____ _____    ______ ____
ROOT
ATOM      1  C   LIG A   1      -7.204  -0.491 132.360  0.00  0.00    +0.206 A 
ATOM      2  C   LIG A   1      -6.755  -1.821 132.313  0.00  0.00    +0.177 A 
ATOM      3  O   LIG A   1      -6.532  -2.422 133.513  0.00  0.00    -0.478 OA
ATOM      4  C   LIG A   1      -6.006  -3.739 133.627  0.00  0.00    +0.124 C 
ATOM      5  C   LIG A   1      -7.070  -4.516 134.407  0.00  0.00    +0.060 C 
ATOM      6  C   LIG A   1      -4.733  -3.617 134.478  0.00  0.00    +0.060 C 
ATOM      7  C   LIG A   1      -5.720  -4.397 132.306  0.00  0.00    +0.020 C 
ATOM      8  C   LIG A   1      -6.004  -3.829 131.128  0.00  0.00    +0.015 C 
ATOM      9  C   LIG A   1      -6.586  -2.484 131.096  0.00  0.00    +0.063 A 
ATOM     10  C   LIG A   1      -6.954  -1.838 129.896  0.00  0.00    +0.145 A 
ATOM     11  C   LIG A   1      -7.469  -0.524 129.931  0.00  0.00    +0.110 A 
ATOM     12  C   LIG A   1      -7.587   0.147 131.165  0.00  0.00    +0.188 A 
ATOM     13  O   LIG A   1      -8.094   1.423 131.266  0.00  0.00    -0.451 OA
ATOM     14  C   LIG A   1      -8.498   2.092 130.123  0.00  0.00    +0.140 A 
ATOM     15  C   LIG A   1      -8.394   1.578 128.890  0.00  0.00    +0.098 A 
ATOM     16  C   LIG A   1      -7.928   0.209 128.738  0.00  0.00    +0.197 A 
ATOM     17  O   LIG A   1      -7.958  -0.273 127.590  0.00  0.00    -0.287 OA
ENDROOT
BRANCH  14  18
ATOM     18  C   LIG A   1      -9.081   3.427 130.347  0.00  0.00    +0.021 A 
ATOM     19  C   LIG A   1      -8.302   4.598 130.423  0.00  0.00    +0.061 A 
ATOM     20  C   LIG A   1      -8.894   5.867 130.536  0.00  0.00    +0.162 A 
ATOM     21  C   LIG A   1     -10.290   5.982 130.589  0.00  0.00    +0.162 A 
ATOM     22  C   LIG A   1     -11.061   4.816 130.499  0.00  0.00    +0.050 A 
ATOM     23  C   LIG A   1     -10.468   3.558 130.382  0.00  0.00    +0.015 A 
BRANCH  20  24
ATOM     24  O   LIG A   1      -8.040   6.930 130.384  0.00  0.00    -0.491 OA
ATOM     25  C   LIG A   1      -6.855   6.882 131.172  0.00  0.00    +0.277 C 
ENDBRANCH  20  24
BRANCH  21  26
ATOM     26  O   LIG A   1     -10.858   7.231 130.632  0.00  0.00    -0.491 OA
ATOM     27  C   LIG A   1     -11.350   7.708 129.377  0.00  0.00    +0.277 C 
ENDBRANCH  21  26
ENDBRANCH  14  18
BRANCH   1  29
ATOM     28  C   LIG A   1      -6.117   0.906 133.954  0.00  0.00    +0.277 C 
ATOM     29  O   LIG A   1      -7.312   0.231 133.535  0.00  0.00    -0.488 OA
ENDBRANCH   1  29
BRANCH  10  30
ATOM     30  O   LIG A   1      -6.956  -2.613 128.761  0.00  0.00    -0.494 OA
ATOM     31  C   LIG A   1      -8.106  -3.440 128.598  0.00  0.00    +0.277 C 
ENDBRANCH  10  30
TORSDOF 5
ENDMDL
MODEL 8
REMARK VINA RESULT:      -7.1      4.010      7.933
REMARK  Name = NuBBE_1592
REMARK  11 active torsions:
REMARK  status: ('A' for Active; 'I' for Inactive)
REMARK    1  A    between atoms: C_1  and  O_2
REMARK    2  A    between atoms: O_2  and  C_3
REMARK    3  A    between atoms: C_6  and  C_7
REMARK    4  A    between atoms: C_6  and  C_8
REMARK    5  A    between atoms: C_12  and  O_13
REMARK    6  A    between atoms: O_13  and  C_14
REMARK    7  A    between atoms: C_18  and  C_19
REMARK    8  A    between atoms: C_21  and  O_22
REMARK    9  A    between atoms: O_22  and  C_23
REMARK   10  A    between atoms: C_24  and  O_25
REMARK   11  A    between atoms: O_25  and  C_26
REMARK                            x       y       z     vdW  Elec       q    Type
REMARK                         _______ _______ _______ _____ _____    ______ ____
ROOT
ATOM      1  C   LIG A   1      -5.327   4.062 128.763  0.00  0.00    +0.206 A 
ATOM      2  C   LIG A   1      -5.011   5.200 129.522  0.00  0.00    +0.177 A 
ATOM      3  O   LIG A   1      -3.847   5.830 129.205  0.00  0.00    -0.478 OA
ATOM      4  C   LIG A   1      -3.358   6.951 129.932  0.00  0.00    +0.124 C 
ATOM      5  C   LIG A   1      -3.243   8.068 128.891  0.00  0.00    +0.060 C 
ATOM      6  C   LIG A   1      -1.955   6.561 130.422  0.00  0.00    +0.060 C 
ATOM      7  C   LIG A   1      -4.240   7.369 131.075  0.00  0.00    +0.020 C 
ATOM      8  C   LIG A   1      -5.417   6.791 131.341  0.00  0.00    +0.015 C 
ATOM      9  C   LIG A   1      -5.873   5.667 130.518  0.00  0.00    +0.063 A 
ATOM     10  C   LIG A   1      -7.121   5.035 130.708  0.00  0.00    +0.145 A 
ATOM     11  C   LIG A   1      -7.482   3.928 129.909  0.00  0.00    +0.110 A 
ATOM     12  C   LIG A   1      -6.578   3.443 128.942  0.00  0.00    +0.188 A 
ATOM     13  O   LIG A   1      -6.877   2.377 128.123  0.00  0.00    -0.451 OA
ATOM     14  C   LIG A   1      -8.099   1.739 128.247  0.00  0.00    +0.140 A 
ATOM     15  C   LIG A   1      -9.022   2.079 129.158  0.00  0.00    +0.098 A 
ATOM     16  C   LIG A   1      -8.780   3.241 130.000  0.00  0.00    +0.197 A 
ATOM     17  O   LIG A   1      -9.710   3.596 130.749  0.00  0.00    -0.287 OA
ENDROOT
BRANCH  14  18
ATOM     18  C   LIG A   1      -8.344   0.650 127.284  0.00  0.00    +0.021 A 
ATOM     19  C   LIG A   1      -7.858  -0.659 127.471  0.00  0.00    +0.061 A 
ATOM     20  C   LIG A   1      -8.192  -1.698 126.588  0.00  0.00    +0.162 A 
ATOM     21  C   LIG A   1      -9.014  -1.437 125.483  0.00  0.00    +0.162 A 
ATOM     22  C   LIG A   1      -9.506  -0.136 125.309  0.00  0.00    +0.050 A 
ATOM     23  C   LIG A   1      -9.175   0.892 126.192  0.00  0.00    +0.015 A 
BRANCH  20  24
ATOM     24  O   LIG A   1      -7.835  -2.958 126.999  0.00  0.00    -0.491 OA
ATOM     25  C   LIG A   1      -8.624  -3.505 128.050  0.00  0.00    +0.277 C 
ENDBRANCH  20  24
BRANCH  21  26
ATOM     26  O   LIG A   1      -9.387  -2.474 124.665  0.00  0.00    -0.491 OA
ATOM     27  C   LIG A   1      -8.946  -2.356 123.310  0.00  0.00    +0.277 C 
ENDBRANCH  21  26
ENDBRANCH  14  18
BRANCH   1  29
ATOM     28  C   LIG A   1      -4.549   4.097 126.512  0.00  0.00    +0.277 C 
ATOM     29  O   LIG A   1      -4.472   3.518 127.822  0.00  0.00    -0.488 OA
ENDBRANCH   1  29
BRANCH  10  30
ATOM     30  O   LIG A   1      -8.000   5.664 131.557  0.00  0.00    -0.494 OA
ATOM     31  C   LIG A   1      -8.699   6.770 130.989  0.00  0.00    +0.277 C 
ENDBRANCH  10  30
TORSDOF 5
ENDMDL
MODEL 9
REMARK VINA RESULT:      -7.1      4.364      8.177
REMARK  Name = NuBBE_1592
REMARK  11 active torsions:
REMARK  status: ('A' for Active; 'I' for Inactive)
REMARK    1  A    between atoms: C_1  and  O_2
REMARK    2  A    between atoms: O_2  and  C_3
REMARK    3  A    between atoms: C_6  and  C_7
REMARK    4  A    between atoms: C_6  and  C_8
REMARK    5  A    between atoms: C_12  and  O_13
REMARK    6  A    between atoms: O_13  and  C_14
REMARK    7  A    between atoms: C_18  and  C_19
REMARK    8  A    between atoms: C_21  and  O_22
REMARK    9  A    between atoms: O_22  and  C_23
REMARK   10  A    between atoms: C_24  and  O_25
REMARK   11  A    between atoms: O_25  and  C_26
REMARK                            x       y       z     vdW  Elec       q    Type
REMARK                         _______ _______ _______ _____ _____    ______ ____
ROOT
ATOM      1  C   LIG A   1      -5.232   4.093 128.390  0.00  0.00    +0.206 A 
ATOM      2  C   LIG A   1      -5.159   5.133 129.330  0.00  0.00    +0.177 A 
ATOM      3  O   LIG A   1      -4.058   5.930 129.260  0.00  0.00    -0.478 OA
ATOM      4  C   LIG A   1      -3.808   6.977 130.189  0.00  0.00    +0.124 C 
ATOM      5  C   LIG A   1      -3.718   8.243 129.333  0.00  0.00    +0.060 C 
ATOM      6  C   LIG A   1      -2.435   6.679 130.809  0.00  0.00    +0.060 C 
ATOM      7  C   LIG A   1      -4.866   7.119 131.248  0.00  0.00    +0.020 C 
ATOM      8  C   LIG A   1      -5.981   6.379 131.273  0.00  0.00    +0.015 C 
ATOM      9  C   LIG A   1      -6.186   5.347 130.253  0.00  0.00    +0.063 A 
ATOM     10  C   LIG A   1      -7.354   4.558 130.187  0.00  0.00    +0.145 A 
ATOM     11  C   LIG A   1      -7.471   3.549 129.205  0.00  0.00    +0.110 A 
ATOM     12  C   LIG A   1      -6.404   3.318 128.313  0.00  0.00    +0.188 A 
ATOM     13  O   LIG A   1      -6.463   2.359 127.327  0.00  0.00    -0.451 OA
ATOM     14  C   LIG A   1      -7.598   1.577 127.198  0.00  0.00    +0.140 A 
ATOM     15  C   LIG A   1      -8.658   1.671 128.012  0.00  0.00    +0.098 A 
ATOM     16  C   LIG A   1      -8.671   2.714 129.027  0.00  0.00    +0.197 A 
ATOM     17  O   LIG A   1      -9.721   2.847 129.684  0.00  0.00    -0.287 OA
ENDROOT
BRANCH  14  18
ATOM     18  C   LIG A   1      -7.583   0.623 126.074  0.00  0.00    +0.021 A 
ATOM     19  C   LIG A   1      -8.714   0.369 125.273  0.00  0.00    +0.061 A 
ATOM     20  C   LIG A   1      -8.642  -0.468 124.147  0.00  0.00    +0.162 A 
ATOM     21  C   LIG A   1      -7.428  -1.083 123.812  0.00  0.00    +0.162 A 
ATOM     22  C   LIG A   1      -6.303  -0.816 124.604  0.00  0.00    +0.050 A 
ATOM     23  C   LIG A   1      -6.378   0.020 125.718  0.00  0.00    +0.015 A 
BRANCH  20  24
ATOM     24  O   LIG A   1      -9.749  -0.460 123.336  0.00  0.00    -0.491 OA
ATOM     25  C   LIG A   1     -10.087   0.804 122.775  0.00  0.00    +0.277 C 
ENDBRANCH  20  24
BRANCH  21  26
ATOM     26  O   LIG A   1      -7.354  -1.845 122.673  0.00  0.00    -0.491 OA
ATOM     27  C   LIG A   1      -6.026  -2.189 122.268  0.00  0.00    +0.277 C 
ENDBRANCH  21  26
ENDBRANCH  14  18
BRANCH   1  29
ATOM     28  C   LIG A   1      -3.174   2.947 128.032  0.00  0.00    +0.277 C 
ATOM     29  O   LIG A   1      -4.208   3.794 127.510  0.00  0.00    -0.488 OA
ENDBRANCH   1  29
BRANCH  10  30
ATOM     30  O   LIG A   1      -8.402   4.950 130.985  0.00  0.00    -0.494 OA
ATOM     31  C   LIG A   1      -9.171   6.039 130.477  0.00  0.00    +0.277 C 
ENDBRANCH  10  30
TORSDOF 5
ENDMDL
