MODEL 1
REMARK VINA RESULT:      -7.1      0.000      0.000
REMARK  Name = NuBBE_1928
REMARK  3 active torsions:
REMARK  status: ('A' for Active; 'I' for Inactive)
REMARK    1  A    between atoms: C_1  and  C_2
REMARK    2  A    between atoms: C_2  and  C_3
REMARK    3  A    between atoms: C_8  and  C_18
REMARK                            x       y       z     vdW  Elec       q    Type
REMARK                         _______ _______ _______ _____ _____    ______ ____
ROOT
ATOM      1  C   LIG A   1      -8.564   6.963 130.736  0.00  0.00    +0.011 C 
ATOM      2  C   LIG A   1      -9.735   6.066 130.305  0.00  0.00    -0.031 C 
ATOM      3  C   LIG A   1      -9.167   4.738 129.782  0.00  0.00    +0.011 C 
ATOM      4  C   LIG A   1     -10.636   6.689 129.249  0.00  0.00    +0.006 C 
ATOM      5  C   LIG A   1     -10.839   8.213 129.224  0.00  0.00    +0.003 C 
ATOM      6  C   LIG A   1     -12.337   8.199 129.562  0.00  0.00    -0.008 C 
ATOM      7  C   LIG A   1     -12.751   7.114 128.491  0.00  0.00    -0.067 C 
ATOM      8  C   LIG A   1     -13.884   7.084 127.789  0.00  0.00    +0.008 C 
ATOM      9  C   LIG A   1     -11.404   6.432 127.976  0.00  0.00    +0.019 C 
ATOM     10  C   LIG A   1     -10.702   7.320 126.971  0.00  0.00    +0.008 C 
ATOM     11  C   LIG A   1     -10.535   8.621 127.754  0.00  0.00    +0.005 C 
ATOM     12  C   LIG A   1     -12.373   7.896 131.132  0.00  0.00    +0.011 C 
ATOM     13  C   LIG A   1     -12.035   6.510 131.750  0.00  0.00    +0.001 C 
ATOM     14  C   LIG A   1     -10.631   5.808 131.605  0.00  0.00    +0.007 C 
ATOM     15  C   LIG A   1     -13.034   9.551 129.342  0.00  0.00    +0.016 C 
ENDROOT
TORSDOF 0
ENDMDL
MODEL 2
REMARK VINA RESULT:      -6.5      8.250     10.927
REMARK  Name = NuBBE_1928
REMARK  3 active torsions:
REMARK  status: ('A' for Active; 'I' for Inactive)
REMARK    1  A    between atoms: C_1  and  C_2
REMARK    2  A    between atoms: C_2  and  C_3
REMARK    3  A    between atoms: C_8  and  C_18
REMARK                            x       y       z     vdW  Elec       q    Type
REMARK                         _______ _______ _______ _____ _____    ______ ____
ROOT
ATOM      1  C   LIG A   1      -5.635  -3.661 123.988  0.00  0.00    +0.011 C 
ATOM      2  C   LIG A   1      -6.670  -2.537 123.822  0.00  0.00    -0.031 C 
ATOM      3  C   LIG A   1      -6.373  -1.790 122.513  0.00  0.00    +0.011 C 
ATOM      4  C   LIG A   1      -6.702  -1.550 124.979  0.00  0.00    +0.006 C 
ATOM      5  C   LIG A   1      -6.374  -2.033 126.401  0.00  0.00    +0.003 C 
ATOM      6  C   LIG A   1      -7.767  -1.783 126.999  0.00  0.00    -0.008 C 
ATOM      7  C   LIG A   1      -7.933  -0.310 126.454  0.00  0.00    -0.067 C 
ATOM      8  C   LIG A   1      -8.532   0.704 127.079  0.00  0.00    +0.008 C 
ATOM      9  C   LIG A   1      -6.800  -0.092 125.354  0.00  0.00    +0.019 C 
ATOM     10  C   LIG A   1      -5.462   0.181 126.007  0.00  0.00    +0.008 C 
ATOM     11  C   LIG A   1      -5.291  -1.040 126.909  0.00  0.00    +0.005 C 
ATOM     12  C   LIG A   1      -8.647  -2.997 126.442  0.00  0.00    +0.011 C 
ATOM     13  C   LIG A   1      -9.105  -3.121 124.962  0.00  0.00    +0.001 C 
ATOM     14  C   LIG A   1      -8.109  -3.231 123.745  0.00  0.00    +0.007 C 
ATOM     15  C   LIG A   1      -7.805  -1.860 128.534  0.00  0.00    +0.016 C 
ENDROOT
TORSDOF 0
ENDMDL
MODEL 3
REMARK VINA RESULT:      -6.4      9.028     10.738
REMARK  Name = NuBBE_1928
REMARK  3 active torsions:
REMARK  status: ('A' for Active; 'I' for Inactive)
REMARK    1  A    between atoms: C_1  and  C_2
REMARK    2  A    between atoms: C_2  and  C_3
REMARK    3  A    between atoms: C_8  and  C_18
REMARK                            x       y       z     vdW  Elec       q    Type
REMARK                         _______ _______ _______ _____ _____    ______ ____
ROOT
ATOM      1  C   LIG A   1      -7.838  -0.949 129.411  0.00  0.00    +0.011 C 
ATOM      2  C   LIG A   1      -7.135  -2.160 128.778  0.00  0.00    -0.031 C 
ATOM      3  C   LIG A   1      -5.861  -2.461 129.583  0.00  0.00    +0.011 C 
ATOM      4  C   LIG A   1      -6.783  -1.973 127.310  0.00  0.00    +0.006 C 
ATOM      5  C   LIG A   1      -7.681  -1.104 126.416  0.00  0.00    +0.003 C 
ATOM      6  C   LIG A   1      -8.155  -2.233 125.488  0.00  0.00    -0.008 C 
ATOM      7  C   LIG A   1      -6.724  -2.831 125.192  0.00  0.00    -0.067 C 
ATOM      8  C   LIG A   1      -6.305  -3.353 124.039  0.00  0.00    +0.008 C 
ATOM      9  C   LIG A   1      -5.724  -2.195 126.258  0.00  0.00    +0.019 C 
ATOM     10  C   LIG A   1      -5.340  -0.785 125.861  0.00  0.00    +0.008 C 
ATOM     11  C   LIG A   1      -6.703  -0.106 125.734  0.00  0.00    +0.005 C 
ATOM     12  C   LIG A   1      -9.238  -3.020 126.364  0.00  0.00    +0.011 C 
ATOM     13  C   LIG A   1      -8.874  -3.922 127.576  0.00  0.00    +0.001 C 
ATOM     14  C   LIG A   1      -8.149  -3.394 128.873  0.00  0.00    +0.007 C 
ATOM     15  C   LIG A   1      -8.868  -1.735 124.221  0.00  0.00    +0.016 C 
ENDROOT
TORSDOF 0
ENDMDL
MODEL 4
REMARK VINA RESULT:      -6.3      8.298     10.900
REMARK  Name = NuBBE_1928
REMARK  3 active torsions:
REMARK  status: ('A' for Active; 'I' for Inactive)
REMARK    1  A    between atoms: C_1  and  C_2
REMARK    2  A    between atoms: C_2  and  C_3
REMARK    3  A    between atoms: C_8  and  C_18
REMARK                            x       y       z     vdW  Elec       q    Type
REMARK                         _______ _______ _______ _____ _____    ______ ____
ROOT
ATOM      1  C   LIG A   1     -10.217   0.828 124.983  0.00  0.00    +0.011 C 
ATOM      2  C   LIG A   1      -9.285   0.601 123.782  0.00  0.00    -0.031 C 
ATOM      3  C   LIG A   1     -10.116   0.699 122.494  0.00  0.00    +0.011 C 
ATOM      4  C   LIG A   1      -8.546  -0.729 123.815  0.00  0.00    +0.006 C 
ATOM      5  C   LIG A   1      -8.158  -1.350 125.167  0.00  0.00    +0.003 C 
ATOM      6  C   LIG A   1      -6.637  -1.250 124.977  0.00  0.00    -0.008 C 
ATOM      7  C   LIG A   1      -6.595  -1.886 123.532  0.00  0.00    -0.067 C 
ATOM      8  C   LIG A   1      -5.643  -2.680 123.043  0.00  0.00    +0.008 C 
ATOM      9  C   LIG A   1      -8.095  -1.909 122.992  0.00  0.00    +0.019 C 
ATOM     10  C   LIG A   1      -8.867  -3.062 123.599  0.00  0.00    +0.008 C 
ATOM     11  C   LIG A   1      -8.700  -2.806 125.096  0.00  0.00    +0.005 C 
ATOM     12  C   LIG A   1      -6.320   0.297 125.232  0.00  0.00    +0.011 C 
ATOM     13  C   LIG A   1      -6.701   1.429 124.238  0.00  0.00    +0.001 C 
ATOM     14  C   LIG A   1      -8.184   1.760 123.817  0.00  0.00    +0.007 C 
ATOM     15  C   LIG A   1      -5.830  -2.056 126.008  0.00  0.00    +0.016 C 
ENDROOT
TORSDOF 0
ENDMDL
MODEL 5
REMARK VINA RESULT:      -6.1      8.015     10.486
REMARK  Name = NuBBE_1928
REMARK  3 active torsions:
REMARK  status: ('A' for Active; 'I' for Inactive)
REMARK    1  A    between atoms: C_1  and  C_2
REMARK    2  A    between atoms: C_2  and  C_3
REMARK    3  A    between atoms: C_8  and  C_18
REMARK                            x       y       z     vdW  Elec       q    Type
REMARK                         _______ _______ _______ _____ _____    ______ ____
ROOT
ATOM      1  C   LIG A   1      -7.889  -2.021 122.344  0.00  0.00    +0.011 C 
ATOM      2  C   LIG A   1      -8.096  -2.442 123.807  0.00  0.00    -0.031 C 
ATOM      3  C   LIG A   1      -9.369  -3.297 123.895  0.00  0.00    +0.011 C 
ATOM      4  C   LIG A   1      -8.194  -1.275 124.779  0.00  0.00    +0.006 C 
ATOM      5  C   LIG A   1      -7.414   0.019 124.496  0.00  0.00    +0.003 C 
ATOM      6  C   LIG A   1      -6.477  -0.069 125.710  0.00  0.00    -0.008 C 
ATOM      7  C   LIG A   1      -7.603  -0.347 126.783  0.00  0.00    -0.067 C 
ATOM      8  C   LIG A   1      -7.630   0.099 128.039  0.00  0.00    +0.008 C 
ATOM      9  C   LIG A   1      -8.926  -0.728 125.979  0.00  0.00    +0.019 C 
ATOM     10  C   LIG A   1      -9.599   0.512 125.431  0.00  0.00    +0.008 C 
ATOM     11  C   LIG A   1      -8.477   1.148 124.610  0.00  0.00    +0.005 C 
ATOM     12  C   LIG A   1      -5.411  -1.186 125.292  0.00  0.00    +0.011 C 
ATOM     13  C   LIG A   1      -5.740  -2.702 125.207  0.00  0.00    +0.001 C 
ATOM     14  C   LIG A   1      -6.820  -3.309 124.230  0.00  0.00    +0.007 C 
ATOM     15  C   LIG A   1      -5.697   1.225 125.986  0.00  0.00    +0.016 C 
ENDROOT
TORSDOF 0
ENDMDL
MODEL 6
REMARK VINA RESULT:      -6.1      8.514     10.599
REMARK  Name = NuBBE_1928
REMARK  3 active torsions:
REMARK  status: ('A' for Active; 'I' for Inactive)
REMARK    1  A    between atoms: C_1  and  C_2
REMARK    2  A    between atoms: C_2  and  C_3
REMARK    3  A    between atoms: C_8  and  C_18
REMARK                            x       y       z     vdW  Elec       q    Type
REMARK                         _______ _______ _______ _____ _____    ______ ____
ROOT
ATOM      1  C   LIG A   1      -5.253   0.305 126.084  0.00  0.00    +0.011 C 
ATOM      2  C   LIG A   1      -6.173  -0.858 126.490  0.00  0.00    -0.031 C 
ATOM      3  C   LIG A   1      -5.387  -1.802 127.413  0.00  0.00    +0.011 C 
ATOM      4  C   LIG A   1      -6.737  -1.641 125.314  0.00  0.00    +0.006 C 
ATOM      5  C   LIG A   1      -7.016  -0.922 123.985  0.00  0.00    +0.003 C 
ATOM      6  C   LIG A   1      -8.542  -1.105 124.001  0.00  0.00    -0.008 C 
ATOM      7  C   LIG A   1      -8.532  -2.651 124.322  0.00  0.00    -0.067 C 
ATOM      8  C   LIG A   1      -9.385  -3.564 123.857  0.00  0.00    +0.008 C 
ATOM      9  C   LIG A   1      -7.052  -3.019 124.789  0.00  0.00    +0.019 C 
ATOM     10  C   LIG A   1      -6.128  -3.147 123.596  0.00  0.00    +0.008 C 
ATOM     11  C   LIG A   1      -6.296  -1.790 122.914  0.00  0.00    +0.005 C 
ATOM     12  C   LIG A   1      -9.046  -0.022 125.064  0.00  0.00    +0.011 C 
ATOM     13  C   LIG A   1      -8.832  -0.155 126.598  0.00  0.00    +0.001 C 
ATOM     14  C   LIG A   1      -7.411  -0.222 127.279  0.00  0.00    +0.007 C 
ATOM     15  C   LIG A   1      -9.219  -0.778 122.661  0.00  0.00    +0.016 C 
ENDROOT
TORSDOF 0
ENDMDL
MODEL 7
REMARK VINA RESULT:      -6.1      7.912      9.993
REMARK  Name = NuBBE_1928
REMARK  3 active torsions:
REMARK  status: ('A' for Active; 'I' for Inactive)
REMARK    1  A    between atoms: C_1  and  C_2
REMARK    2  A    between atoms: C_2  and  C_3
REMARK    3  A    between atoms: C_8  and  C_18
REMARK                            x       y       z     vdW  Elec       q    Type
REMARK                         _______ _______ _______ _____ _____    ______ ____
ROOT
ATOM      1  C   LIG A   1      -5.309  -2.293 124.548  0.00  0.00    +0.011 C 
ATOM      2  C   LIG A   1      -6.564  -2.002 123.711  0.00  0.00    -0.031 C 
ATOM      3  C   LIG A   1      -6.201  -2.135 122.224  0.00  0.00    +0.011 C 
ATOM      4  C   LIG A   1      -7.176  -0.633 123.968  0.00  0.00    +0.006 C 
ATOM      5  C   LIG A   1      -7.072  -0.004 125.367  0.00  0.00    +0.003 C 
ATOM      6  C   LIG A   1      -8.576  -0.016 125.680  0.00  0.00    -0.008 C 
ATOM      7  C   LIG A   1      -9.046   0.635 124.320  0.00  0.00    -0.067 C 
ATOM      8  C   LIG A   1     -10.059   1.486 124.157  0.00  0.00    +0.008 C 
ATOM      9  C   LIG A   1      -7.803   0.579 123.324  0.00  0.00    +0.019 C 
ATOM     10  C   LIG A   1      -6.812   1.680 123.638  0.00  0.00    +0.008 C 
ATOM     11  C   LIG A   1      -6.501   1.420 125.111  0.00  0.00    +0.005 C 
ATOM     12  C   LIG A   1      -8.880  -1.545 126.038  0.00  0.00    +0.011 C 
ATOM     13  C   LIG A   1      -8.905  -2.688 124.985  0.00  0.00    +0.001 C 
ATOM     14  C   LIG A   1      -7.659  -3.098 124.110  0.00  0.00    +0.007 C 
ATOM     15  C   LIG A   1      -8.960   0.824 126.908  0.00  0.00    +0.016 C 
ENDROOT
TORSDOF 0
ENDMDL
MODEL 8
REMARK VINA RESULT:      -6.1      7.831     10.217
REMARK  Name = NuBBE_1928
REMARK  3 active torsions:
REMARK  status: ('A' for Active; 'I' for Inactive)
REMARK    1  A    between atoms: C_1  and  C_2
REMARK    2  A    between atoms: C_2  and  C_3
REMARK    3  A    between atoms: C_8  and  C_18
REMARK                            x       y       z     vdW  Elec       q    Type
REMARK                         _______ _______ _______ _____ _____    ______ ____
ROOT
ATOM      1  C   LIG A   1      -6.645   2.225 122.549  0.00  0.00    +0.011 C 
ATOM      2  C   LIG A   1      -7.478   1.993 123.819  0.00  0.00    -0.031 C 
ATOM      3  C   LIG A   1      -6.966   2.937 124.918  0.00  0.00    +0.011 C 
ATOM      4  C   LIG A   1      -7.450   0.557 124.323  0.00  0.00    +0.006 C 
ATOM      5  C   LIG A   1      -7.315  -0.599 123.320  0.00  0.00    +0.003 C 
ATOM      6  C   LIG A   1      -8.696  -1.221 123.578  0.00  0.00    -0.008 C 
ATOM      7  C   LIG A   1      -8.590  -1.242 125.153  0.00  0.00    -0.067 C 
ATOM      8  C   LIG A   1      -9.073  -2.180 125.968  0.00  0.00    +0.008 C 
ATOM      9  C   LIG A   1      -7.352  -0.318 125.548  0.00  0.00    +0.019 C 
ATOM     10  C   LIG A   1      -6.045  -1.051 125.338  0.00  0.00    +0.008 C 
ATOM     11  C   LIG A   1      -6.136  -1.453 123.867  0.00  0.00    +0.005 C 
ATOM     12  C   LIG A   1      -9.705  -0.245 122.810  0.00  0.00    +0.011 C 
ATOM     13  C   LIG A   1     -10.057   1.187 123.298  0.00  0.00    +0.001 C 
ATOM     14  C   LIG A   1      -8.996   2.343 123.456  0.00  0.00    +0.007 C 
ATOM     15  C   LIG A   1      -8.868  -2.622 122.972  0.00  0.00    +0.016 C 
ENDROOT
TORSDOF 0
ENDMDL
MODEL 9
REMARK VINA RESULT:      -5.9      6.722      9.309
REMARK  Name = NuBBE_1928
REMARK  3 active torsions:
REMARK  status: ('A' for Active; 'I' for Inactive)
REMARK    1  A    between atoms: C_1  and  C_2
REMARK    2  A    between atoms: C_2  and  C_3
REMARK    3  A    between atoms: C_8  and  C_18
REMARK                            x       y       z     vdW  Elec       q    Type
REMARK                         _______ _______ _______ _____ _____    ______ ____
ROOT
ATOM      1  C   LIG A   1      -3.044   7.987 134.295  0.00  0.00    +0.011 C 
ATOM      2  C   LIG A   1      -2.326   8.331 132.980  0.00  0.00    -0.031 C 
ATOM      3  C   LIG A   1      -2.263   9.860 132.844  0.00  0.00    +0.011 C 
ATOM      4  C   LIG A   1      -2.979   7.732 131.744  0.00  0.00    +0.006 C 
ATOM      5  C   LIG A   1      -3.704   6.380 131.845  0.00  0.00    +0.003 C 
ATOM      6  C   LIG A   1      -2.753   5.598 130.926  0.00  0.00    -0.008 C 
ATOM      7  C   LIG A   1      -2.746   6.647 129.745  0.00  0.00    -0.067 C 
ATOM      8  C   LIG A   1      -2.695   6.373 128.441  0.00  0.00    +0.008 C 
ATOM      9  C   LIG A   1      -3.383   7.993 130.314  0.00  0.00    +0.019 C 
ATOM     10  C   LIG A   1      -4.893   7.893 130.365  0.00  0.00    +0.008 C 
ATOM     11  C   LIG A   1      -5.102   6.642 131.217  0.00  0.00    +0.005 C 
ATOM     12  C   LIG A   1      -1.465   5.340 131.838  0.00  0.00    +0.011 C 
ATOM     13  C   LIG A   1      -0.456   6.453 132.238  0.00  0.00    +0.001 C 
ATOM     14  C   LIG A   1      -0.848   7.726 133.081  0.00  0.00    +0.007 C 
ATOM     15  C   LIG A   1      -3.293   4.224 130.501  0.00  0.00    +0.016 C 
ENDROOT
TORSDOF 0
ENDMDL
