MODEL 1
REMARK VINA RESULT:      -5.4      0.000      0.000
REMARK  Name = NuBBE_1986
REMARK  4 active torsions:
REMARK  status: ('A' for Active; 'I' for Inactive)
REMARK    1  A    between atoms: C_1  and  C_2
REMARK    2  A    between atoms: C_3  and  C_4
REMARK    3  A    between atoms: C_3  and  C_5
REMARK    4  A    between atoms: C_9  and  O_11
REMARK                            x       y       z     vdW  Elec       q    Type
REMARK                         _______ _______ _______ _____ _____    ______ ____
ROOT
ATOM      1  C   LIG A   1     -11.607   5.394 129.739  0.00  0.00    +0.014 C 
ATOM      2  C   LIG A   1     -11.639   6.881 129.436  0.00  0.00    -0.001 C 
ATOM      3  C   LIG A   1     -12.380   7.310 128.130  0.00  0.00    -0.024 C 
ATOM      4  C   LIG A   1     -11.781   6.748 126.823  0.00  0.00    +0.012 C 
ATOM      5  C   LIG A   1     -13.887   6.999 128.064  0.00  0.00    +0.012 C 
ATOM      6  C   LIG A   1     -12.057   8.804 128.385  0.00  0.00    -0.002 C 
ATOM      7  C   LIG A   1     -12.632   9.062 129.798  0.00  0.00    +0.036 C 
ATOM      8  C   LIG A   1     -12.305   7.753 130.545  0.00  0.00    +0.121 C 
ATOM      9  C   LIG A   1     -10.518   8.820 128.521  0.00  0.00    +0.005 C 
ATOM     10  C   LIG A   1     -10.222   7.489 129.234  0.00  0.00    +0.010 C 
ENDROOT
BRANCH   8  11
ATOM     11  O   LIG A   1     -13.474   7.155 131.078  0.00  0.00    -0.391 OA
ATOM     12  H   LIG A   1     -14.018   7.866 131.457  0.00  0.00    +0.210 HD
ENDBRANCH   8  11
TORSDOF 1
ENDMDL
MODEL 2
REMARK VINA RESULT:      -5.3     10.399     11.946
REMARK  Name = NuBBE_1986
REMARK  4 active torsions:
REMARK  status: ('A' for Active; 'I' for Inactive)
REMARK    1  A    between atoms: C_1  and  C_2
REMARK    2  A    between atoms: C_3  and  C_4
REMARK    3  A    between atoms: C_3  and  C_5
REMARK    4  A    between atoms: C_9  and  O_11
REMARK                            x       y       z     vdW  Elec       q    Type
REMARK                         _______ _______ _______ _____ _____    ______ ____
ROOT
ATOM      1  C   LIG A   1      -9.060  -0.661 122.941  0.00  0.00    +0.014 C 
ATOM      2  C   LIG A   1      -8.085  -1.706 123.451  0.00  0.00    -0.001 C 
ATOM      3  C   LIG A   1      -7.468  -1.453 124.863  0.00  0.00    -0.024 C 
ATOM      4  C   LIG A   1      -6.625  -0.167 124.989  0.00  0.00    +0.012 C 
ATOM      5  C   LIG A   1      -8.456  -1.421 126.046  0.00  0.00    +0.012 C 
ATOM      6  C   LIG A   1      -6.631  -2.755 124.779  0.00  0.00    -0.002 C 
ATOM      7  C   LIG A   1      -7.692  -3.850 124.511  0.00  0.00    +0.036 C 
ATOM      8  C   LIG A   1      -8.675  -3.146 123.555  0.00  0.00    +0.121 C 
ATOM      9  C   LIG A   1      -5.829  -2.582 123.470  0.00  0.00    +0.005 C 
ATOM     10  C   LIG A   1      -6.822  -1.847 122.554  0.00  0.00    +0.010 C 
ENDROOT
BRANCH   8  11
ATOM     11  O   LIG A   1      -9.996  -3.156 124.071  0.00  0.00    -0.391 OA
ATOM     12  H   LIG A   1     -10.506  -3.800 123.552  0.00  0.00    +0.210 HD
ENDBRANCH   8  11
TORSDOF 1
ENDMDL
MODEL 3
REMARK VINA RESULT:      -5.0     10.341     11.647
REMARK  Name = NuBBE_1986
REMARK  4 active torsions:
REMARK  status: ('A' for Active; 'I' for Inactive)
REMARK    1  A    between atoms: C_1  and  C_2
REMARK    2  A    between atoms: C_3  and  C_4
REMARK    3  A    between atoms: C_3  and  C_5
REMARK    4  A    between atoms: C_9  and  O_11
REMARK                            x       y       z     vdW  Elec       q    Type
REMARK                         _______ _______ _______ _____ _____    ______ ____
ROOT
ATOM      1  C   LIG A   1      -9.275  -2.941 123.273  0.00  0.00    +0.014 C 
ATOM      2  C   LIG A   1      -8.112  -2.584 124.181  0.00  0.00    -0.001 C 
ATOM      3  C   LIG A   1      -7.148  -1.467 123.673  0.00  0.00    -0.024 C 
ATOM      4  C   LIG A   1      -6.412  -1.787 122.353  0.00  0.00    +0.012 C 
ATOM      5  C   LIG A   1      -7.762  -0.068 123.477  0.00  0.00    +0.012 C 
ATOM      6  C   LIG A   1      -6.263  -1.594 124.938  0.00  0.00    -0.002 C 
ATOM      7  C   LIG A   1      -7.261  -1.374 126.100  0.00  0.00    +0.036 C 
ATOM      8  C   LIG A   1      -8.529  -2.098 125.603  0.00  0.00    +0.121 C 
ATOM      9  C   LIG A   1      -5.878  -3.090 124.959  0.00  0.00    +0.005 C 
ATOM     10  C   LIG A   1      -7.146  -3.778 124.425  0.00  0.00    +0.010 C 
ENDROOT
BRANCH   8  11
ATOM     11  O   LIG A   1      -9.645  -1.225 125.575  0.00  0.00    -0.391 OA
ATOM     12  H   LIG A   1     -10.083  -1.284 126.440  0.00  0.00    +0.210 HD
ENDBRANCH   8  11
TORSDOF 1
ENDMDL
MODEL 4
REMARK VINA RESULT:      -5.0     10.307     11.746
REMARK  Name = NuBBE_1986
REMARK  4 active torsions:
REMARK  status: ('A' for Active; 'I' for Inactive)
REMARK    1  A    between atoms: C_1  and  C_2
REMARK    2  A    between atoms: C_3  and  C_4
REMARK    3  A    between atoms: C_3  and  C_5
REMARK    4  A    between atoms: C_9  and  O_11
REMARK                            x       y       z     vdW  Elec       q    Type
REMARK                         _______ _______ _______ _____ _____    ______ ____
ROOT
ATOM      1  C   LIG A   1      -8.842  -1.006 125.835  0.00  0.00    +0.014 C 
ATOM      2  C   LIG A   1      -7.706  -1.466 124.939  0.00  0.00    -0.001 C 
ATOM      3  C   LIG A   1      -7.942  -2.784 124.136  0.00  0.00    -0.024 C 
ATOM      4  C   LIG A   1      -8.176  -4.043 124.999  0.00  0.00    +0.012 C 
ATOM      5  C   LIG A   1      -9.090  -2.765 123.109  0.00  0.00    +0.012 C 
ATOM      6  C   LIG A   1      -6.531  -2.703 123.502  0.00  0.00    -0.002 C 
ATOM      7  C   LIG A   1      -6.514  -1.306 122.835  0.00  0.00    +0.036 C 
ATOM      8  C   LIG A   1      -7.285  -0.435 123.847  0.00  0.00    +0.121 C 
ATOM      9  C   LIG A   1      -5.591  -2.622 124.727  0.00  0.00    +0.005 C 
ATOM     10  C   LIG A   1      -6.403  -1.781 125.727  0.00  0.00    +0.010 C 
ENDROOT
BRANCH   8  11
ATOM     11  O   LIG A   1      -8.398   0.200 123.240  0.00  0.00    -0.391 OA
ATOM     12  H   LIG A   1      -9.148   0.123 123.855  0.00  0.00    +0.210 HD
ENDBRANCH   8  11
TORSDOF 1
ENDMDL
MODEL 5
REMARK VINA RESULT:      -5.0     10.366     11.637
REMARK  Name = NuBBE_1986
REMARK  4 active torsions:
REMARK  status: ('A' for Active; 'I' for Inactive)
REMARK    1  A    between atoms: C_1  and  C_2
REMARK    2  A    between atoms: C_3  and  C_4
REMARK    3  A    between atoms: C_3  and  C_5
REMARK    4  A    between atoms: C_9  and  O_11
REMARK                            x       y       z     vdW  Elec       q    Type
REMARK                         _______ _______ _______ _____ _____    ______ ____
ROOT
ATOM      1  C   LIG A   1      -7.031  -1.717 126.581  0.00  0.00    +0.014 C 
ATOM      2  C   LIG A   1      -7.360  -1.611 125.103  0.00  0.00    -0.001 C 
ATOM      3  C   LIG A   1      -7.126  -2.894 124.244  0.00  0.00    -0.024 C 
ATOM      4  C   LIG A   1      -5.666  -3.391 124.193  0.00  0.00    +0.012 C 
ATOM      5  C   LIG A   1      -7.974  -4.127 124.609  0.00  0.00    +0.012 C 
ATOM      6  C   LIG A   1      -7.594  -2.169 122.956  0.00  0.00    -0.002 C 
ATOM      7  C   LIG A   1      -9.005  -1.653 123.325  0.00  0.00    +0.036 C 
ATOM      8  C   LIG A   1      -8.838  -1.221 124.795  0.00  0.00    +0.121 C 
ATOM      9  C   LIG A   1      -6.671  -0.932 122.885  0.00  0.00    +0.005 C 
ATOM     10  C   LIG A   1      -6.495  -0.550 124.365  0.00  0.00    +0.010 C 
ENDROOT
BRANCH   8  11
ATOM     11  O   LIG A   1      -9.763  -1.886 125.639  0.00  0.00    -0.391 OA
ATOM     12  H   LIG A   1      -9.252  -2.352 126.322  0.00  0.00    +0.210 HD
ENDBRANCH   8  11
TORSDOF 1
ENDMDL
MODEL 6
REMARK VINA RESULT:      -5.0     10.097     11.678
REMARK  Name = NuBBE_1986
REMARK  4 active torsions:
REMARK  status: ('A' for Active; 'I' for Inactive)
REMARK    1  A    between atoms: C_1  and  C_2
REMARK    2  A    between atoms: C_3  and  C_4
REMARK    3  A    between atoms: C_3  and  C_5
REMARK    4  A    between atoms: C_9  and  O_11
REMARK                            x       y       z     vdW  Elec       q    Type
REMARK                         _______ _______ _______ _____ _____    ______ ____
ROOT
ATOM      1  C   LIG A   1      -7.461   0.212 124.518  0.00  0.00    +0.014 C 
ATOM      2  C   LIG A   1      -7.975  -1.215 124.466  0.00  0.00    -0.001 C 
ATOM      3  C   LIG A   1      -6.912  -2.330 124.208  0.00  0.00    -0.024 C 
ATOM      4  C   LIG A   1      -6.170  -2.227 122.858  0.00  0.00    +0.012 C 
ATOM      5  C   LIG A   1      -5.812  -2.488 125.276  0.00  0.00    +0.012 C 
ATOM      6  C   LIG A   1      -7.996  -3.436 124.253  0.00  0.00    -0.002 C 
ATOM      7  C   LIG A   1      -8.671  -3.224 125.629  0.00  0.00    +0.036 C 
ATOM      8  C   LIG A   1      -8.702  -1.689 125.762  0.00  0.00    +0.121 C 
ATOM      9  C   LIG A   1      -9.014  -2.984 123.183  0.00  0.00    +0.005 C 
ATOM     10  C   LIG A   1      -8.995  -1.451 123.316  0.00  0.00    +0.010 C 
ENDROOT
BRANCH   8  11
ATOM     11  O   LIG A   1      -8.046  -1.258 126.942  0.00  0.00    -0.391 OA
ATOM     12  H   LIG A   1      -7.251  -0.768 126.672  0.00  0.00    +0.210 HD
ENDBRANCH   8  11
TORSDOF 1
ENDMDL
MODEL 7
REMARK VINA RESULT:      -4.8      1.774      3.208
REMARK  Name = NuBBE_1986
REMARK  4 active torsions:
REMARK  status: ('A' for Active; 'I' for Inactive)
REMARK    1  A    between atoms: C_1  and  C_2
REMARK    2  A    between atoms: C_3  and  C_4
REMARK    3  A    between atoms: C_3  and  C_5
REMARK    4  A    between atoms: C_9  and  O_11
REMARK                            x       y       z     vdW  Elec       q    Type
REMARK                         _______ _______ _______ _____ _____    ______ ____
ROOT
ATOM      1  C   LIG A   1      -9.866   7.966 129.635  0.00  0.00    +0.014 C 
ATOM      2  C   LIG A   1     -11.166   7.357 129.144  0.00  0.00    -0.001 C 
ATOM      3  C   LIG A   1     -12.484   8.007 129.673  0.00  0.00    -0.024 C 
ATOM      4  C   LIG A   1     -12.678   7.940 131.203  0.00  0.00    +0.012 C 
ATOM      5  C   LIG A   1     -12.725   9.479 129.287  0.00  0.00    +0.012 C 
ATOM      6  C   LIG A   1     -13.352   6.999 128.879  0.00  0.00    -0.002 C 
ATOM      7  C   LIG A   1     -12.860   7.169 127.421  0.00  0.00    +0.036 C 
ATOM      8  C   LIG A   1     -11.342   7.370 127.594  0.00  0.00    +0.121 C 
ATOM      9  C   LIG A   1     -12.840   5.624 129.364  0.00  0.00    +0.005 C 
ATOM     10  C   LIG A   1     -11.334   5.869 129.561  0.00  0.00    +0.010 C 
ENDROOT
BRANCH   8  11
ATOM     11  O   LIG A   1     -10.911   8.587 127.008  0.00  0.00    -0.391 OA
ATOM     12  H   LIG A   1     -10.729   9.211 127.731  0.00  0.00    +0.210 HD
ENDBRANCH   8  11
TORSDOF 1
ENDMDL
MODEL 8
REMARK VINA RESULT:      -4.8     10.127     11.713
REMARK  Name = NuBBE_1986
REMARK  4 active torsions:
REMARK  status: ('A' for Active; 'I' for Inactive)
REMARK    1  A    between atoms: C_1  and  C_2
REMARK    2  A    between atoms: C_3  and  C_4
REMARK    3  A    between atoms: C_3  and  C_5
REMARK    4  A    between atoms: C_9  and  O_11
REMARK                            x       y       z     vdW  Elec       q    Type
REMARK                         _______ _______ _______ _____ _____    ______ ____
ROOT
ATOM      1  C   LIG A   1      -5.877  -1.171 125.186  0.00  0.00    +0.014 C 
ATOM      2  C   LIG A   1      -7.067  -1.968 124.685  0.00  0.00    -0.001 C 
ATOM      3  C   LIG A   1      -8.340  -1.963 125.588  0.00  0.00    -0.024 C 
ATOM      4  C   LIG A   1      -8.146  -2.564 126.997  0.00  0.00    +0.012 C 
ATOM      5  C   LIG A   1      -9.018  -0.597 125.809  0.00  0.00    +0.012 C 
ATOM      6  C   LIG A   1      -9.097  -2.889 124.603  0.00  0.00    -0.002 C 
ATOM      7  C   LIG A   1      -9.019  -2.125 123.259  0.00  0.00    +0.036 C 
ATOM      8  C   LIG A   1      -7.600  -1.525 123.288  0.00  0.00    +0.121 C 
ATOM      9  C   LIG A   1      -8.165  -4.114 124.473  0.00  0.00    +0.005 C 
ATOM     10  C   LIG A   1      -6.762  -3.487 124.542  0.00  0.00    +0.010 C 
ENDROOT
BRANCH   8  11
ATOM     11  O   LIG A   1      -7.630  -0.116 123.139  0.00  0.00    -0.391 OA
ATOM     12  H   LIG A   1      -7.107   0.265 123.865  0.00  0.00    +0.210 HD
ENDBRANCH   8  11
TORSDOF 1
ENDMDL
MODEL 9
REMARK VINA RESULT:      -4.7     10.013     11.585
REMARK  Name = NuBBE_1986
REMARK  4 active torsions:
REMARK  status: ('A' for Active; 'I' for Inactive)
REMARK    1  A    between atoms: C_1  and  C_2
REMARK    2  A    between atoms: C_3  and  C_4
REMARK    3  A    between atoms: C_3  and  C_5
REMARK    4  A    between atoms: C_9  and  O_11
REMARK                            x       y       z     vdW  Elec       q    Type
REMARK                         _______ _______ _______ _____ _____    ______ ____
ROOT
ATOM      1  C   LIG A   1      -8.358  -0.552 126.370  0.00  0.00    +0.014 C 
ATOM      2  C   LIG A   1      -8.190  -1.687 125.376  0.00  0.00    -0.001 C 
ATOM      3  C   LIG A   1      -8.055  -1.283 123.874  0.00  0.00    -0.024 C 
ATOM      4  C   LIG A   1      -9.274  -0.541 123.283  0.00  0.00    +0.012 C 
ATOM      5  C   LIG A   1      -6.828  -0.429 123.501  0.00  0.00    +0.012 C 
ATOM      6  C   LIG A   1      -7.944  -2.766 123.439  0.00  0.00    -0.002 C 
ATOM      7  C   LIG A   1      -6.755  -3.298 124.274  0.00  0.00    +0.036 C 
ATOM      8  C   LIG A   1      -6.946  -2.592 125.631  0.00  0.00    +0.121 C 
ATOM      9  C   LIG A   1      -9.222  -3.408 124.024  0.00  0.00    +0.005 C 
ATOM     10  C   LIG A   1      -9.404  -2.658 125.355  0.00  0.00    +0.010 C 
ENDROOT
BRANCH   8  11
ATOM     11  O   LIG A   1      -5.796  -1.846 125.993  0.00  0.00    -0.391 OA
ATOM     12  H   LIG A   1      -5.048  -2.197 125.479  0.00  0.00    +0.210 HD
ENDBRANCH   8  11
TORSDOF 1
ENDMDL
