MODEL 1
REMARK VINA RESULT:      -4.6      0.000      0.000
REMARK  Name = NuBBE_1810
REMARK  14 active torsions:
REMARK  status: ('A' for Active; 'I' for Inactive)
REMARK    1  A    between atoms: C_1  and  O_2
REMARK    2  A    between atoms: O_2  and  O_3
REMARK    3  A    between atoms: O_3  and  C_4
REMARK    4  A    between atoms: C_4  and  C_5
REMARK    5  A    between atoms: C_5  and  C_6
REMARK    6  A    between atoms: C_6  and  C_7
REMARK    7  A    between atoms: C_7  and  C_8
REMARK    8  A    between atoms: C_8  and  C_9
REMARK    9  A    between atoms: C_9  and  C_10
REMARK   10  A    between atoms: C_10  and  C_11
REMARK   11  A    between atoms: C_11  and  C_12
REMARK   12  A    between atoms: C_12  and  O_13
REMARK   13  A    between atoms: O_13  and  O_14
REMARK   14  A    between atoms: O_14  and  C_15
REMARK                            x       y       z     vdW  Elec       q    Type
REMARK                         _______ _______ _______ _____ _____    ______ ____
ROOT
ATOM      1  C   LIG A   1      -9.005  -3.087 126.469  0.00  0.00    -0.000 C 
ENDROOT
BRANCH   1   2
ATOM      2  C   LIG A   1      -8.952  -3.954 127.728  0.00  0.00    +0.000 C 
BRANCH   2   3
ATOM      3  C   LIG A   1      -8.482  -3.238 129.002  0.00  0.00    +0.002 C 
BRANCH   3   4
ATOM      4  C   LIG A   1      -7.059  -3.619 129.430  0.00  0.00    +0.031 C 
BRANCH   4   5
ATOM      5  C   LIG A   1      -6.013  -2.654 128.877  0.00  0.00    +0.201 C 
BRANCH   5   6
ATOM      6  O   LIG A   1      -4.776  -2.905 129.538  0.00  0.00    -0.235 OA
BRANCH   6   8
ATOM      7  C   LIG A   1      -3.910  -3.662 131.505  0.00  0.00    +0.238 C 
ATOM      8  O   LIG A   1      -5.115  -3.183 130.925  0.00  0.00    -0.238 OA
ENDBRANCH   6   8
ENDBRANCH   5   6
ENDBRANCH   4   5
ENDBRANCH   3   4
ENDBRANCH   2   3
ENDBRANCH   1   2
BRANCH   1   9
ATOM      9  C   LIG A   1      -8.392  -3.746 125.230  0.00  0.00    +0.000 C 
BRANCH   9  10
ATOM     10  C   LIG A   1      -9.024  -3.278 123.912  0.00  0.00    +0.002 C 
BRANCH  10  11
ATOM     11  C   LIG A   1      -8.184  -2.227 123.187  0.00  0.00    +0.031 C 
BRANCH  11  12
ATOM     12  C   LIG A   1      -8.899  -0.883 123.036  0.00  0.00    +0.201 C 
BRANCH  12  13
ATOM     13  O   LIG A   1     -10.269  -1.046 122.673  0.00  0.00    -0.235 OA
BRANCH  13  14
ATOM     14  O   LIG A   1     -10.807   0.303 122.521  0.00  0.00    -0.238 OA
ATOM     15  C   LIG A   1      -9.832   1.167 123.084  0.00  0.00    +0.238 C 
ENDBRANCH  13  14
ENDBRANCH  12  13
ENDBRANCH  11  12
ENDBRANCH  10  11
ENDBRANCH   9  10
ENDBRANCH   1   9
TORSDOF 12
ENDMDL
MODEL 2
REMARK VINA RESULT:      -4.5      1.030      7.393
REMARK  Name = NuBBE_1810
REMARK  14 active torsions:
REMARK  status: ('A' for Active; 'I' for Inactive)
REMARK    1  A    between atoms: C_1  and  O_2
REMARK    2  A    between atoms: O_2  and  O_3
REMARK    3  A    between atoms: O_3  and  C_4
REMARK    4  A    between atoms: C_4  and  C_5
REMARK    5  A    between atoms: C_5  and  C_6
REMARK    6  A    between atoms: C_6  and  C_7
REMARK    7  A    between atoms: C_7  and  C_8
REMARK    8  A    between atoms: C_8  and  C_9
REMARK    9  A    between atoms: C_9  and  C_10
REMARK   10  A    between atoms: C_10  and  C_11
REMARK   11  A    between atoms: C_11  and  C_12
REMARK   12  A    between atoms: C_12  and  O_13
REMARK   13  A    between atoms: O_13  and  O_14
REMARK   14  A    between atoms: O_14  and  C_15
REMARK                            x       y       z     vdW  Elec       q    Type
REMARK                         _______ _______ _______ _____ _____    ______ ____
ROOT
ATOM      1  C   LIG A   1      -9.205  -3.141 126.503  0.00  0.00    -0.000 C 
ENDROOT
BRANCH   1   2
ATOM      2  C   LIG A   1      -8.574  -3.672 125.215  0.00  0.00    +0.000 C 
BRANCH   2   3
ATOM      3  C   LIG A   1      -9.309  -3.301 123.920  0.00  0.00    +0.002 C 
BRANCH   3   4
ATOM      4  C   LIG A   1      -8.453  -2.492 122.938  0.00  0.00    +0.031 C 
BRANCH   4   5
ATOM      5  C   LIG A   1      -8.544  -0.990 123.195  0.00  0.00    +0.201 C 
BRANCH   5   6
ATOM      6  O   LIG A   1      -9.846  -0.697 123.695  0.00  0.00    -0.235 OA
BRANCH   6   8
ATOM      7  C   LIG A   1      -9.754   1.398 122.807  0.00  0.00    +0.238 C 
ATOM      8  O   LIG A   1     -10.464   0.172 122.706  0.00  0.00    -0.238 OA
ENDBRANCH   6   8
ENDBRANCH   5   6
ENDBRANCH   4   5
ENDBRANCH   3   4
ENDBRANCH   2   3
ENDBRANCH   1   2
BRANCH   1   9
ATOM      9  C   LIG A   1      -8.959  -4.025 127.730  0.00  0.00    +0.000 C 
BRANCH   9  10
ATOM     10  C   LIG A   1      -8.318  -3.276 128.907  0.00  0.00    +0.002 C 
BRANCH  10  11
ATOM     11  C   LIG A   1      -7.092  -2.460 128.497  0.00  0.00    +0.031 C 
BRANCH  11  12
ATOM     12  C   LIG A   1      -5.807  -2.913 129.192  0.00  0.00    +0.201 C 
BRANCH  12  13
ATOM     13  O   LIG A   1      -4.672  -2.814 128.332  0.00  0.00    -0.235 OA
BRANCH  13  14
ATOM     14  O   LIG A   1      -3.532  -3.280 129.116  0.00  0.00    -0.238 OA
ATOM     15  C   LIG A   1      -3.311  -2.278 130.097  0.00  0.00    +0.238 C 
ENDBRANCH  13  14
ENDBRANCH  12  13
ENDBRANCH  11  12
ENDBRANCH  10  11
ENDBRANCH   9  10
ENDBRANCH   1   9
TORSDOF 12
ENDMDL
MODEL 3
REMARK VINA RESULT:      -4.5      1.760      2.100
REMARK  Name = NuBBE_1810
REMARK  14 active torsions:
REMARK  status: ('A' for Active; 'I' for Inactive)
REMARK    1  A    between atoms: C_1  and  O_2
REMARK    2  A    between atoms: O_2  and  O_3
REMARK    3  A    between atoms: O_3  and  C_4
REMARK    4  A    between atoms: C_4  and  C_5
REMARK    5  A    between atoms: C_5  and  C_6
REMARK    6  A    between atoms: C_6  and  C_7
REMARK    7  A    between atoms: C_7  and  C_8
REMARK    8  A    between atoms: C_8  and  C_9
REMARK    9  A    between atoms: C_9  and  C_10
REMARK   10  A    between atoms: C_10  and  C_11
REMARK   11  A    between atoms: C_11  and  C_12
REMARK   12  A    between atoms: C_12  and  O_13
REMARK   13  A    between atoms: O_13  and  O_14
REMARK   14  A    between atoms: O_14  and  C_15
REMARK                            x       y       z     vdW  Elec       q    Type
REMARK                         _______ _______ _______ _____ _____    ______ ____
ROOT
ATOM      1  C   LIG A   1      -7.603  -2.918 125.512  0.00  0.00    -0.000 C 
ENDROOT
BRANCH   1   2
ATOM      2  C   LIG A   1      -8.414  -2.505 126.742  0.00  0.00    +0.000 C 
BRANCH   2   3
ATOM      3  C   LIG A   1      -8.862  -3.656 127.652  0.00  0.00    +0.002 C 
BRANCH   3   4
ATOM      4  C   LIG A   1      -8.512  -3.441 129.130  0.00  0.00    +0.031 C 
BRANCH   4   5
ATOM      5  C   LIG A   1      -7.750  -2.138 129.359  0.00  0.00    +0.201 C 
BRANCH   5   6
ATOM      6  O   LIG A   1      -7.414  -2.051 130.741  0.00  0.00    -0.235 OA
BRANCH   6   8
ATOM      7  C   LIG A   1      -7.745   0.104 130.081  0.00  0.00    +0.238 C 
ATOM      8  O   LIG A   1      -6.950  -0.688 130.952  0.00  0.00    -0.238 OA
ENDBRANCH   6   8
ENDBRANCH   5   6
ENDBRANCH   4   5
ENDBRANCH   3   4
ENDBRANCH   2   3
ENDBRANCH   1   2
BRANCH   1   9
ATOM      9  C   LIG A   1      -8.345  -3.864 124.563  0.00  0.00    +0.000 C 
BRANCH   9  10
ATOM     10  C   LIG A   1      -9.229  -3.136 123.541  0.00  0.00    +0.002 C 
BRANCH  10  11
ATOM     11  C   LIG A   1      -8.509  -1.982 122.844  0.00  0.00    +0.031 C 
BRANCH  11  12
ATOM     12  C   LIG A   1      -9.177  -0.625 123.079  0.00  0.00    +0.201 C 
BRANCH  12  13
ATOM     13  O   LIG A   1     -10.376  -0.483 122.318  0.00  0.00    -0.235 OA
BRANCH  13  14
ATOM     14  O   LIG A   1     -11.101   0.633 122.918  0.00  0.00    -0.238 OA
ATOM     15  C   LIG A   1     -10.137   1.351 123.673  0.00  0.00    +0.238 C 
ENDBRANCH  13  14
ENDBRANCH  12  13
ENDBRANCH  11  12
ENDBRANCH  10  11
ENDBRANCH   9  10
ENDBRANCH   1   9
TORSDOF 12
ENDMDL
MODEL 4
REMARK VINA RESULT:      -4.5      2.191      6.941
REMARK  Name = NuBBE_1810
REMARK  14 active torsions:
REMARK  status: ('A' for Active; 'I' for Inactive)
REMARK    1  A    between atoms: C_1  and  O_2
REMARK    2  A    between atoms: O_2  and  O_3
REMARK    3  A    between atoms: O_3  and  C_4
REMARK    4  A    between atoms: C_4  and  C_5
REMARK    5  A    between atoms: C_5  and  C_6
REMARK    6  A    between atoms: C_6  and  C_7
REMARK    7  A    between atoms: C_7  and  C_8
REMARK    8  A    between atoms: C_8  and  C_9
REMARK    9  A    between atoms: C_9  and  C_10
REMARK   10  A    between atoms: C_10  and  C_11
REMARK   11  A    between atoms: C_11  and  C_12
REMARK   12  A    between atoms: C_12  and  O_13
REMARK   13  A    between atoms: O_13  and  O_14
REMARK   14  A    between atoms: O_14  and  C_15
REMARK                            x       y       z     vdW  Elec       q    Type
REMARK                         _______ _______ _______ _____ _____    ______ ____
ROOT
ATOM      1  C   LIG A   1      -9.001  -3.027 126.480  0.00  0.00    -0.000 C 
ENDROOT
BRANCH   1   2
ATOM      2  C   LIG A   1      -8.429  -3.671 125.215  0.00  0.00    +0.000 C 
BRANCH   2   3
ATOM      3  C   LIG A   1      -9.189  -3.364 123.918  0.00  0.00    +0.002 C 
BRANCH   3   4
ATOM      4  C   LIG A   1      -8.482  -2.339 123.022  0.00  0.00    +0.031 C 
BRANCH   4   5
ATOM      5  C   LIG A   1      -9.073  -0.939 123.168  0.00  0.00    +0.201 C 
BRANCH   5   6
ATOM      6  O   LIG A   1     -10.352  -0.923 122.539  0.00  0.00    -0.235 OA
BRANCH   6   8
ATOM      7  C   LIG A   1      -9.783   1.148 123.299  0.00  0.00    +0.238 C 
ATOM      8  O   LIG A   1     -10.793   0.463 122.571  0.00  0.00    -0.238 OA
ENDBRANCH   6   8
ENDBRANCH   5   6
ENDBRANCH   4   5
ENDBRANCH   3   4
ENDBRANCH   2   3
ENDBRANCH   1   2
BRANCH   1   9
ATOM      9  C   LIG A   1      -8.987  -3.941 127.709  0.00  0.00    +0.000 C 
BRANCH   9  10
ATOM     10  C   LIG A   1      -8.329  -3.303 128.940  0.00  0.00    +0.002 C 
BRANCH  10  11
ATOM     11  C   LIG A   1      -7.461  -2.094 128.592  0.00  0.00    +0.031 C 
BRANCH  11  12
ATOM     12  C   LIG A   1      -7.013  -1.300 129.820  0.00  0.00    +0.201 C 
BRANCH  12  13
ATOM     13  O   LIG A   1      -6.920   0.098 129.547  0.00  0.00    -0.235 OA
BRANCH  13  14
ATOM     14  O   LIG A   1      -8.278   0.621 129.668  0.00  0.00    -0.238 OA
ATOM     15  C   LIG A   1      -8.144   2.034 129.641  0.00  0.00    +0.238 C 
ENDBRANCH  13  14
ENDBRANCH  12  13
ENDBRANCH  11  12
ENDBRANCH  10  11
ENDBRANCH   9  10
ENDBRANCH   1   9
TORSDOF 12
ENDMDL
MODEL 5
REMARK VINA RESULT:      -4.5      1.808      2.821
REMARK  Name = NuBBE_1810
REMARK  14 active torsions:
REMARK  status: ('A' for Active; 'I' for Inactive)
REMARK    1  A    between atoms: C_1  and  O_2
REMARK    2  A    between atoms: O_2  and  O_3
REMARK    3  A    between atoms: O_3  and  C_4
REMARK    4  A    between atoms: C_4  and  C_5
REMARK    5  A    between atoms: C_5  and  C_6
REMARK    6  A    between atoms: C_6  and  C_7
REMARK    7  A    between atoms: C_7  and  C_8
REMARK    8  A    between atoms: C_8  and  C_9
REMARK    9  A    between atoms: C_9  and  C_10
REMARK   10  A    between atoms: C_10  and  C_11
REMARK   11  A    between atoms: C_11  and  C_12
REMARK   12  A    between atoms: C_12  and  O_13
REMARK   13  A    between atoms: O_13  and  O_14
REMARK   14  A    between atoms: O_14  and  C_15
REMARK                            x       y       z     vdW  Elec       q    Type
REMARK                         _______ _______ _______ _____ _____    ______ ____
ROOT
ATOM      1  C   LIG A   1      -8.908  -3.981 127.574  0.00  0.00    -0.000 C 
ENDROOT
BRANCH   1   2
ATOM      2  C   LIG A   1      -8.469  -3.223 128.829  0.00  0.00    +0.000 C 
BRANCH   2   3
ATOM      3  C   LIG A   1      -6.954  -3.157 129.061  0.00  0.00    +0.002 C 
BRANCH   3   4
ATOM      4  C   LIG A   1      -6.387  -1.733 129.014  0.00  0.00    +0.031 C 
BRANCH   4   5
ATOM      5  C   LIG A   1      -6.235  -1.220 127.584  0.00  0.00    +0.201 C 
BRANCH   5   6
ATOM      6  O   LIG A   1      -5.598  -2.231 126.809  0.00  0.00    -0.235 OA
BRANCH   6   8
ATOM      7  C   LIG A   1      -6.349  -0.548 125.471  0.00  0.00    +0.238 C 
ATOM      8  O   LIG A   1      -5.536  -1.712 125.451  0.00  0.00    -0.238 OA
ENDBRANCH   6   8
ENDBRANCH   5   6
ENDBRANCH   4   5
ENDBRANCH   3   4
ENDBRANCH   2   3
ENDBRANCH   1   2
BRANCH   1   9
ATOM      9  C   LIG A   1      -9.157  -3.084 126.357  0.00  0.00    +0.000 C 
BRANCH   9  10
ATOM     10  C   LIG A   1      -8.510  -3.607 125.068  0.00  0.00    +0.002 C 
BRANCH  10  11
ATOM     11  C   LIG A   1      -9.342  -3.308 123.820  0.00  0.00    +0.031 C 
BRANCH  11  12
ATOM     12  C   LIG A   1      -8.840  -2.092 123.038  0.00  0.00    +0.201 C 
BRANCH  12  13
ATOM     13  O   LIG A   1      -9.867  -1.120 122.846  0.00  0.00    -0.235 OA
BRANCH  13  14
ATOM     14  O   LIG A   1      -9.754  -0.191 123.967  0.00  0.00    -0.238 OA
ATOM     15  C   LIG A   1      -9.917   1.103 123.406  0.00  0.00    +0.238 C 
ENDBRANCH  13  14
ENDBRANCH  12  13
ENDBRANCH  11  12
ENDBRANCH  10  11
ENDBRANCH   9  10
ENDBRANCH   1   9
TORSDOF 12
ENDMDL
MODEL 6
REMARK VINA RESULT:      -4.5      9.898     10.524
REMARK  Name = NuBBE_1810
REMARK  14 active torsions:
REMARK  status: ('A' for Active; 'I' for Inactive)
REMARK    1  A    between atoms: C_1  and  O_2
REMARK    2  A    between atoms: O_2  and  O_3
REMARK    3  A    between atoms: O_3  and  C_4
REMARK    4  A    between atoms: C_4  and  C_5
REMARK    5  A    between atoms: C_5  and  C_6
REMARK    6  A    between atoms: C_6  and  C_7
REMARK    7  A    between atoms: C_7  and  C_8
REMARK    8  A    between atoms: C_8  and  C_9
REMARK    9  A    between atoms: C_9  and  C_10
REMARK   10  A    between atoms: C_10  and  C_11
REMARK   11  A    between atoms: C_11  and  C_12
REMARK   12  A    between atoms: C_12  and  O_13
REMARK   13  A    between atoms: O_13  and  O_14
REMARK   14  A    between atoms: O_14  and  C_15
REMARK                            x       y       z     vdW  Elec       q    Type
REMARK                         _______ _______ _______ _____ _____    ______ ____
ROOT
ATOM      1  C   LIG A   1      -8.902   6.653 131.147  0.00  0.00    -0.000 C 
ENDROOT
BRANCH   1   2
ATOM      2  C   LIG A   1      -7.489   6.377 131.666  0.00  0.00    +0.000 C 
BRANCH   2   3
ATOM      3  C   LIG A   1      -6.362   7.109 130.926  0.00  0.00    +0.002 C 
BRANCH   3   4
ATOM      4  C   LIG A   1      -4.961   6.762 131.444  0.00  0.00    +0.031 C 
BRANCH   4   5
ATOM      5  C   LIG A   1      -4.049   6.241 130.336  0.00  0.00    +0.201 C 
BRANCH   5   6
ATOM      6  O   LIG A   1      -4.772   6.267 129.109  0.00  0.00    -0.235 OA
BRANCH   6   8
ATOM      7  C   LIG A   1      -2.701   6.592 128.217  0.00  0.00    +0.238 C 
ATOM      8  O   LIG A   1      -4.014   7.134 128.219  0.00  0.00    -0.238 OA
ENDBRANCH   6   8
ENDBRANCH   5   6
ENDBRANCH   4   5
ENDBRANCH   3   4
ENDBRANCH   2   3
ENDBRANCH   1   2
BRANCH   1   9
ATOM      9  C   LIG A   1     -10.016   6.173 132.083  0.00  0.00    +0.000 C 
BRANCH   9  10
ATOM     10  C   LIG A   1     -11.427   6.422 131.534  0.00  0.00    +0.002 C 
BRANCH  10  11
ATOM     11  C   LIG A   1     -11.711   5.648 130.246  0.00  0.00    +0.031 C 
BRANCH  11  12
ATOM     12  C   LIG A   1     -12.498   6.460 129.215  0.00  0.00    +0.201 C 
BRANCH  12  13
ATOM     13  O   LIG A   1     -11.823   6.524 127.960  0.00  0.00    -0.235 OA
BRANCH  13  14
ATOM     14  O   LIG A   1     -11.832   7.932 127.571  0.00  0.00    -0.238 OA
ATOM     15  C   LIG A   1     -10.633   8.479 128.098  0.00  0.00    +0.238 C 
ENDBRANCH  13  14
ENDBRANCH  12  13
ENDBRANCH  11  12
ENDBRANCH  10  11
ENDBRANCH   9  10
ENDBRANCH   1   9
TORSDOF 12
ENDMDL
MODEL 7
REMARK VINA RESULT:      -4.4      2.568      6.298
REMARK  Name = NuBBE_1810
REMARK  14 active torsions:
REMARK  status: ('A' for Active; 'I' for Inactive)
REMARK    1  A    between atoms: C_1  and  O_2
REMARK    2  A    between atoms: O_2  and  O_3
REMARK    3  A    between atoms: O_3  and  C_4
REMARK    4  A    between atoms: C_4  and  C_5
REMARK    5  A    between atoms: C_5  and  C_6
REMARK    6  A    between atoms: C_6  and  C_7
REMARK    7  A    between atoms: C_7  and  C_8
REMARK    8  A    between atoms: C_8  and  C_9
REMARK    9  A    between atoms: C_9  and  C_10
REMARK   10  A    between atoms: C_10  and  C_11
REMARK   11  A    between atoms: C_11  and  C_12
REMARK   12  A    between atoms: C_12  and  O_13
REMARK   13  A    between atoms: O_13  and  O_14
REMARK   14  A    between atoms: O_14  and  C_15
REMARK                            x       y       z     vdW  Elec       q    Type
REMARK                         _______ _______ _______ _____ _____    ______ ____
ROOT
ATOM      1  C   LIG A   1      -9.316  -3.233 126.048  0.00  0.00    -0.000 C 
ENDROOT
BRANCH   1   2
ATOM      2  C   LIG A   1      -8.639  -3.644 124.739  0.00  0.00    +0.000 C 
BRANCH   2   3
ATOM      3  C   LIG A   1      -9.268  -3.069 123.463  0.00  0.00    +0.002 C 
BRANCH   3   4
ATOM      4  C   LIG A   1      -8.336  -2.125 122.692  0.00  0.00    +0.031 C 
BRANCH   4   5
ATOM      5  C   LIG A   1      -8.683  -0.656 122.924  0.00  0.00    +0.201 C 
BRANCH   5   6
ATOM      6  O   LIG A   1      -9.868  -0.593 123.713  0.00  0.00    -0.235 OA
BRANCH   6   8
ATOM      7  C   LIG A   1      -9.809   1.641 124.151  0.00  0.00    +0.238 C 
ATOM      8  O   LIG A   1     -10.502   0.672 123.378  0.00  0.00    -0.238 OA
ENDBRANCH   6   8
ENDBRANCH   5   6
ENDBRANCH   4   5
ENDBRANCH   3   4
ENDBRANCH   2   3
ENDBRANCH   1   2
BRANCH   1   9
ATOM      9  C   LIG A   1      -8.384  -2.528 127.039  0.00  0.00    +0.000 C 
BRANCH   9  10
ATOM     10  C   LIG A   1      -8.112  -1.060 126.687  0.00  0.00    +0.002 C 
BRANCH  10  11
ATOM     11  C   LIG A   1      -6.730  -0.841 126.071  0.00  0.00    +0.031 C 
BRANCH  11  12
ATOM     12  C   LIG A   1      -5.658  -1.762 126.654  0.00  0.00    +0.201 C 
BRANCH  12  13
ATOM     13  O   LIG A   1      -5.265  -2.776 125.729  0.00  0.00    -0.235 OA
BRANCH  13  14
ATOM     14  O   LIG A   1      -5.326  -2.158 124.408  0.00  0.00    -0.238 OA
ATOM     15  C   LIG A   1      -4.878  -3.154 123.502  0.00  0.00    +0.238 C 
ENDBRANCH  13  14
ENDBRANCH  12  13
ENDBRANCH  11  12
ENDBRANCH  10  11
ENDBRANCH   9  10
ENDBRANCH   1   9
TORSDOF 12
ENDMDL
MODEL 8
REMARK VINA RESULT:      -4.3      8.725     11.605
REMARK  Name = NuBBE_1810
REMARK  14 active torsions:
REMARK  status: ('A' for Active; 'I' for Inactive)
REMARK    1  A    between atoms: C_1  and  O_2
REMARK    2  A    between atoms: O_2  and  O_3
REMARK    3  A    between atoms: O_3  and  C_4
REMARK    4  A    between atoms: C_4  and  C_5
REMARK    5  A    between atoms: C_5  and  C_6
REMARK    6  A    between atoms: C_6  and  C_7
REMARK    7  A    between atoms: C_7  and  C_8
REMARK    8  A    between atoms: C_8  and  C_9
REMARK    9  A    between atoms: C_9  and  C_10
REMARK   10  A    between atoms: C_10  and  C_11
REMARK   11  A    between atoms: C_11  and  C_12
REMARK   12  A    between atoms: C_12  and  O_13
REMARK   13  A    between atoms: O_13  and  O_14
REMARK   14  A    between atoms: O_14  and  C_15
REMARK                            x       y       z     vdW  Elec       q    Type
REMARK                         _______ _______ _______ _____ _____    ______ ____
ROOT
ATOM      1  C   LIG A   1      -8.832   6.459 131.476  0.00  0.00    -0.000 C 
ENDROOT
BRANCH   1   2
ATOM      2  C   LIG A   1      -9.979   6.884 130.557  0.00  0.00    +0.000 C 
BRANCH   2   3
ATOM      3  C   LIG A   1     -11.388   6.540 131.060  0.00  0.00    +0.002 C 
BRANCH   3   4
ATOM      4  C   LIG A   1     -12.467   7.516 130.577  0.00  0.00    +0.031 C 
BRANCH   4   5
ATOM      5  C   LIG A   1     -13.158   7.029 129.306  0.00  0.00    +0.201 C 
BRANCH   5   6
ATOM      6  O   LIG A   1     -12.597   7.722 128.195  0.00  0.00    -0.235 OA
BRANCH   6   8
ATOM      7  C   LIG A   1     -10.901   7.445 126.699  0.00  0.00    +0.238 C 
ATOM      8  O   LIG A   1     -11.889   6.718 127.416  0.00  0.00    -0.238 OA
ENDBRANCH   6   8
ENDBRANCH   5   6
ENDBRANCH   4   5
ENDBRANCH   3   4
ENDBRANCH   2   3
ENDBRANCH   1   2
BRANCH   1   9
ATOM      9  C   LIG A   1      -9.280   6.020 132.874  0.00  0.00    +0.000 C 
BRANCH   9  10
ATOM     10  C   LIG A   1      -8.229   5.189 133.621  0.00  0.00    +0.002 C 
BRANCH  10  11
ATOM     11  C   LIG A   1      -8.775   3.852 134.124  0.00  0.00    +0.031 C 
BRANCH  11  12
ATOM     12  C   LIG A   1      -9.214   2.917 132.995  0.00  0.00    +0.201 C 
BRANCH  12  13
ATOM     13  O   LIG A   1      -8.171   2.701 132.046  0.00  0.00    -0.235 OA
BRANCH  13  14
ATOM     14  O   LIG A   1      -8.747   3.005 130.740  0.00  0.00    -0.238 OA
ATOM     15  C   LIG A   1     -10.154   2.947 130.922  0.00  0.00    +0.238 C 
ENDBRANCH  13  14
ENDBRANCH  12  13
ENDBRANCH  11  12
ENDBRANCH  10  11
ENDBRANCH   9  10
ENDBRANCH   1   9
TORSDOF 12
ENDMDL
MODEL 9
REMARK VINA RESULT:      -4.3      1.750      2.595
REMARK  Name = NuBBE_1810
REMARK  14 active torsions:
REMARK  status: ('A' for Active; 'I' for Inactive)
REMARK    1  A    between atoms: C_1  and  O_2
REMARK    2  A    between atoms: O_2  and  O_3
REMARK    3  A    between atoms: O_3  and  C_4
REMARK    4  A    between atoms: C_4  and  C_5
REMARK    5  A    between atoms: C_5  and  C_6
REMARK    6  A    between atoms: C_6  and  C_7
REMARK    7  A    between atoms: C_7  and  C_8
REMARK    8  A    between atoms: C_8  and  C_9
REMARK    9  A    between atoms: C_9  and  C_10
REMARK   10  A    between atoms: C_10  and  C_11
REMARK   11  A    between atoms: C_11  and  C_12
REMARK   12  A    between atoms: C_12  and  O_13
REMARK   13  A    between atoms: O_13  and  O_14
REMARK   14  A    between atoms: O_14  and  C_15
REMARK                            x       y       z     vdW  Elec       q    Type
REMARK                         _______ _______ _______ _____ _____    ______ ____
ROOT
ATOM      1  C   LIG A   1      -9.341  -3.298 123.896  0.00  0.00    -0.000 C 
ENDROOT
BRANCH   1   2
ATOM      2  C   LIG A   1      -8.547  -3.639 125.159  0.00  0.00    +0.000 C 
BRANCH   2   3
ATOM      3  C   LIG A   1      -9.097  -3.045 126.462  0.00  0.00    +0.002 C 
BRANCH   3   4
ATOM      4  C   LIG A   1      -8.957  -3.982 127.669  0.00  0.00    +0.031 C 
BRANCH   4   5
ATOM      5  C   LIG A   1      -8.351  -3.276 128.880  0.00  0.00    +0.201 C 
BRANCH   5   6
ATOM      6  O   LIG A   1      -7.597  -2.159 128.418  0.00  0.00    -0.235 OA
BRANCH   6   8
ATOM      7  C   LIG A   1      -5.688  -1.537 129.494  0.00  0.00    +0.238 C 
ATOM      8  O   LIG A   1      -6.199  -2.519 128.605  0.00  0.00    -0.238 OA
ENDBRANCH   6   8
ENDBRANCH   5   6
ENDBRANCH   4   5
ENDBRANCH   3   4
ENDBRANCH   2   3
ENDBRANCH   1   2
BRANCH   1   9
ATOM      9  C   LIG A   1      -8.596  -2.385 122.916  0.00  0.00    +0.000 C 
BRANCH   9  10
ATOM     10  C   LIG A   1      -7.218  -1.938 123.422  0.00  0.00    +0.002 C 
BRANCH  10  11
ATOM     11  C   LIG A   1      -6.973  -0.440 123.240  0.00  0.00    +0.031 C 
BRANCH  11  12
ATOM     12  C   LIG A   1      -8.140   0.425 123.723  0.00  0.00    +0.201 C 
BRANCH  12  13
ATOM     13  O   LIG A   1      -8.502   0.127 125.070  0.00  0.00    -0.235 OA
BRANCH  13  14
ATOM     14  O   LIG A   1      -9.934   0.391 125.169  0.00  0.00    -0.238 OA
ATOM     15  C   LIG A   1     -10.211   1.362 124.171  0.00  0.00    +0.238 C 
ENDBRANCH  13  14
ENDBRANCH  12  13
ENDBRANCH  11  12
ENDBRANCH  10  11
ENDBRANCH   9  10
ENDBRANCH   1   9
TORSDOF 12
ENDMDL
