MODEL 1
REMARK VINA RESULT:      -8.3      0.000      0.000
REMARK  Name = NuBBE_1860
REMARK  6 active torsions:
REMARK  status: ('A' for Active; 'I' for Inactive)
REMARK    1  A    between atoms: O_1  and  C_2
REMARK    2  A    between atoms: C_7  and  C_8
REMARK    3  A    between atoms: C_8  and  C_9
REMARK    4  A    between atoms: C_9  and  C_10
REMARK    5  A    between atoms: C_13  and  C_18
REMARK    6  A    between atoms: C_21  and  O_22
REMARK                            x       y       z     vdW  Elec       q    Type
REMARK                         _______ _______ _______ _____ _____    ______ ____
ROOT
ATOM      1  C   LIG A   1      -8.601   1.883 123.594  0.00  0.00    +0.119 C 
ATOM      2  O   LIG A   1      -7.733   0.748 123.541  0.00  0.00    -0.369 OA
ATOM      3  C   LIG A   1      -8.430  -0.489 123.743  0.00  0.00    +0.149 C 
ATOM      4  C   LIG A   1      -9.469  -0.696 122.633  0.00  0.00    +0.036 C 
ATOM      5  C   LIG A   1     -10.407   0.504 122.534  0.00  0.00    +0.005 C 
ATOM      6  C   LIG A   1      -9.613   1.804 122.448  0.00  0.00    +0.032 C 
ENDROOT
BRANCH   3   7
ATOM      7  C   LIG A   1      -7.427  -1.627 123.776  0.00  0.00    -0.019 A 
ATOM      8  C   LIG A   1      -7.591  -2.722 124.640  0.00  0.00    +0.010 A 
ATOM      9  C   LIG A   1      -6.661  -3.764 124.668  0.00  0.00    +0.046 A 
ATOM     10  C   LIG A   1      -5.552  -3.709 123.834  0.00  0.00    +0.117 A 
ATOM     11  C   LIG A   1      -5.360  -2.633 122.976  0.00  0.00    +0.046 A 
ATOM     12  C   LIG A   1      -6.294  -1.593 122.948  0.00  0.00    +0.010 A 
BRANCH  10  13
ATOM     13  O   LIG A   1      -4.616  -4.700 123.830  0.00  0.00    -0.507 OA
ATOM     14  H   LIG A   1      -4.543  -5.046 122.924  0.00  0.00    +0.292 HD
ENDBRANCH  10  13
ENDBRANCH   3   7
BRANCH   1  15
ATOM     15  C   LIG A   1      -7.747   3.154 123.481  0.00  0.00    +0.036 C 
BRANCH  15  16
ATOM     16  C   LIG A   1      -6.412   2.934 122.754  0.00  0.00    +0.037 C 
BRANCH  16  22
ATOM     17  C   LIG A   1      -5.930   5.262 119.164  0.00  0.00    +0.117 A 
ATOM     18  C   LIG A   1      -7.078   4.497 119.340  0.00  0.00    +0.045 A 
ATOM     19  C   LIG A   1      -7.228   3.746 120.508  0.00  0.00    +0.007 A 
ATOM     20  C   LIG A   1      -4.943   5.298 120.141  0.00  0.00    +0.045 A 
ATOM     21  C   LIG A   1      -5.097   4.553 121.311  0.00  0.00    +0.007 A 
ATOM     22  C   LIG A   1      -6.237   3.759 121.502  0.00  0.00    -0.047 A 
BRANCH  17  23
ATOM     23  O   LIG A   1      -5.735   5.999 118.033  0.00  0.00    -0.507 OA
ATOM     24  H   LIG A   1      -6.326   6.769 118.063  0.00  0.00    +0.292 HD
ENDBRANCH  17  23
ENDBRANCH  16  22
ENDBRANCH  15  16
ENDBRANCH   1  15
TORSDOF 6
ENDMDL
MODEL 2
REMARK VINA RESULT:      -7.9      2.960      3.759
REMARK  Name = NuBBE_1860
REMARK  6 active torsions:
REMARK  status: ('A' for Active; 'I' for Inactive)
REMARK    1  A    between atoms: O_1  and  C_2
REMARK    2  A    between atoms: C_7  and  C_8
REMARK    3  A    between atoms: C_8  and  C_9
REMARK    4  A    between atoms: C_9  and  C_10
REMARK    5  A    between atoms: C_13  and  C_18
REMARK    6  A    between atoms: C_21  and  O_22
REMARK                            x       y       z     vdW  Elec       q    Type
REMARK                         _______ _______ _______ _____ _____    ______ ____
ROOT
ATOM      1  C   LIG A   1      -8.072  -0.594 123.774  0.00  0.00    +0.119 C 
ATOM      2  O   LIG A   1      -7.784  -1.071 125.091  0.00  0.00    -0.369 OA
ATOM      3  C   LIG A   1      -8.801  -1.948 125.593  0.00  0.00    +0.149 C 
ATOM      4  C   LIG A   1      -8.912  -3.193 124.704  0.00  0.00    +0.036 C 
ATOM      5  C   LIG A   1      -9.133  -2.803 123.245  0.00  0.00    +0.005 C 
ATOM      6  C   LIG A   1      -8.099  -1.774 122.799  0.00  0.00    +0.032 C 
ENDROOT
BRANCH   3   7
ATOM      7  C   LIG A   1      -8.472  -2.324 127.026  0.00  0.00    -0.019 A 
ATOM      8  C   LIG A   1      -8.855  -3.564 127.564  0.00  0.00    +0.010 A 
ATOM      9  C   LIG A   1      -8.553  -3.901 128.885  0.00  0.00    +0.046 A 
ATOM     10  C   LIG A   1      -7.871  -2.989 129.681  0.00  0.00    +0.117 A 
ATOM     11  C   LIG A   1      -7.489  -1.752 129.177  0.00  0.00    +0.046 A 
ATOM     12  C   LIG A   1      -7.790  -1.418 127.854  0.00  0.00    +0.010 A 
BRANCH  10  13
ATOM     13  O   LIG A   1      -7.558  -3.273 130.977  0.00  0.00    -0.507 OA
ATOM     14  H   LIG A   1      -8.386  -3.371 131.477  0.00  0.00    +0.292 HD
ENDBRANCH  10  13
ENDBRANCH   3   7
BRANCH   1  15
ATOM     15  C   LIG A   1      -6.988   0.418 123.376  0.00  0.00    +0.036 C 
BRANCH  15  16
ATOM     16  C   LIG A   1      -7.422   1.881 123.544  0.00  0.00    +0.037 C 
BRANCH  16  22
ATOM     17  C   LIG A   1      -7.395   4.175 119.900  0.00  0.00    +0.117 A 
ATOM     18  C   LIG A   1      -8.605   3.861 120.508  0.00  0.00    +0.045 A 
ATOM     19  C   LIG A   1      -8.606   3.119 121.691  0.00  0.00    +0.007 A 
ATOM     20  C   LIG A   1      -6.191   3.771 120.463  0.00  0.00    +0.045 A 
ATOM     21  C   LIG A   1      -6.193   3.035 121.649  0.00  0.00    +0.007 A 
ATOM     22  C   LIG A   1      -7.402   2.691 122.270  0.00  0.00    -0.047 A 
BRANCH  17  23
ATOM     23  O   LIG A   1      -7.348   4.884 118.736  0.00  0.00    -0.507 OA
ATOM     24  H   LIG A   1      -7.869   5.696 118.851  0.00  0.00    +0.292 HD
ENDBRANCH  17  23
ENDBRANCH  16  22
ENDBRANCH  15  16
ENDBRANCH   1  15
TORSDOF 6
ENDMDL
MODEL 3
REMARK VINA RESULT:      -7.5      8.661     11.326
REMARK  Name = NuBBE_1860
REMARK  6 active torsions:
REMARK  status: ('A' for Active; 'I' for Inactive)
REMARK    1  A    between atoms: O_1  and  C_2
REMARK    2  A    between atoms: C_7  and  C_8
REMARK    3  A    between atoms: C_8  and  C_9
REMARK    4  A    between atoms: C_9  and  C_10
REMARK    5  A    between atoms: C_13  and  C_18
REMARK    6  A    between atoms: C_21  and  O_22
REMARK                            x       y       z     vdW  Elec       q    Type
REMARK                         _______ _______ _______ _____ _____    ______ ____
ROOT
ATOM      1  C   LIG A   1      -7.075   6.300 131.172  0.00  0.00    +0.119 C 
ATOM      2  O   LIG A   1      -8.166   7.091 130.694  0.00  0.00    -0.369 OA
ATOM      3  C   LIG A   1      -9.414   6.385 130.726  0.00  0.00    +0.149 C 
ATOM      4  C   LIG A   1      -9.766   6.001 132.169  0.00  0.00    +0.036 C 
ATOM      5  C   LIG A   1      -8.626   5.221 132.819  0.00  0.00    +0.005 C 
ATOM      6  C   LIG A   1      -7.302   5.957 132.646  0.00  0.00    +0.032 C 
ENDROOT
BRANCH   3   7
ATOM      7  C   LIG A   1     -10.494   7.254 130.109  0.00  0.00    -0.019 A 
ATOM      8  C   LIG A   1     -11.760   7.382 130.707  0.00  0.00    +0.010 A 
ATOM      9  C   LIG A   1     -12.751   8.180 130.130  0.00  0.00    +0.046 A 
ATOM     10  C   LIG A   1     -12.482   8.848 128.943  0.00  0.00    +0.117 A 
ATOM     11  C   LIG A   1     -11.242   8.731 128.326  0.00  0.00    +0.046 A 
ATOM     12  C   LIG A   1     -10.251   7.935 128.906  0.00  0.00    +0.010 A 
BRANCH  10  13
ATOM     13  O   LIG A   1     -13.419   9.634 128.342  0.00  0.00    -0.507 OA
ATOM     14  H   LIG A   1     -14.268   9.499 128.797  0.00  0.00    +0.292 HD
ENDBRANCH  10  13
ENDBRANCH   3   7
BRANCH   1  15
ATOM     15  C   LIG A   1      -5.778   7.102 130.992  0.00  0.00    +0.036 C 
BRANCH  15  16
ATOM     16  C   LIG A   1      -4.512   6.309 131.348  0.00  0.00    +0.037 C 
BRANCH  16  22
ATOM     17  C   LIG A   1      -2.496   4.593 127.952  0.00  0.00    +0.117 A 
ATOM     18  C   LIG A   1      -2.361   5.951 128.219  0.00  0.00    +0.045 A 
ATOM     19  C   LIG A   1      -3.017   6.500 129.323  0.00  0.00    +0.007 A 
ATOM     20  C   LIG A   1      -3.259   3.778 128.777  0.00  0.00    +0.045 A 
ATOM     21  C   LIG A   1      -3.909   4.326 129.884  0.00  0.00    +0.007 A 
ATOM     22  C   LIG A   1      -3.803   5.697 130.163  0.00  0.00    -0.047 A 
BRANCH  17  23
ATOM     23  O   LIG A   1      -1.886   4.018 126.876  0.00  0.00    -0.507 OA
ATOM     24  H   LIG A   1      -2.140   3.081 126.843  0.00  0.00    +0.292 HD
ENDBRANCH  17  23
ENDBRANCH  16  22
ENDBRANCH  15  16
ENDBRANCH   1  15
TORSDOF 6
ENDMDL
MODEL 4
REMARK VINA RESULT:      -7.4      2.872      4.069
REMARK  Name = NuBBE_1860
REMARK  6 active torsions:
REMARK  status: ('A' for Active; 'I' for Inactive)
REMARK    1  A    between atoms: O_1  and  C_2
REMARK    2  A    between atoms: C_7  and  C_8
REMARK    3  A    between atoms: C_8  and  C_9
REMARK    4  A    between atoms: C_9  and  C_10
REMARK    5  A    between atoms: C_13  and  C_18
REMARK    6  A    between atoms: C_21  and  O_22
REMARK                            x       y       z     vdW  Elec       q    Type
REMARK                         _______ _______ _______ _____ _____    ______ ____
ROOT
ATOM      1  C   LIG A   1      -8.985  -0.842 123.909  0.00  0.00    +0.119 C 
ATOM      2  O   LIG A   1      -8.190  -1.180 125.049  0.00  0.00    -0.369 OA
ATOM      3  C   LIG A   1      -8.691  -2.326 125.750  0.00  0.00    +0.149 C 
ATOM      4  C   LIG A   1      -8.667  -3.557 124.835  0.00  0.00    +0.036 C 
ATOM      5  C   LIG A   1      -9.417  -3.283 123.534  0.00  0.00    +0.005 C 
ATOM      6  C   LIG A   1      -8.931  -1.987 122.894  0.00  0.00    +0.032 C 
ENDROOT
BRANCH   3   7
ATOM      7  C   LIG A   1      -7.856  -2.551 126.997  0.00  0.00    -0.019 A 
ATOM      8  C   LIG A   1      -6.533  -2.084 127.086  0.00  0.00    +0.010 A 
ATOM      9  C   LIG A   1      -5.770  -2.301 128.235  0.00  0.00    +0.046 A 
ATOM     10  C   LIG A   1      -6.325  -2.997 129.301  0.00  0.00    +0.117 A 
ATOM     11  C   LIG A   1      -7.627  -3.478 129.235  0.00  0.00    +0.046 A 
ATOM     12  C   LIG A   1      -8.391  -3.258 128.086  0.00  0.00    +0.010 A 
BRANCH  10  13
ATOM     13  O   LIG A   1      -5.616  -3.235 130.441  0.00  0.00    -0.507 OA
ATOM     14  H   LIG A   1      -5.938  -4.064 130.833  0.00  0.00    +0.292 HD
ENDBRANCH  10  13
ENDBRANCH   3   7
BRANCH   1  15
ATOM     15  C   LIG A   1      -8.435   0.455 123.299  0.00  0.00    +0.036 C 
BRANCH  15  16
ATOM     16  C   LIG A   1      -7.670   1.329 124.303  0.00  0.00    +0.037 C 
BRANCH  16  22
ATOM     17  C   LIG A   1      -5.240   4.414 122.537  0.00  0.00    +0.117 A 
ATOM     18  C   LIG A   1      -5.288   4.283 123.920  0.00  0.00    +0.045 A 
ATOM     19  C   LIG A   1      -6.077   3.278 124.486  0.00  0.00    +0.007 A 
ATOM     20  C   LIG A   1      -5.953   3.551 121.716  0.00  0.00    +0.045 A 
ATOM     21  C   LIG A   1      -6.736   2.544 122.282  0.00  0.00    +0.007 A 
ATOM     22  C   LIG A   1      -6.815   2.404 123.674  0.00  0.00    -0.047 A 
BRANCH  17  23
ATOM     23  O   LIG A   1      -4.495   5.390 121.942  0.00  0.00    -0.507 OA
ATOM     24  H   LIG A   1      -4.373   5.156 121.008  0.00  0.00    +0.292 HD
ENDBRANCH  17  23
ENDBRANCH  16  22
ENDBRANCH  15  16
ENDBRANCH   1  15
TORSDOF 6
ENDMDL
MODEL 5
REMARK VINA RESULT:      -7.1      3.828      5.935
REMARK  Name = NuBBE_1860
REMARK  6 active torsions:
REMARK  status: ('A' for Active; 'I' for Inactive)
REMARK    1  A    between atoms: O_1  and  C_2
REMARK    2  A    between atoms: C_7  and  C_8
REMARK    3  A    between atoms: C_8  and  C_9
REMARK    4  A    between atoms: C_9  and  C_10
REMARK    5  A    between atoms: C_13  and  C_18
REMARK    6  A    between atoms: C_21  and  O_22
REMARK                            x       y       z     vdW  Elec       q    Type
REMARK                         _______ _______ _______ _____ _____    ______ ____
ROOT
ATOM      1  C   LIG A   1      -7.423  -2.114 125.432  0.00  0.00    +0.119 C 
ATOM      2  O   LIG A   1      -6.527  -2.523 126.469  0.00  0.00    -0.369 OA
ATOM      3  C   LIG A   1      -7.152  -2.550 127.759  0.00  0.00    +0.149 C 
ATOM      4  C   LIG A   1      -8.302  -3.566 127.766  0.00  0.00    +0.036 C 
ATOM      5  C   LIG A   1      -9.287  -3.282 126.635  0.00  0.00    +0.005 C 
ATOM      6  C   LIG A   1      -8.554  -3.138 125.305  0.00  0.00    +0.032 C 
ENDROOT
BRANCH   3   7
ATOM      7  C   LIG A   1      -6.113  -2.890 128.810  0.00  0.00    -0.019 A 
ATOM      8  C   LIG A   1      -4.766  -2.519 128.655  0.00  0.00    +0.010 A 
ATOM      9  C   LIG A   1      -3.814  -2.840 129.625  0.00  0.00    +0.046 A 
ATOM     10  C   LIG A   1      -4.205  -3.545 130.755  0.00  0.00    +0.117 A 
ATOM     11  C   LIG A   1      -5.528  -3.933 130.930  0.00  0.00    +0.046 A 
ATOM     12  C   LIG A   1      -6.480  -3.608 129.959  0.00  0.00    +0.010 A 
BRANCH  10  13
ATOM     13  O   LIG A   1      -3.310  -3.884 131.727  0.00  0.00    -0.507 OA
ATOM     14  H   LIG A   1      -3.672  -4.634 132.228  0.00  0.00    +0.292 HD
ENDBRANCH  10  13
ENDBRANCH   3   7
BRANCH   1  15
ATOM     15  C   LIG A   1      -6.633  -2.009 124.120  0.00  0.00    +0.036 C 
BRANCH  15  16
ATOM     16  C   LIG A   1      -7.290  -1.088 123.081  0.00  0.00    +0.037 C 
BRANCH  16  22
ATOM     17  C   LIG A   1      -8.655   2.696 124.617  0.00  0.00    +0.117 A 
ATOM     18  C   LIG A   1      -9.580   1.762 124.165  0.00  0.00    +0.045 A 
ATOM     19  C   LIG A   1      -9.130   0.536 123.670  0.00  0.00    +0.007 A 
ATOM     20  C   LIG A   1      -7.295   2.417 124.595  0.00  0.00    +0.045 A 
ATOM     21  C   LIG A   1      -6.846   1.189 124.106  0.00  0.00    +0.007 A 
ATOM     22  C   LIG A   1      -7.759   0.239 123.628  0.00  0.00    -0.047 A 
BRANCH  17  23
ATOM     23  O   LIG A   1      -9.049   3.911 125.094  0.00  0.00    -0.507 OA
ATOM     24  H   LIG A   1      -8.256   4.427 125.313  0.00  0.00    +0.292 HD
ENDBRANCH  17  23
ENDBRANCH  16  22
ENDBRANCH  15  16
ENDBRANCH   1  15
TORSDOF 6
ENDMDL
MODEL 6
REMARK VINA RESULT:      -7.1      3.604      8.424
REMARK  Name = NuBBE_1860
REMARK  6 active torsions:
REMARK  status: ('A' for Active; 'I' for Inactive)
REMARK    1  A    between atoms: O_1  and  C_2
REMARK    2  A    between atoms: C_7  and  C_8
REMARK    3  A    between atoms: C_8  and  C_9
REMARK    4  A    between atoms: C_9  and  C_10
REMARK    5  A    between atoms: C_13  and  C_18
REMARK    6  A    between atoms: C_21  and  O_22
REMARK                            x       y       z     vdW  Elec       q    Type
REMARK                         _______ _______ _______ _____ _____    ______ ____
ROOT
ATOM      1  C   LIG A   1      -8.220  -3.157 125.558  0.00  0.00    +0.119 C 
ATOM      2  O   LIG A   1      -7.871  -1.770 125.568  0.00  0.00    -0.369 OA
ATOM      3  C   LIG A   1      -7.384  -1.314 124.299  0.00  0.00    +0.149 C 
ATOM      4  C   LIG A   1      -8.473  -1.471 123.229  0.00  0.00    +0.036 C 
ATOM      5  C   LIG A   1      -8.991  -2.906 123.185  0.00  0.00    +0.005 C 
ATOM      6  C   LIG A   1      -9.378  -3.383 124.581  0.00  0.00    +0.032 C 
ENDROOT
BRANCH   3   7
ATOM      7  C   LIG A   1      -6.942   0.132 124.424  0.00  0.00    -0.019 A 
ATOM      8  C   LIG A   1      -7.224   1.073 123.420  0.00  0.00    +0.010 A 
ATOM      9  C   LIG A   1      -6.808   2.401 123.540  0.00  0.00    +0.046 A 
ATOM     10  C   LIG A   1      -6.097   2.792 124.667  0.00  0.00    +0.117 A 
ATOM     11  C   LIG A   1      -5.797   1.880 125.671  0.00  0.00    +0.046 A 
ATOM     12  C   LIG A   1      -6.216   0.552 125.550  0.00  0.00    +0.010 A 
BRANCH  10  13
ATOM     13  O   LIG A   1      -5.669   4.077 124.826  0.00  0.00    -0.507 OA
ATOM     14  H   LIG A   1      -5.916   4.373 125.719  0.00  0.00    +0.292 HD
ENDBRANCH  10  13
ENDBRANCH   3   7
BRANCH   1  15
ATOM     15  C   LIG A   1      -8.619  -3.569 126.981  0.00  0.00    +0.036 C 
BRANCH  15  16
ATOM     16  C   LIG A   1      -8.195  -2.556 128.055  0.00  0.00    +0.037 C 
BRANCH  16  22
ATOM     17  C   LIG A   1      -4.422  -3.443 129.932  0.00  0.00    +0.117 A 
ATOM     18  C   LIG A   1      -4.466  -2.563 128.856  0.00  0.00    +0.045 A 
ATOM     19  C   LIG A   1      -5.694  -2.279 128.254  0.00  0.00    +0.007 A 
ATOM     20  C   LIG A   1      -5.584  -4.026 130.421  0.00  0.00    +0.045 A 
ATOM     21  C   LIG A   1      -6.811  -3.737 129.823  0.00  0.00    +0.007 A 
ATOM     22  C   LIG A   1      -6.878  -2.868 128.724  0.00  0.00    -0.047 A 
BRANCH  17  23
ATOM     23  O   LIG A   1      -3.244  -3.760 130.541  0.00  0.00    -0.507 OA
ATOM     24  H   LIG A   1      -3.147  -3.203 131.330  0.00  0.00    +0.292 HD
ENDBRANCH  17  23
ENDBRANCH  16  22
ENDBRANCH  15  16
ENDBRANCH   1  15
TORSDOF 6
ENDMDL
MODEL 7
REMARK VINA RESULT:      -7.1      3.441      4.948
REMARK  Name = NuBBE_1860
REMARK  6 active torsions:
REMARK  status: ('A' for Active; 'I' for Inactive)
REMARK    1  A    between atoms: O_1  and  C_2
REMARK    2  A    between atoms: C_7  and  C_8
REMARK    3  A    between atoms: C_8  and  C_9
REMARK    4  A    between atoms: C_9  and  C_10
REMARK    5  A    between atoms: C_13  and  C_18
REMARK    6  A    between atoms: C_21  and  O_22
REMARK                            x       y       z     vdW  Elec       q    Type
REMARK                         _______ _______ _______ _____ _____    ______ ____
ROOT
ATOM      1  C   LIG A   1      -8.222  -0.877 123.597  0.00  0.00    +0.119 C 
ATOM      2  O   LIG A   1      -7.883  -1.289 124.924  0.00  0.00    -0.369 OA
ATOM      3  C   LIG A   1      -8.894  -2.111 125.522  0.00  0.00    +0.149 C 
ATOM      4  C   LIG A   1      -9.074  -3.400 124.710  0.00  0.00    +0.036 C 
ATOM      5  C   LIG A   1      -9.357  -3.086 123.243  0.00  0.00    +0.005 C 
ATOM      6  C   LIG A   1      -8.322  -2.109 122.693  0.00  0.00    +0.032 C 
ENDROOT
BRANCH   3   7
ATOM      7  C   LIG A   1      -8.506  -2.415 126.957  0.00  0.00    -0.019 A 
ATOM      8  C   LIG A   1      -8.870  -3.624 127.573  0.00  0.00    +0.010 A 
ATOM      9  C   LIG A   1      -8.513  -3.894 128.896  0.00  0.00    +0.046 A 
ATOM     10  C   LIG A   1      -7.794  -2.947 129.614  0.00  0.00    +0.117 A 
ATOM     11  C   LIG A   1      -7.429  -1.740 129.032  0.00  0.00    +0.046 A 
ATOM     12  C   LIG A   1      -7.785  -1.472 127.707  0.00  0.00    +0.010 A 
BRANCH  10  13
ATOM     13  O   LIG A   1      -7.427  -3.166 130.909  0.00  0.00    -0.507 OA
ATOM     14  H   LIG A   1      -7.333  -2.305 131.350  0.00  0.00    +0.292 HD
ENDBRANCH  10  13
ENDBRANCH   3   7
BRANCH   1  15
ATOM     15  C   LIG A   1      -7.137   0.083 123.093  0.00  0.00    +0.036 C 
BRANCH  15  16
ATOM     16  C   LIG A   1      -7.492   1.565 123.283  0.00  0.00    +0.037 C 
BRANCH  16  22
ATOM     17  C   LIG A   1      -4.792   3.742 125.835  0.00  0.00    +0.117 A 
ATOM     18  C   LIG A   1      -5.262   4.332 124.666  0.00  0.00    +0.045 A 
ATOM     19  C   LIG A   1      -6.139   3.621 123.845  0.00  0.00    +0.007 A 
ATOM     20  C   LIG A   1      -5.196   2.465 126.198  0.00  0.00    +0.045 A 
ATOM     21  C   LIG A   1      -6.077   1.757 125.380  0.00  0.00    +0.007 A 
ATOM     22  C   LIG A   1      -6.550   2.323 124.187  0.00  0.00    -0.047 A 
BRANCH  17  23
ATOM     23  O   LIG A   1      -3.922   4.395 126.658  0.00  0.00    -0.507 OA
ATOM     24  H   LIG A   1      -3.288   3.748 127.009  0.00  0.00    +0.292 HD
ENDBRANCH  17  23
ENDBRANCH  16  22
ENDBRANCH  15  16
ENDBRANCH   1  15
TORSDOF 6
ENDMDL
MODEL 8
REMARK VINA RESULT:      -7.1      5.077      8.306
REMARK  Name = NuBBE_1860
REMARK  6 active torsions:
REMARK  status: ('A' for Active; 'I' for Inactive)
REMARK    1  A    between atoms: O_1  and  C_2
REMARK    2  A    between atoms: C_7  and  C_8
REMARK    3  A    between atoms: C_8  and  C_9
REMARK    4  A    between atoms: C_9  and  C_10
REMARK    5  A    between atoms: C_13  and  C_18
REMARK    6  A    between atoms: C_21  and  O_22
REMARK                            x       y       z     vdW  Elec       q    Type
REMARK                         _______ _______ _______ _____ _____    ______ ____
ROOT
ATOM      1  C   LIG A   1      -7.222  -2.098 128.467  0.00  0.00    +0.119 C 
ATOM      2  O   LIG A   1      -7.829  -1.391 127.382  0.00  0.00    -0.369 OA
ATOM      3  C   LIG A   1      -8.181  -2.252 126.291  0.00  0.00    +0.149 C 
ATOM      4  C   LIG A   1      -9.211  -3.291 126.750  0.00  0.00    +0.036 C 
ATOM      5  C   LIG A   1      -8.707  -4.057 127.971  0.00  0.00    +0.005 C 
ATOM      6  C   LIG A   1      -8.228  -3.093 129.052  0.00  0.00    +0.032 C 
ENDROOT
BRANCH   3   7
ATOM      7  C   LIG A   1      -8.719  -1.413 125.147  0.00  0.00    -0.019 A 
ATOM      8  C   LIG A   1      -9.110  -0.077 125.341  0.00  0.00    +0.010 A 
ATOM      9  C   LIG A   1      -9.609   0.688 124.284  0.00  0.00    +0.046 A 
ATOM     10  C   LIG A   1      -9.730   0.113 123.025  0.00  0.00    +0.117 A 
ATOM     11  C   LIG A   1      -9.359  -1.209 122.809  0.00  0.00    +0.046 A 
ATOM     12  C   LIG A   1      -8.857  -1.971 123.867  0.00  0.00    +0.010 A 
BRANCH  10  13
ATOM     13  O   LIG A   1     -10.215   0.819 121.965  0.00  0.00    -0.507 OA
ATOM     14  H   LIG A   1      -9.659   1.607 121.843  0.00  0.00    +0.292 HD
ENDBRANCH  10  13
ENDBRANCH   3   7
BRANCH   1  15
ATOM     15  C   LIG A   1      -6.784  -1.079 129.528  0.00  0.00    +0.036 C 
BRANCH  15  16
ATOM     16  C   LIG A   1      -7.747  -0.981 130.720  0.00  0.00    +0.037 C 
BRANCH  16  22
ATOM     17  C   LIG A   1      -9.827   2.780 130.991  0.00  0.00    +0.117 A 
ATOM     18  C   LIG A   1      -9.031   2.512 129.883  0.00  0.00    +0.045 A 
ATOM     19  C   LIG A   1      -8.361   1.289 129.801  0.00  0.00    +0.007 A 
ATOM     20  C   LIG A   1      -9.974   1.842 132.005  0.00  0.00    +0.045 A 
ATOM     21  C   LIG A   1      -9.309   0.618 131.919  0.00  0.00    +0.007 A 
ATOM     22  C   LIG A   1      -8.486   0.332 130.820  0.00  0.00    -0.047 A 
BRANCH  17  23
ATOM     23  O   LIG A   1     -10.488   3.966 131.120  0.00  0.00    -0.507 OA
ATOM     24  H   LIG A   1     -11.151   3.873 131.823  0.00  0.00    +0.292 HD
ENDBRANCH  17  23
ENDBRANCH  16  22
ENDBRANCH  15  16
ENDBRANCH   1  15
TORSDOF 6
ENDMDL
MODEL 9
REMARK VINA RESULT:      -7.0     10.188     12.246
REMARK  Name = NuBBE_1860
REMARK  6 active torsions:
REMARK  status: ('A' for Active; 'I' for Inactive)
REMARK    1  A    between atoms: O_1  and  C_2
REMARK    2  A    between atoms: C_7  and  C_8
REMARK    3  A    between atoms: C_8  and  C_9
REMARK    4  A    between atoms: C_9  and  C_10
REMARK    5  A    between atoms: C_13  and  C_18
REMARK    6  A    between atoms: C_21  and  O_22
REMARK                            x       y       z     vdW  Elec       q    Type
REMARK                         _______ _______ _______ _____ _____    ______ ____
ROOT
ATOM      1  C   LIG A   1      -7.035   5.415 130.973  0.00  0.00    +0.119 C 
ATOM      2  O   LIG A   1      -8.009   6.343 130.489  0.00  0.00    -0.369 OA
ATOM      3  C   LIG A   1      -9.338   6.026 130.926  0.00  0.00    +0.149 C 
ATOM      4  C   LIG A   1      -9.418   6.085 132.457  0.00  0.00    +0.036 C 
ATOM      5  C   LIG A   1      -8.355   5.192 133.093  0.00  0.00    +0.005 C 
ATOM      6  C   LIG A   1      -6.980   5.486 132.501  0.00  0.00    +0.032 C 
ENDROOT
BRANCH   3   7
ATOM      7  C   LIG A   1     -10.317   6.993 130.287  0.00  0.00    -0.019 A 
ATOM      8  C   LIG A   1     -11.585   7.226 130.846  0.00  0.00    +0.010 A 
ATOM      9  C   LIG A   1     -12.483   8.114 130.249  0.00  0.00    +0.046 A 
ATOM     10  C   LIG A   1     -12.118   8.768 129.080  0.00  0.00    +0.117 A 
ATOM     11  C   LIG A   1     -10.874   8.549 128.501  0.00  0.00    +0.046 A 
ATOM     12  C   LIG A   1      -9.975   7.662 129.101  0.00  0.00    +0.010 A 
BRANCH  10  13
ATOM     13  O   LIG A   1     -12.963   9.640 128.460  0.00  0.00    -0.507 OA
ATOM     14  H   LIG A   1     -13.041  10.435 129.014  0.00  0.00    +0.292 HD
ENDBRANCH  10  13
ENDBRANCH   3   7
BRANCH   1  15
ATOM     15  C   LIG A   1      -5.674   5.774 130.361  0.00  0.00    +0.036 C 
BRANCH  15  16
ATOM     16  C   LIG A   1      -5.147   7.148 130.801  0.00  0.00    +0.037 C 
BRANCH  16  22
ATOM     17  C   LIG A   1      -1.066   7.173 132.174  0.00  0.00    +0.117 A 
ATOM     18  C   LIG A   1      -2.049   7.809 132.924  0.00  0.00    +0.045 A 
ATOM     19  C   LIG A   1      -3.371   7.795 132.473  0.00  0.00    +0.007 A 
ATOM     20  C   LIG A   1      -1.387   6.514 130.994  0.00  0.00    +0.045 A 
ATOM     21  C   LIG A   1      -2.709   6.495 130.548  0.00  0.00    +0.007 A 
ATOM     22  C   LIG A   1      -3.714   7.145 131.278  0.00  0.00    -0.047 A 
BRANCH  17  23
ATOM     23  O   LIG A   1       0.240   7.175 132.568  0.00  0.00    -0.507 OA
ATOM     24  H   LIG A   1       0.595   6.278 132.455  0.00  0.00    +0.292 HD
ENDBRANCH  17  23
ENDBRANCH  16  22
ENDBRANCH  15  16
ENDBRANCH   1  15
TORSDOF 6
ENDMDL
