MODEL 1
REMARK VINA RESULT:      -6.8      0.000      0.000
REMARK  Name = NuBBE_1092
REMARK  12 active torsions:
REMARK  status: ('A' for Active; 'I' for Inactive)
REMARK    1  A    between atoms: C_1  and  C_2
REMARK    2  A    between atoms: C_2  and  C_3
REMARK    3  A    between atoms: C_2  and  C_4
REMARK    4  A    between atoms: C_2  and  O_28
REMARK    5  A    between atoms: C_5  and  C_6
REMARK    6  A    between atoms: C_6  and  O_26
REMARK    7  A    between atoms: C_7  and  O_22
REMARK    8  A    between atoms: C_12  and  O_20
REMARK    9  A    between atoms: O_20  and  C_21
REMARK   10  A    between atoms: O_22  and  C_23
REMARK   11  A    between atoms: C_23  and  C_24
REMARK   12  A    between atoms: O_26  and  C_27
REMARK                            x       y       z     vdW  Elec       q    Type
REMARK                         _______ _______ _______ _____ _____    ______ ____
ROOT
ATOM      1  C   LIG A   1      -7.714  -0.808 126.300  0.00  0.00    +0.166 C 
ATOM      2  C   LIG A   1      -8.301  -2.179 125.743  0.00  0.00    +0.218 C 
ATOM      3  C   LIG A   1      -8.858  -3.128 126.806  0.00  0.00    +0.053 C 
ATOM      4  C   LIG A   1      -7.970  -3.209 128.028  0.00  0.00    +0.044 C 
ATOM      5  C   LIG A   1      -7.827  -1.853 128.663  0.00  0.00    +0.020 A 
ATOM      6  C   LIG A   1      -7.766  -1.716 130.072  0.00  0.00    +0.137 A 
ATOM      7  C   LIG A   1      -7.508  -0.436 130.607  0.00  0.00    +0.082 A 
ATOM      8  C   LIG A   1      -7.367   0.597 129.688  0.00  0.00    +0.231 A 
ATOM      9  N   LIG A   1      -7.478   0.525 128.360  0.00  0.00    -0.213 NA
ATOM     10  C   LIG A   1      -7.698  -0.716 127.853  0.00  0.00    +0.091 A 
ATOM     11  O   LIG A   1      -7.073   1.765 130.321  0.00  0.00    -0.445 OA
ATOM     12  C   LIG A   1      -7.038   1.501 131.647  0.00  0.00    +0.198 A 
ATOM     13  C   LIG A   1      -7.312   0.174 131.879  0.00  0.00    +0.055 A 
ENDROOT
BRANCH   1  15
ATOM     14  C   LIG A   1      -7.933   1.170 124.666  0.00  0.00    +0.006 C 
ATOM     15  C   LIG A   1      -8.433   0.369 125.627  0.00  0.00    +0.016 C 
BRANCH  14  17
ATOM     16  C   LIG A   1      -7.635   3.124 123.159  0.00  0.00    +0.045 C 
ATOM     17  C   LIG A   1      -8.646   2.291 123.949  0.00  0.00    +0.079 C 
ATOM     18  C   LIG A   1      -9.721   1.732 123.010  0.00  0.00    +0.045 C 
BRANCH  17  19
ATOM     19  O   LIG A   1      -9.278   3.143 124.902  0.00  0.00    -0.385 OA
ATOM     20  H   LIG A   1     -10.130   3.422 124.529  0.00  0.00    +0.211 HD
ENDBRANCH  17  19
ENDBRANCH  14  17
ENDBRANCH   1  15
BRANCH   6  21
ATOM     21  O   LIG A   1      -7.862  -2.889 130.802  0.00  0.00    -0.494 OA
ATOM     22  C   LIG A   1      -6.658  -3.348 131.405  0.00  0.00    +0.277 C 
ENDBRANCH   6  21
BRANCH   1  23
ATOM     23  O   LIG A   1      -6.321  -0.795 125.837  0.00  0.00    -0.363 OA
ATOM     24  C   LIG A   1      -5.770  -2.040 125.408  0.00  0.00    +0.195 C 
ENDBRANCH   1  23
BRANCH   2  25
ATOM     25  O   LIG A   1      -9.406  -1.999 124.805  0.00  0.00    -0.458 OA
BRANCH  25  26
ATOM     26  C   LIG A   1      -9.341  -2.651 123.621  0.00  0.00    +0.304 C 
ATOM     27  C   LIG A   1      -8.293  -2.070 122.727  0.00  0.00    +0.136 C 
ATOM     28  O   LIG A   1     -10.054  -3.598 123.288  0.00  0.00    -0.251 OA
ENDBRANCH  25  26
ENDBRANCH   2  25
TORSDOF 7
ENDMDL
MODEL 2
REMARK VINA RESULT:      -6.7      2.975      6.047
REMARK  Name = NuBBE_1092
REMARK  12 active torsions:
REMARK  status: ('A' for Active; 'I' for Inactive)
REMARK    1  A    between atoms: C_1  and  C_2
REMARK    2  A    between atoms: C_2  and  C_3
REMARK    3  A    between atoms: C_2  and  C_4
REMARK    4  A    between atoms: C_2  and  O_28
REMARK    5  A    between atoms: C_5  and  C_6
REMARK    6  A    between atoms: C_6  and  O_26
REMARK    7  A    between atoms: C_7  and  O_22
REMARK    8  A    between atoms: C_12  and  O_20
REMARK    9  A    between atoms: O_20  and  C_21
REMARK   10  A    between atoms: O_22  and  C_23
REMARK   11  A    between atoms: C_23  and  C_24
REMARK   12  A    between atoms: O_26  and  C_27
REMARK                            x       y       z     vdW  Elec       q    Type
REMARK                         _______ _______ _______ _____ _____    ______ ____
ROOT
ATOM      1  C   LIG A   1      -7.148   2.253 124.738  0.00  0.00    +0.166 C 
ATOM      2  C   LIG A   1      -6.325   2.831 125.972  0.00  0.00    +0.218 C 
ATOM      3  C   LIG A   1      -6.011   1.819 127.077  0.00  0.00    +0.053 C 
ATOM      4  C   LIG A   1      -7.193   0.930 127.396  0.00  0.00    +0.044 C 
ATOM      5  C   LIG A   1      -7.609   0.154 126.177  0.00  0.00    +0.020 A 
ATOM      6  C   LIG A   1      -8.066  -1.182 126.290  0.00  0.00    +0.137 A 
ATOM      7  C   LIG A   1      -8.560  -1.819 125.133  0.00  0.00    +0.082 A 
ATOM      8  C   LIG A   1      -8.523  -1.076 123.959  0.00  0.00    +0.231 A 
ATOM      9  N   LIG A   1      -8.044   0.160 123.793  0.00  0.00    -0.213 NA
ATOM     10  C   LIG A   1      -7.598   0.774 124.920  0.00  0.00    +0.091 A 
ATOM     11  O   LIG A   1      -9.069  -1.777 122.929  0.00  0.00    -0.445 OA
ATOM     12  C   LIG A   1      -9.447  -2.979 123.422  0.00  0.00    +0.198 A 
ATOM     13  C   LIG A   1      -9.146  -3.064 124.761  0.00  0.00    +0.055 A 
ENDROOT
BRANCH   1  15
ATOM     14  C   LIG A   1      -6.701   3.342 122.448  0.00  0.00    +0.006 C 
ATOM     15  C   LIG A   1      -6.364   2.495 123.441  0.00  0.00    +0.016 C 
BRANCH  14  17
ATOM     16  C   LIG A   1      -6.855   4.139 120.099  0.00  0.00    +0.045 C 
ATOM     17  C   LIG A   1      -5.912   3.640 121.196  0.00  0.00    +0.079 C 
ATOM     18  C   LIG A   1      -4.828   4.686 121.478  0.00  0.00    +0.045 C 
BRANCH  17  19
ATOM     19  O   LIG A   1      -5.281   2.448 120.733  0.00  0.00    -0.385 OA
ATOM     20  H   LIG A   1      -4.853   2.652 119.885  0.00  0.00    +0.211 HD
ENDBRANCH  17  19
ENDBRANCH  14  17
ENDBRANCH   1  15
BRANCH   6  21
ATOM     21  O   LIG A   1      -8.086  -1.713 127.571  0.00  0.00    -0.494 OA
ATOM     22  C   LIG A   1      -6.997  -2.562 127.910  0.00  0.00    +0.277 C 
ENDBRANCH   6  21
BRANCH   1  23
ATOM     23  O   LIG A   1      -8.356   3.084 124.685  0.00  0.00    -0.363 OA
ATOM     24  C   LIG A   1      -8.392   4.228 125.539  0.00  0.00    +0.195 C 
ENDBRANCH   1  23
BRANCH   2  25
ATOM     25  O   LIG A   1      -5.022   3.375 125.599  0.00  0.00    -0.458 OA
BRANCH  25  26
ATOM     26  C   LIG A   1      -4.474   4.311 126.407  0.00  0.00    +0.304 C 
ATOM     27  C   LIG A   1      -3.065   3.971 126.771  0.00  0.00    +0.136 C 
ATOM     28  O   LIG A   1      -5.046   5.321 126.819  0.00  0.00    -0.251 OA
ENDBRANCH  25  26
ENDBRANCH   2  25
TORSDOF 7
ENDMDL
MODEL 3
REMARK VINA RESULT:      -6.5      5.040      8.247
REMARK  Name = NuBBE_1092
REMARK  12 active torsions:
REMARK  status: ('A' for Active; 'I' for Inactive)
REMARK    1  A    between atoms: C_1  and  C_2
REMARK    2  A    between atoms: C_2  and  C_3
REMARK    3  A    between atoms: C_2  and  C_4
REMARK    4  A    between atoms: C_2  and  O_28
REMARK    5  A    between atoms: C_5  and  C_6
REMARK    6  A    between atoms: C_6  and  O_26
REMARK    7  A    between atoms: C_7  and  O_22
REMARK    8  A    between atoms: C_12  and  O_20
REMARK    9  A    between atoms: O_20  and  C_21
REMARK   10  A    between atoms: O_22  and  C_23
REMARK   11  A    between atoms: C_23  and  C_24
REMARK   12  A    between atoms: O_26  and  C_27
REMARK                            x       y       z     vdW  Elec       q    Type
REMARK                         _______ _______ _______ _____ _____    ______ ____
ROOT
ATOM      1  C   LIG A   1      -8.844   4.691 129.517  0.00  0.00    +0.166 C 
ATOM      2  C   LIG A   1      -8.101   4.765 130.924  0.00  0.00    +0.218 C 
ATOM      3  C   LIG A   1      -6.585   4.569 130.871  0.00  0.00    +0.053 C 
ATOM      4  C   LIG A   1      -6.182   3.444 129.941  0.00  0.00    +0.044 C 
ATOM      5  C   LIG A   1      -6.650   3.729 128.541  0.00  0.00    +0.020 A 
ATOM      6  C   LIG A   1      -5.858   3.366 127.424  0.00  0.00    +0.137 A 
ATOM      7  C   LIG A   1      -6.401   3.544 126.134  0.00  0.00    +0.082 A 
ATOM      8  C   LIG A   1      -7.674   4.099 126.074  0.00  0.00    +0.231 A 
ATOM      9  N   LIG A   1      -8.430   4.512 127.094  0.00  0.00    -0.213 NA
ATOM     10  C   LIG A   1      -7.910   4.310 128.333  0.00  0.00    +0.091 A 
ATOM     11  O   LIG A   1      -8.105   4.173 124.786  0.00  0.00    -0.445 OA
ATOM     12  C   LIG A   1      -7.114   3.685 124.006  0.00  0.00    +0.198 A 
ATOM     13  C   LIG A   1      -6.043   3.300 124.777  0.00  0.00    +0.055 A 
ENDROOT
BRANCH   1  15
ATOM     14  C   LIG A   1     -10.968   6.132 129.313  0.00  0.00    +0.006 C 
ATOM     15  C   LIG A   1      -9.628   5.989 129.282  0.00  0.00    +0.016 C 
BRANCH  14  17
ATOM     16  C   LIG A   1     -10.930   8.419 128.341  0.00  0.00    +0.045 C 
ATOM     17  C   LIG A   1     -11.752   7.411 129.147  0.00  0.00    +0.079 C 
ATOM     18  C   LIG A   1     -13.088   7.137 128.446  0.00  0.00    +0.045 C 
BRANCH  17  19
ATOM     19  O   LIG A   1     -12.022   7.977 130.427  0.00  0.00    -0.385 OA
ATOM     20  H   LIG A   1     -12.560   7.339 130.924  0.00  0.00    +0.211 HD
ENDBRANCH  17  19
ENDBRANCH  14  17
ENDBRANCH   1  15
BRANCH   6  21
ATOM     21  O   LIG A   1      -4.645   2.761 127.709  0.00  0.00    -0.494 OA
ATOM     22  C   LIG A   1      -3.482   3.527 127.419  0.00  0.00    +0.277 C 
ENDBRANCH   6  21
BRANCH   1  23
ATOM     23  O   LIG A   1      -9.822   3.609 129.681  0.00  0.00    -0.363 OA
ATOM     24  C   LIG A   1      -9.829   2.926 130.934  0.00  0.00    +0.195 C 
ENDBRANCH   1  23
BRANCH   2  25
ATOM     25  O   LIG A   1      -8.275   6.045 131.606  0.00  0.00    -0.458 OA
BRANCH  25  26
ATOM     26  C   LIG A   1      -9.079   6.076 132.694  0.00  0.00    +0.304 C 
ATOM     27  C   LIG A   1      -8.378   5.573 133.914  0.00  0.00    +0.136 C 
ATOM     28  O   LIG A   1     -10.252   6.452 132.704  0.00  0.00    -0.251 OA
ENDBRANCH  25  26
ENDBRANCH   2  25
TORSDOF 7
ENDMDL
MODEL 4
REMARK VINA RESULT:      -6.4      5.284      8.835
REMARK  Name = NuBBE_1092
REMARK  12 active torsions:
REMARK  status: ('A' for Active; 'I' for Inactive)
REMARK    1  A    between atoms: C_1  and  C_2
REMARK    2  A    between atoms: C_2  and  C_3
REMARK    3  A    between atoms: C_2  and  C_4
REMARK    4  A    between atoms: C_2  and  O_28
REMARK    5  A    between atoms: C_5  and  C_6
REMARK    6  A    between atoms: C_6  and  O_26
REMARK    7  A    between atoms: C_7  and  O_22
REMARK    8  A    between atoms: C_12  and  O_20
REMARK    9  A    between atoms: O_20  and  C_21
REMARK   10  A    between atoms: O_22  and  C_23
REMARK   11  A    between atoms: C_23  and  C_24
REMARK   12  A    between atoms: O_26  and  C_27
REMARK                            x       y       z     vdW  Elec       q    Type
REMARK                         _______ _______ _______ _____ _____    ______ ____
ROOT
ATOM      1  C   LIG A   1      -8.064   5.331 130.346  0.00  0.00    +0.166 C 
ATOM      2  C   LIG A   1      -7.956   4.788 131.839  0.00  0.00    +0.218 C 
ATOM      3  C   LIG A   1      -9.283   4.690 132.594  0.00  0.00    +0.053 C 
ATOM      4  C   LIG A   1     -10.167   5.897 132.366  0.00  0.00    +0.044 C 
ATOM      5  C   LIG A   1     -10.488   6.042 130.904  0.00  0.00    +0.020 A 
ATOM      6  C   LIG A   1     -11.764   6.490 130.483  0.00  0.00    +0.137 A 
ATOM      7  C   LIG A   1     -11.970   6.726 129.107  0.00  0.00    +0.082 A 
ATOM      8  C   LIG A   1     -10.891   6.461 128.272  0.00  0.00    +0.231 A 
ATOM      9  N   LIG A   1      -9.694   5.980 128.615  0.00  0.00    -0.213 NA
ATOM     10  C   LIG A   1      -9.498   5.784 129.945  0.00  0.00    +0.091 A 
ATOM     11  O   LIG A   1     -11.196   6.773 126.982  0.00  0.00    -0.445 OA
ATOM     12  C   LIG A   1     -12.471   7.224 126.973  0.00  0.00    +0.198 A 
ATOM     13  C   LIG A   1     -12.997   7.202 128.243  0.00  0.00    +0.055 A 
ENDROOT
BRANCH   1  15
ATOM     14  C   LIG A   1      -6.241   4.365 128.805  0.00  0.00    +0.006 C 
ATOM     15  C   LIG A   1      -7.458   4.302 129.382  0.00  0.00    +0.016 C 
BRANCH  14  17
ATOM     16  C   LIG A   1      -4.222   2.961 128.446  0.00  0.00    +0.045 C 
ATOM     17  C   LIG A   1      -5.604   3.333 127.905  0.00  0.00    +0.079 C 
ATOM     18  C   LIG A   1      -6.488   2.085 127.806  0.00  0.00    +0.045 C 
BRANCH  17  19
ATOM     19  O   LIG A   1      -5.440   3.876 126.597  0.00  0.00    -0.385 OA
ATOM     20  H   LIG A   1      -4.798   4.602 126.658  0.00  0.00    +0.211 HD
ENDBRANCH  17  19
ENDBRANCH  14  17
ENDBRANCH   1  15
BRANCH   6  21
ATOM     21  O   LIG A   1     -12.676   6.762 131.491  0.00  0.00    -0.494 OA
ATOM     22  C   LIG A   1     -13.008   8.132 131.678  0.00  0.00    +0.277 C 
ENDBRANCH   6  21
BRANCH   1  23
ATOM     23  O   LIG A   1      -7.199   6.516 130.327  0.00  0.00    -0.363 OA
ATOM     24  C   LIG A   1      -6.416   6.765 131.494  0.00  0.00    +0.195 C 
ENDBRANCH   1  23
BRANCH   2  25
ATOM     25  O   LIG A   1      -7.389   3.445 131.930  0.00  0.00    -0.458 OA
BRANCH  25  26
ATOM     26  C   LIG A   1      -6.402   3.237 132.832  0.00  0.00    +0.304 C 
ATOM     27  C   LIG A   1      -5.050   3.314 132.199  0.00  0.00    +0.136 C 
ATOM     28  O   LIG A   1      -6.568   2.996 134.028  0.00  0.00    -0.251 OA
ENDBRANCH  25  26
ENDBRANCH   2  25
TORSDOF 7
ENDMDL
MODEL 5
REMARK VINA RESULT:      -6.2      1.685      2.077
REMARK  Name = NuBBE_1092
REMARK  12 active torsions:
REMARK  status: ('A' for Active; 'I' for Inactive)
REMARK    1  A    between atoms: C_1  and  C_2
REMARK    2  A    between atoms: C_2  and  C_3
REMARK    3  A    between atoms: C_2  and  C_4
REMARK    4  A    between atoms: C_2  and  O_28
REMARK    5  A    between atoms: C_5  and  C_6
REMARK    6  A    between atoms: C_6  and  O_26
REMARK    7  A    between atoms: C_7  and  O_22
REMARK    8  A    between atoms: C_12  and  O_20
REMARK    9  A    between atoms: O_20  and  C_21
REMARK   10  A    between atoms: O_22  and  C_23
REMARK   11  A    between atoms: C_23  and  C_24
REMARK   12  A    between atoms: O_26  and  C_27
REMARK                            x       y       z     vdW  Elec       q    Type
REMARK                         _______ _______ _______ _____ _____    ______ ____
ROOT
ATOM      1  C   LIG A   1      -7.947  -0.570 126.462  0.00  0.00    +0.166 C 
ATOM      2  C   LIG A   1      -7.880  -2.160 126.506  0.00  0.00    +0.218 C 
ATOM      3  C   LIG A   1      -8.089  -2.783 127.888  0.00  0.00    +0.053 C 
ATOM      4  C   LIG A   1      -7.348  -2.035 128.975  0.00  0.00    +0.044 C 
ATOM      5  C   LIG A   1      -7.820  -0.609 129.046  0.00  0.00    +0.020 A 
ATOM      6  C   LIG A   1      -7.936   0.056 130.291  0.00  0.00    +0.137 A 
ATOM      7  C   LIG A   1      -8.264   1.428 130.288  0.00  0.00    +0.082 A 
ATOM      8  C   LIG A   1      -8.479   2.005 129.043  0.00  0.00    +0.231 A 
ATOM      9  N   LIG A   1      -8.442   1.406 127.850  0.00  0.00    -0.213 NA
ATOM     10  C   LIG A   1      -8.097   0.092 127.862  0.00  0.00    +0.091 A 
ATOM     11  O   LIG A   1      -8.737   3.336 129.169  0.00  0.00    -0.445 OA
ATOM     12  C   LIG A   1      -8.708   3.623 130.490  0.00  0.00    +0.198 A 
ATOM     13  C   LIG A   1      -8.437   2.490 131.221  0.00  0.00    +0.055 A 
ENDROOT
BRANCH   1  15
ATOM     14  C   LIG A   1      -8.820   0.529 124.304  0.00  0.00    +0.006 C 
ATOM     15  C   LIG A   1      -9.024  -0.130 125.462  0.00  0.00    +0.016 C 
BRANCH  14  17
ATOM     16  C   LIG A   1     -11.159   1.305 123.984  0.00  0.00    +0.045 C 
ATOM     17  C   LIG A   1      -9.859   0.915 123.278  0.00  0.00    +0.079 C 
ATOM     18  C   LIG A   1      -9.357   2.076 122.413  0.00  0.00    +0.045 C 
BRANCH  17  19
ATOM     19  O   LIG A   1     -10.128  -0.198 122.428  0.00  0.00    -0.385 OA
ATOM     20  H   LIG A   1      -9.461  -0.879 122.614  0.00  0.00    +0.211 HD
ENDBRANCH  17  19
ENDBRANCH  14  17
ENDBRANCH   1  15
BRANCH   6  21
ATOM     21  O   LIG A   1      -7.607  -0.690 131.412  0.00  0.00    -0.494 OA
ATOM     22  C   LIG A   1      -6.376  -0.360 132.041  0.00  0.00    +0.277 C 
ENDBRANCH   6  21
BRANCH   1  23
ATOM     23  O   LIG A   1      -6.646  -0.167 125.915  0.00  0.00    -0.363 OA
ATOM     24  C   LIG A   1      -5.654  -1.185 125.785  0.00  0.00    +0.195 C 
ENDBRANCH   1  23
BRANCH   2  25
ATOM     25  O   LIG A   1      -8.881  -2.808 125.663  0.00  0.00    -0.458 OA
BRANCH  25  26
ATOM     26  C   LIG A   1      -8.453  -3.441 124.547  0.00  0.00    +0.304 C 
ATOM     27  C   LIG A   1      -9.489  -3.426 123.471  0.00  0.00    +0.136 C 
ATOM     28  O   LIG A   1      -7.356  -3.985 124.413  0.00  0.00    -0.251 OA
ENDBRANCH  25  26
ENDBRANCH   2  25
TORSDOF 7
ENDMDL
MODEL 6
REMARK VINA RESULT:      -6.1      2.948      4.860
REMARK  Name = NuBBE_1092
REMARK  12 active torsions:
REMARK  status: ('A' for Active; 'I' for Inactive)
REMARK    1  A    between atoms: C_1  and  C_2
REMARK    2  A    between atoms: C_2  and  C_3
REMARK    3  A    between atoms: C_2  and  C_4
REMARK    4  A    between atoms: C_2  and  O_28
REMARK    5  A    between atoms: C_5  and  C_6
REMARK    6  A    between atoms: C_6  and  O_26
REMARK    7  A    between atoms: C_7  and  O_22
REMARK    8  A    between atoms: C_12  and  O_20
REMARK    9  A    between atoms: O_20  and  C_21
REMARK   10  A    between atoms: O_22  and  C_23
REMARK   11  A    between atoms: C_23  and  C_24
REMARK   12  A    between atoms: O_26  and  C_27
REMARK                            x       y       z     vdW  Elec       q    Type
REMARK                         _______ _______ _______ _____ _____    ______ ____
ROOT
ATOM      1  C   LIG A   1      -7.839   1.567 128.899  0.00  0.00    +0.166 C 
ATOM      2  C   LIG A   1      -7.599   0.138 129.558  0.00  0.00    +0.218 C 
ATOM      3  C   LIG A   1      -8.260  -0.070 130.922  0.00  0.00    +0.053 C 
ATOM      4  C   LIG A   1      -8.109   1.135 131.825  0.00  0.00    +0.044 C 
ATOM      5  C   LIG A   1      -8.743   2.344 131.195  0.00  0.00    +0.020 A 
ATOM      6  C   LIG A   1      -9.425   3.301 131.987  0.00  0.00    +0.137 A 
ATOM      7  C   LIG A   1      -9.892   4.475 131.361  0.00  0.00    +0.082 A 
ATOM      8  C   LIG A   1      -9.665   4.574 129.993  0.00  0.00    +0.231 A 
ATOM      9  N   LIG A   1      -9.085   3.673 129.197  0.00  0.00    -0.213 NA
ATOM     10  C   LIG A   1      -8.613   2.559 129.815  0.00  0.00    +0.091 A 
ATOM     11  O   LIG A   1     -10.115   5.768 129.517  0.00  0.00    -0.445 OA
ATOM     12  C   LIG A   1     -10.647   6.438 130.565  0.00  0.00    +0.198 A 
ATOM     13  C   LIG A   1     -10.551   5.688 131.713  0.00  0.00    +0.055 A 
ENDROOT
BRANCH   1  15
ATOM     14  C   LIG A   1      -8.129   2.041 126.385  0.00  0.00    +0.006 C 
ATOM     15  C   LIG A   1      -8.477   1.393 127.514  0.00  0.00    +0.016 C 
BRANCH  14  17
ATOM     16  C   LIG A   1      -7.573   1.525 124.018  0.00  0.00    +0.045 C 
ATOM     17  C   LIG A   1      -8.702   1.837 125.003  0.00  0.00    +0.079 C 
ATOM     18  C   LIG A   1      -9.730   0.700 125.008  0.00  0.00    +0.045 C 
BRANCH  17  19
ATOM     19  O   LIG A   1      -9.352   3.031 124.573  0.00  0.00    -0.385 OA
ATOM     20  H   LIG A   1     -10.296   2.829 124.461  0.00  0.00    +0.211 HD
ENDBRANCH  17  19
ENDBRANCH  14  17
ENDBRANCH   1  15
BRANCH   6  21
ATOM     21  O   LIG A   1      -9.476   3.039 133.347  0.00  0.00    -0.494 OA
ATOM     22  C   LIG A   1      -8.713   3.904 134.178  0.00  0.00    +0.277 C 
ENDBRANCH   6  21
BRANCH   1  23
ATOM     23  O   LIG A   1      -6.489   2.106 128.697  0.00  0.00    -0.363 OA
ATOM     24  C   LIG A   1      -5.396   1.215 128.923  0.00  0.00    +0.195 C 
ENDBRANCH   1  23
BRANCH   2  25
ATOM     25  O   LIG A   1      -8.095  -0.969 128.744  0.00  0.00    -0.458 OA
BRANCH  25  26
ATOM     26  C   LIG A   1      -7.435  -2.147 128.810  0.00  0.00    +0.304 C 
ATOM     27  C   LIG A   1      -8.370  -3.293 129.030  0.00  0.00    +0.136 C 
ATOM     28  O   LIG A   1      -6.215  -2.288 128.720  0.00  0.00    -0.251 OA
ENDBRANCH  25  26
ENDBRANCH   2  25
TORSDOF 7
ENDMDL
MODEL 7
REMARK VINA RESULT:      -6.1      2.991      5.640
REMARK  Name = NuBBE_1092
REMARK  12 active torsions:
REMARK  status: ('A' for Active; 'I' for Inactive)
REMARK    1  A    between atoms: C_1  and  C_2
REMARK    2  A    between atoms: C_2  and  C_3
REMARK    3  A    between atoms: C_2  and  C_4
REMARK    4  A    between atoms: C_2  and  O_28
REMARK    5  A    between atoms: C_5  and  C_6
REMARK    6  A    between atoms: C_6  and  O_26
REMARK    7  A    between atoms: C_7  and  O_22
REMARK    8  A    between atoms: C_12  and  O_20
REMARK    9  A    between atoms: O_20  and  C_21
REMARK   10  A    between atoms: O_22  and  C_23
REMARK   11  A    between atoms: C_23  and  C_24
REMARK   12  A    between atoms: O_26  and  C_27
REMARK                            x       y       z     vdW  Elec       q    Type
REMARK                         _______ _______ _______ _____ _____    ______ ____
ROOT
ATOM      1  C   LIG A   1      -6.893   1.770 124.984  0.00  0.00    +0.166 C 
ATOM      2  C   LIG A   1      -6.732   2.934 123.910  0.00  0.00    +0.218 C 
ATOM      3  C   LIG A   1      -5.668   3.983 124.241  0.00  0.00    +0.053 C 
ATOM      4  C   LIG A   1      -5.697   4.392 125.697  0.00  0.00    +0.044 C 
ATOM      5  C   LIG A   1      -5.449   3.202 126.582  0.00  0.00    +0.020 A 
ATOM      6  C   LIG A   1      -4.693   3.329 127.773  0.00  0.00    +0.137 A 
ATOM      7  C   LIG A   1      -4.597   2.209 128.626  0.00  0.00    +0.082 A 
ATOM      8  C   LIG A   1      -5.237   1.053 128.196  0.00  0.00    +0.231 A 
ATOM      9  N   LIG A   1      -5.906   0.869 127.055  0.00  0.00    -0.213 NA
ATOM     10  C   LIG A   1      -6.017   1.962 126.255  0.00  0.00    +0.091 A 
ATOM     11  O   LIG A   1      -5.115   0.063 129.123  0.00  0.00    -0.445 OA
ATOM     12  C   LIG A   1      -4.385   0.564 130.145  0.00  0.00    +0.198 A 
ATOM     13  C   LIG A   1      -4.029   1.867 129.887  0.00  0.00    +0.055 A 
ENDROOT
BRANCH   1  15
ATOM     14  C   LIG A   1      -7.535  -0.637 124.329  0.00  0.00    +0.006 C 
ATOM     15  C   LIG A   1      -6.687   0.410 124.301  0.00  0.00    +0.016 C 
BRANCH  14  17
ATOM     16  C   LIG A   1      -8.730  -2.403 123.053  0.00  0.00    +0.045 C 
ATOM     17  C   LIG A   1      -7.378  -1.957 123.613  0.00  0.00    +0.079 C 
ATOM     18  C   LIG A   1      -6.350  -1.838 122.483  0.00  0.00    +0.045 C 
BRANCH  17  19
ATOM     19  O   LIG A   1      -6.927  -2.949 124.533  0.00  0.00    -0.385 OA
ATOM     20  H   LIG A   1      -7.496  -3.729 124.427  0.00  0.00    +0.211 HD
ENDBRANCH  17  19
ENDBRANCH  14  17
ENDBRANCH   1  15
BRANCH   6  21
ATOM     21  O   LIG A   1      -4.198   4.593 128.048  0.00  0.00    -0.494 OA
ATOM     22  C   LIG A   1      -2.792   4.757 127.907  0.00  0.00    +0.277 C 
ENDBRANCH   6  21
BRANCH   1  23
ATOM     23  O   LIG A   1      -8.300   1.847 125.394  0.00  0.00    -0.363 OA
ATOM     24  C   LIG A   1      -9.216   2.424 124.463  0.00  0.00    +0.195 C 
ENDBRANCH   1  23
BRANCH   2  25
ATOM     25  O   LIG A   1      -6.362   2.452 122.581  0.00  0.00    -0.458 OA
BRANCH  25  26
ATOM     26  C   LIG A   1      -6.652   3.241 121.521  0.00  0.00    +0.304 C 
ATOM     27  C   LIG A   1      -5.435   3.543 120.708  0.00  0.00    +0.136 C 
ATOM     28  O   LIG A   1      -7.768   3.681 121.244  0.00  0.00    -0.251 OA
ENDBRANCH  25  26
ENDBRANCH   2  25
TORSDOF 7
ENDMDL
MODEL 8
REMARK VINA RESULT:      -6.0      1.775      2.114
REMARK  Name = NuBBE_1092
REMARK  12 active torsions:
REMARK  status: ('A' for Active; 'I' for Inactive)
REMARK    1  A    between atoms: C_1  and  C_2
REMARK    2  A    between atoms: C_2  and  C_3
REMARK    3  A    between atoms: C_2  and  C_4
REMARK    4  A    between atoms: C_2  and  O_28
REMARK    5  A    between atoms: C_5  and  C_6
REMARK    6  A    between atoms: C_6  and  O_26
REMARK    7  A    between atoms: C_7  and  O_22
REMARK    8  A    between atoms: C_12  and  O_20
REMARK    9  A    between atoms: O_20  and  C_21
REMARK   10  A    between atoms: O_22  and  C_23
REMARK   11  A    between atoms: C_23  and  C_24
REMARK   12  A    between atoms: O_26  and  C_27
REMARK                            x       y       z     vdW  Elec       q    Type
REMARK                         _______ _______ _______ _____ _____    ______ ____
ROOT
ATOM      1  C   LIG A   1      -7.043  -0.157 125.578  0.00  0.00    +0.166 C 
ATOM      2  C   LIG A   1      -8.322  -0.953 125.060  0.00  0.00    +0.218 C 
ATOM      3  C   LIG A   1      -9.058  -1.768 126.126  0.00  0.00    +0.053 C 
ATOM      4  C   LIG A   1      -8.108  -2.515 127.038  0.00  0.00    +0.044 C 
ATOM      5  C   LIG A   1      -7.200  -1.551 127.751  0.00  0.00    +0.020 A 
ATOM      6  C   LIG A   1      -6.811  -1.782 129.094  0.00  0.00    +0.137 A 
ATOM      7  C   LIG A   1      -5.861  -0.913 129.672  0.00  0.00    +0.082 A 
ATOM      8  C   LIG A   1      -5.410   0.127 128.868  0.00  0.00    +0.231 A 
ATOM      9  N   LIG A   1      -5.794   0.419 127.623  0.00  0.00    -0.213 NA
ATOM     10  C   LIG A   1      -6.687  -0.440 127.066  0.00  0.00    +0.091 A 
ATOM     11  O   LIG A   1      -4.466   0.861 129.518  0.00  0.00    -0.445 OA
ATOM     12  C   LIG A   1      -4.312   0.314 130.745  0.00  0.00    +0.198 A 
ATOM     13  C   LIG A   1      -5.152  -0.765 130.898  0.00  0.00    +0.055 A 
ENDROOT
BRANCH   1  15
ATOM     14  C   LIG A   1      -6.698   1.991 124.201  0.00  0.00    +0.006 C 
ATOM     15  C   LIG A   1      -7.207   1.336 125.264  0.00  0.00    +0.016 C 
BRANCH  14  17
ATOM     16  C   LIG A   1      -6.550   4.324 125.045  0.00  0.00    +0.045 C 
ATOM     17  C   LIG A   1      -6.900   3.444 123.843  0.00  0.00    +0.079 C 
ATOM     18  C   LIG A   1      -6.036   3.826 122.637  0.00  0.00    +0.045 C 
BRANCH  17  19
ATOM     19  O   LIG A   1      -8.268   3.668 123.509  0.00  0.00    -0.385 OA
ATOM     20  H   LIG A   1      -8.313   4.488 122.990  0.00  0.00    +0.211 HD
ENDBRANCH  17  19
ENDBRANCH  14  17
ENDBRANCH   1  15
BRANCH   6  21
ATOM     21  O   LIG A   1      -7.327  -2.921 129.690  0.00  0.00    -0.494 OA
ATOM     22  C   LIG A   1      -6.387  -3.937 130.014  0.00  0.00    +0.277 C 
ENDBRANCH   6  21
BRANCH   1  23
ATOM     23  O   LIG A   1      -5.942  -0.664 124.751  0.00  0.00    -0.363 OA
ATOM     24  C   LIG A   1      -6.251  -1.710 123.830  0.00  0.00    +0.195 C 
ENDBRANCH   1  23
BRANCH   2  25
ATOM     25  O   LIG A   1      -9.353  -0.089 124.491  0.00  0.00    -0.458 OA
BRANCH  25  26
ATOM     26  C   LIG A   1      -9.733  -0.317 123.213  0.00  0.00    +0.304 C 
ATOM     27  C   LIG A   1     -10.125   0.948 122.519  0.00  0.00    +0.136 C 
ATOM     28  O   LIG A   1      -9.774  -1.420 122.667  0.00  0.00    -0.251 OA
ENDBRANCH  25  26
ENDBRANCH   2  25
TORSDOF 7
ENDMDL
MODEL 9
REMARK VINA RESULT:      -6.0      2.417      5.380
REMARK  Name = NuBBE_1092
REMARK  12 active torsions:
REMARK  status: ('A' for Active; 'I' for Inactive)
REMARK    1  A    between atoms: C_1  and  C_2
REMARK    2  A    between atoms: C_2  and  C_3
REMARK    3  A    between atoms: C_2  and  C_4
REMARK    4  A    between atoms: C_2  and  O_28
REMARK    5  A    between atoms: C_5  and  C_6
REMARK    6  A    between atoms: C_6  and  O_26
REMARK    7  A    between atoms: C_7  and  O_22
REMARK    8  A    between atoms: C_12  and  O_20
REMARK    9  A    between atoms: O_20  and  C_21
REMARK   10  A    between atoms: O_22  and  C_23
REMARK   11  A    between atoms: C_23  and  C_24
REMARK   12  A    between atoms: O_26  and  C_27
REMARK                            x       y       z     vdW  Elec       q    Type
REMARK                         _______ _______ _______ _____ _____    ______ ____
ROOT
ATOM      1  C   LIG A   1      -7.854   1.712 124.881  0.00  0.00    +0.166 C 
ATOM      2  C   LIG A   1      -7.546   2.966 123.950  0.00  0.00    +0.218 C 
ATOM      3  C   LIG A   1      -7.106   4.233 124.687  0.00  0.00    +0.053 C 
ATOM      4  C   LIG A   1      -7.927   4.488 125.933  0.00  0.00    +0.044 C 
ATOM      5  C   LIG A   1      -7.795   3.337 126.892  0.00  0.00    +0.020 A 
ATOM      6  C   LIG A   1      -7.755   3.561 128.291  0.00  0.00    +0.137 A 
ATOM      7  C   LIG A   1      -7.755   2.439 129.146  0.00  0.00    +0.082 A 
ATOM      8  C   LIG A   1      -7.764   1.194 128.527  0.00  0.00    +0.231 A 
ATOM      9  N   LIG A   1      -7.740   0.937 127.218  0.00  0.00    -0.213 NA
ATOM     10  C   LIG A   1      -7.768   2.023 126.403  0.00  0.00    +0.091 A 
ATOM     11  O   LIG A   1      -7.814   0.198 129.454  0.00  0.00    -0.445 OA
ATOM     12  C   LIG A   1      -7.822   0.788 130.671  0.00  0.00    +0.198 A 
ATOM     13  C   LIG A   1      -7.772   2.156 130.542  0.00  0.00    +0.055 A 
ENDROOT
BRANCH   1  15
ATOM     14  C   LIG A   1      -7.350  -0.766 124.396  0.00  0.00    +0.006 C 
ATOM     15  C   LIG A   1      -6.977   0.528 124.451  0.00  0.00    +0.016 C 
BRANCH  14  17
ATOM     16  C   LIG A   1      -7.217  -3.246 124.292  0.00  0.00    +0.045 C 
ATOM     17  C   LIG A   1      -6.523  -1.935 123.917  0.00  0.00    +0.079 C 
ATOM     18  C   LIG A   1      -6.315  -1.861 122.401  0.00  0.00    +0.045 C 
BRANCH  17  19
ATOM     19  O   LIG A   1      -5.246  -1.909 124.551  0.00  0.00    -0.385 OA
ATOM     20  H   LIG A   1      -5.017  -2.822 124.789  0.00  0.00    +0.211 HD
ENDBRANCH  17  19
ENDBRANCH  14  17
ENDBRANCH   1  15
BRANCH   6  21
ATOM     21  O   LIG A   1      -7.826   4.883 128.698  0.00  0.00    -0.494 OA
ATOM     22  C   LIG A   1      -9.017   5.264 129.374  0.00  0.00    +0.277 C 
ENDBRANCH   6  21
BRANCH   1  23
ATOM     23  O   LIG A   1      -9.246   1.364 124.573  0.00  0.00    -0.363 OA
ATOM     24  C   LIG A   1      -9.742   1.751 123.292  0.00  0.00    +0.195 C 
ENDBRANCH   1  23
BRANCH   2  25
ATOM     25  O   LIG A   1      -6.480   2.724 122.981  0.00  0.00    -0.458 OA
BRANCH  25  26
ATOM     26  C   LIG A   1      -6.612   3.267 121.749  0.00  0.00    +0.304 C 
ATOM     27  C   LIG A   1      -5.289   3.424 121.070  0.00  0.00    +0.136 C 
ATOM     28  O   LIG A   1      -7.674   3.611 121.231  0.00  0.00    -0.251 OA
ENDBRANCH  25  26
ENDBRANCH   2  25
TORSDOF 7
ENDMDL
