MODEL 1
REMARK VINA RESULT:      -8.4      0.000      0.000
REMARK  Name = NuBBE_588
REMARK  8 active torsions:
REMARK  status: ('A' for Active; 'I' for Inactive)
REMARK    1  A    between atoms: C_3  and  C_29
REMARK    2  A    between atoms: C_5  and  C_28
REMARK    3  A    between atoms: C_7  and  O_8
REMARK    4  A    between atoms: C_7  and  C_19
REMARK    5  A    between atoms: C_12  and  O_17
REMARK    6  A    between atoms: C_13  and  O_14
REMARK    7  A    between atoms: O_14  and  C_15
REMARK    8  A    between atoms: O_17  and  C_18
REMARK                            x       y       z     vdW  Elec       q    Type
REMARK                         _______ _______ _______ _____ _____    ______ ____
ROOT
ATOM      1  O   LIG A   1      -6.044  -1.778 122.171  0.00  0.00    -0.292 OA
ATOM      2  C   LIG A   1      -6.859  -1.897 123.096  0.00  0.00    +0.167 C 
ATOM      3  C   LIG A   1      -7.219  -3.260 123.636  0.00  0.00    +0.063 C 
ATOM      4  C   LIG A   1      -8.571  -3.260 124.378  0.00  0.00    +0.037 C 
ATOM      5  C   LIG A   1      -8.711  -2.102 125.422  0.00  0.00    +0.120 C 
ATOM      6  C   LIG A   1      -8.337  -0.763 124.787  0.00  0.00    +0.003 A 
ATOM      7  C   LIG A   1      -7.444  -0.678 123.716  0.00  0.00    +0.028 A 
ATOM      8  C   LIG A   1      -7.061   0.572 123.201  0.00  0.00    +0.061 A 
ATOM      9  C   LIG A   1      -7.550   1.755 123.765  0.00  0.00    +0.162 A 
ATOM     10  C   LIG A   1      -8.440   1.688 124.847  0.00  0.00    +0.162 A 
ATOM     11  C   LIG A   1      -8.832   0.438 125.340  0.00  0.00    +0.057 A 
ATOM     12  C   LIG A   1      -9.720  -3.262 123.342  0.00  0.00    +0.012 C 
ATOM     13  C   LIG A   1      -6.049  -3.797 124.454  0.00  0.00    +0.016 C 
ENDROOT
BRANCH   5  14
ATOM     14  C   LIG A   1      -7.957  -2.388 126.735  0.00  0.00    -0.008 A 
ATOM     15  C   LIG A   1      -8.457  -3.273 127.730  0.00  0.00    +0.010 A 
ATOM     16  C   LIG A   1      -7.751  -3.541 128.908  0.00  0.00    +0.050 A 
ATOM     17  C   LIG A   1      -6.542  -2.913 129.085  0.00  0.00    +0.166 A 
ATOM     18  O   LIG A   1      -5.728  -3.054 130.163  0.00  0.00    -0.453 OA
ATOM     19  C   LIG A   1      -4.627  -2.205 129.780  0.00  0.00    +0.466 C 
ATOM     20  O   LIG A   1      -4.824  -1.549 128.508  0.00  0.00    -0.453 OA
ATOM     21  C   LIG A   1      -6.030  -2.058 128.142  0.00  0.00    +0.167 A 
ATOM     22  C   LIG A   1      -6.701  -1.783 126.966  0.00  0.00    +0.056 A 
ENDBRANCH   5  14
BRANCH   5  23
ATOM     23  O   LIG A   1     -10.096  -2.049 125.809  0.00  0.00    -0.379 OA
ATOM     24  H   LIG A   1     -10.632  -1.923 125.007  0.00  0.00    +0.211 HD
ENDBRANCH   5  23
BRANCH  10  25
ATOM     25  O   LIG A   1      -8.897   2.877 125.357  0.00  0.00    -0.491 OA
ATOM     26  C   LIG A   1      -8.107   3.462 126.388  0.00  0.00    +0.277 C 
ENDBRANCH  10  25
BRANCH   9  27
ATOM     27  O   LIG A   1      -7.250   2.999 123.273  0.00  0.00    -0.491 OA
ATOM     28  C   LIG A   1      -6.375   3.038 122.150  0.00  0.00    +0.277 C 
ENDBRANCH   9  27
TORSDOF 4
ENDMDL
MODEL 2
REMARK VINA RESULT:      -7.7      2.729      7.461
REMARK  Name = NuBBE_588
REMARK  8 active torsions:
REMARK  status: ('A' for Active; 'I' for Inactive)
REMARK    1  A    between atoms: C_3  and  C_29
REMARK    2  A    between atoms: C_5  and  C_28
REMARK    3  A    between atoms: C_7  and  O_8
REMARK    4  A    between atoms: C_7  and  C_19
REMARK    5  A    between atoms: C_12  and  O_17
REMARK    6  A    between atoms: C_13  and  O_14
REMARK    7  A    between atoms: O_14  and  C_15
REMARK    8  A    between atoms: O_17  and  C_18
REMARK                            x       y       z     vdW  Elec       q    Type
REMARK                         _______ _______ _______ _____ _____    ______ ____
ROOT
ATOM      1  O   LIG A   1      -4.556   1.320 126.363  0.00  0.00    -0.292 OA
ATOM      2  C   LIG A   1      -5.608   1.587 125.768  0.00  0.00    +0.167 C 
ATOM      3  C   LIG A   1      -6.114   3.008 125.696  0.00  0.00    +0.063 C 
ATOM      4  C   LIG A   1      -7.626   3.078 125.396  0.00  0.00    +0.037 C 
ATOM      5  C   LIG A   1      -8.066   2.182 124.191  0.00  0.00    +0.120 C 
ATOM      6  C   LIG A   1      -7.519   0.764 124.352  0.00  0.00    +0.003 A 
ATOM      7  C   LIG A   1      -6.348   0.502 125.069  0.00  0.00    +0.028 A 
ATOM      8  C   LIG A   1      -5.828  -0.800 125.137  0.00  0.00    +0.061 A 
ATOM      9  C   LIG A   1      -6.460  -1.857 124.472  0.00  0.00    +0.162 A 
ATOM     10  C   LIG A   1      -7.630  -1.609 123.740  0.00  0.00    +0.162 A 
ATOM     11  C   LIG A   1      -8.153  -0.312 123.693  0.00  0.00    +0.057 A 
ATOM     12  C   LIG A   1      -8.417   2.761 126.688  0.00  0.00    +0.012 C 
ATOM     13  C   LIG A   1      -5.241   3.801 124.730  0.00  0.00    +0.016 C 
ENDROOT
BRANCH   5  14
ATOM     14  C   LIG A   1      -7.735   2.815 122.825  0.00  0.00    -0.008 A 
ATOM     15  C   LIG A   1      -6.402   3.062 122.397  0.00  0.00    +0.010 A 
ATOM     16  C   LIG A   1      -6.115   3.616 121.144  0.00  0.00    +0.050 A 
ATOM     17  C   LIG A   1      -7.173   3.924 120.324  0.00  0.00    +0.166 A 
ATOM     18  O   LIG A   1      -7.080   4.467 119.083  0.00  0.00    -0.453 OA
ATOM     19  C   LIG A   1      -8.473   4.530 118.713  0.00  0.00    +0.466 C 
ATOM     20  O   LIG A   1      -9.363   4.063 119.750  0.00  0.00    -0.453 OA
ATOM     21  C   LIG A   1      -8.470   3.693 120.707  0.00  0.00    +0.167 A 
ATOM     22  C   LIG A   1      -8.782   3.139 121.933  0.00  0.00    +0.056 A 
ENDBRANCH   5  14
BRANCH   5  23
ATOM     23  O   LIG A   1      -9.504   2.118 124.217  0.00  0.00    -0.379 OA
ATOM     24  H   LIG A   1      -9.849   2.783 123.596  0.00  0.00    +0.211 HD
ENDBRANCH   5  23
BRANCH  10  25
ATOM     25  O   LIG A   1      -8.216  -2.680 123.113  0.00  0.00    -0.491 OA
ATOM     26  C   LIG A   1      -9.390  -3.202 123.727  0.00  0.00    +0.277 C 
ENDBRANCH  10  25
BRANCH   9  27
ATOM     27  O   LIG A   1      -6.025  -3.155 124.544  0.00  0.00    -0.491 OA
ATOM     28  C   LIG A   1      -4.870  -3.476 123.775  0.00  0.00    +0.277 C 
ENDBRANCH   9  27
TORSDOF 4
ENDMDL
MODEL 3
REMARK VINA RESULT:      -7.3      6.889     10.502
REMARK  Name = NuBBE_588
REMARK  8 active torsions:
REMARK  status: ('A' for Active; 'I' for Inactive)
REMARK    1  A    between atoms: C_3  and  C_29
REMARK    2  A    between atoms: C_5  and  C_28
REMARK    3  A    between atoms: C_7  and  O_8
REMARK    4  A    between atoms: C_7  and  C_19
REMARK    5  A    between atoms: C_12  and  O_17
REMARK    6  A    between atoms: C_13  and  O_14
REMARK    7  A    between atoms: O_14  and  C_15
REMARK    8  A    between atoms: O_17  and  C_18
REMARK                            x       y       z     vdW  Elec       q    Type
REMARK                         _______ _______ _______ _____ _____    ______ ____
ROOT
ATOM      1  O   LIG A   1      -3.548   5.369 134.360  0.00  0.00    -0.292 OA
ATOM      2  C   LIG A   1      -3.714   5.869 133.240  0.00  0.00    +0.167 C 
ATOM      3  C   LIG A   1      -2.532   6.227 132.372  0.00  0.00    +0.063 C 
ATOM      4  C   LIG A   1      -2.889   7.275 131.297  0.00  0.00    +0.037 C 
ATOM      5  C   LIG A   1      -4.188   6.931 130.496  0.00  0.00    +0.120 C 
ATOM      6  C   LIG A   1      -5.331   6.592 131.453  0.00  0.00    +0.003 A 
ATOM      7  C   LIG A   1      -5.096   6.066 132.726  0.00  0.00    +0.028 A 
ATOM      8  C   LIG A   1      -6.167   5.695 133.555  0.00  0.00    +0.061 A 
ATOM      9  C   LIG A   1      -7.489   5.823 133.114  0.00  0.00    +0.162 A 
ATOM     10  C   LIG A   1      -7.742   6.340 131.835  0.00  0.00    +0.162 A 
ATOM     11  C   LIG A   1      -6.669   6.727 131.023  0.00  0.00    +0.057 A 
ATOM     12  C   LIG A   1      -2.952   8.675 131.953  0.00  0.00    +0.012 C 
ATOM     13  C   LIG A   1      -1.910   4.947 131.825  0.00  0.00    +0.016 C 
ENDROOT
BRANCH   5  14
ATOM     14  C   LIG A   1      -3.957   5.857 129.415  0.00  0.00    -0.008 A 
ATOM     15  C   LIG A   1      -2.845   5.889 128.528  0.00  0.00    +0.010 A 
ATOM     16  C   LIG A   1      -2.636   4.895 127.566  0.00  0.00    +0.050 A 
ATOM     17  C   LIG A   1      -3.549   3.871 127.495  0.00  0.00    +0.166 A 
ATOM     18  O   LIG A   1      -3.503   2.829 126.625  0.00  0.00    -0.453 OA
ATOM     19  C   LIG A   1      -4.669   2.086 127.036  0.00  0.00    +0.466 C 
ATOM     20  O   LIG A   1      -5.402   2.716 128.108  0.00  0.00    -0.453 OA
ATOM     21  C   LIG A   1      -4.628   3.810 128.340  0.00  0.00    +0.167 A 
ATOM     22  C   LIG A   1      -4.855   4.772 129.305  0.00  0.00    +0.056 A 
ENDBRANCH   5  14
BRANCH   5  23
ATOM     23  O   LIG A   1      -4.552   8.111 129.756  0.00  0.00    -0.379 OA
ATOM     24  H   LIG A   1      -4.539   7.891 128.808  0.00  0.00    +0.211 HD
ENDBRANCH   5  23
BRANCH  10  25
ATOM     25  O   LIG A   1      -9.055   6.454 131.454  0.00  0.00    -0.491 OA
ATOM     26  C   LIG A   1      -9.296   7.153 130.236  0.00  0.00    +0.277 C 
ENDBRANCH  10  25
BRANCH   9  27
ATOM     27  O   LIG A   1      -8.573   5.523 133.898  0.00  0.00    -0.491 OA
ATOM     28  C   LIG A   1      -8.635   4.193 134.405  0.00  0.00    +0.277 C 
ENDBRANCH   9  27
TORSDOF 4
ENDMDL
MODEL 4
REMARK VINA RESULT:      -7.3      6.800     10.450
REMARK  Name = NuBBE_588
REMARK  8 active torsions:
REMARK  status: ('A' for Active; 'I' for Inactive)
REMARK    1  A    between atoms: C_3  and  C_29
REMARK    2  A    between atoms: C_5  and  C_28
REMARK    3  A    between atoms: C_7  and  O_8
REMARK    4  A    between atoms: C_7  and  C_19
REMARK    5  A    between atoms: C_12  and  O_17
REMARK    6  A    between atoms: C_13  and  O_14
REMARK    7  A    between atoms: O_14  and  C_15
REMARK    8  A    between atoms: O_17  and  C_18
REMARK                            x       y       z     vdW  Elec       q    Type
REMARK                         _______ _______ _______ _____ _____    ______ ____
ROOT
ATOM      1  O   LIG A   1      -4.208   4.918 131.985  0.00  0.00    -0.292 OA
ATOM      2  C   LIG A   1      -5.349   4.825 132.456  0.00  0.00    +0.167 C 
ATOM      3  C   LIG A   1      -6.165   6.060 132.747  0.00  0.00    +0.063 C 
ATOM      4  C   LIG A   1      -7.288   5.794 133.772  0.00  0.00    +0.037 C 
ATOM      5  C   LIG A   1      -8.143   4.526 133.447  0.00  0.00    +0.120 C 
ATOM      6  C   LIG A   1      -7.237   3.325 133.175  0.00  0.00    +0.003 A 
ATOM      7  C   LIG A   1      -5.938   3.478 132.682  0.00  0.00    +0.028 A 
ATOM      8  C   LIG A   1      -5.155   2.354 132.371  0.00  0.00    +0.061 A 
ATOM      9  C   LIG A   1      -5.666   1.062 132.530  0.00  0.00    +0.162 A 
ATOM     10  C   LIG A   1      -6.971   0.891 133.014  0.00  0.00    +0.162 A 
ATOM     11  C   LIG A   1      -7.738   2.015 133.340  0.00  0.00    +0.057 A 
ATOM     12  C   LIG A   1      -6.678   5.746 135.194  0.00  0.00    +0.012 C 
ATOM     13  C   LIG A   1      -6.642   6.665 131.431  0.00  0.00    +0.016 C 
ENDROOT
BRANCH   5  14
ATOM     14  C   LIG A   1      -9.179   4.774 132.332  0.00  0.00    -0.008 A 
ATOM     15  C   LIG A   1      -9.298   3.929 131.194  0.00  0.00    +0.010 A 
ATOM     16  C   LIG A   1     -10.258   4.154 130.201  0.00  0.00    +0.050 A 
ATOM     17  C   LIG A   1     -11.096   5.232 130.353  0.00  0.00    +0.166 A 
ATOM     18  O   LIG A   1     -12.078   5.599 129.490  0.00  0.00    -0.453 OA
ATOM     19  C   LIG A   1     -12.621   6.746 130.175  0.00  0.00    +0.466 C 
ATOM     20  O   LIG A   1     -11.930   7.061 131.404  0.00  0.00    -0.453 OA
ATOM     21  C   LIG A   1     -11.009   6.062 131.443  0.00  0.00    +0.167 A 
ATOM     22  C   LIG A   1     -10.077   5.859 132.443  0.00  0.00    +0.056 A 
ENDBRANCH   5  14
BRANCH   5  23
ATOM     23  O   LIG A   1      -8.936   4.240 134.614  0.00  0.00    -0.379 OA
ATOM     24  H   LIG A   1      -9.369   5.064 134.897  0.00  0.00    +0.211 HD
ENDBRANCH   5  23
BRANCH  10  25
ATOM     25  O   LIG A   1      -7.422  -0.397 133.159  0.00  0.00    -0.491 OA
ATOM     26  C   LIG A   1      -8.258  -0.890 132.116  0.00  0.00    +0.277 C 
ENDBRANCH  10  25
BRANCH   9  27
ATOM     27  O   LIG A   1      -4.931  -0.070 132.289  0.00  0.00    -0.491 OA
ATOM     28  C   LIG A   1      -4.428  -0.226 130.966  0.00  0.00    +0.277 C 
ENDBRANCH   9  27
TORSDOF 4
ENDMDL
MODEL 5
REMARK VINA RESULT:      -7.2      5.082      9.068
REMARK  Name = NuBBE_588
REMARK  8 active torsions:
REMARK  status: ('A' for Active; 'I' for Inactive)
REMARK    1  A    between atoms: C_3  and  C_29
REMARK    2  A    between atoms: C_5  and  C_28
REMARK    3  A    between atoms: C_7  and  O_8
REMARK    4  A    between atoms: C_7  and  C_19
REMARK    5  A    between atoms: C_12  and  O_17
REMARK    6  A    between atoms: C_13  and  O_14
REMARK    7  A    between atoms: O_14  and  C_15
REMARK    8  A    between atoms: O_17  and  C_18
REMARK                            x       y       z     vdW  Elec       q    Type
REMARK                         _______ _______ _______ _____ _____    ______ ____
ROOT
ATOM      1  O   LIG A   1      -5.166   4.442 131.347  0.00  0.00    -0.292 OA
ATOM      2  C   LIG A   1      -6.390   4.256 131.374  0.00  0.00    +0.167 C 
ATOM      3  C   LIG A   1      -7.257   4.973 132.380  0.00  0.00    +0.063 C 
ATOM      4  C   LIG A   1      -8.605   4.256 132.610  0.00  0.00    +0.037 C 
ATOM      5  C   LIG A   1      -9.344   3.877 131.285  0.00  0.00    +0.120 C 
ATOM      6  C   LIG A   1      -8.395   3.149 130.333  0.00  0.00    +0.003 A 
ATOM      7  C   LIG A   1      -7.014   3.358 130.365  0.00  0.00    +0.028 A 
ATOM      8  C   LIG A   1      -6.174   2.733 129.429  0.00  0.00    +0.061 A 
ATOM      9  C   LIG A   1      -6.706   1.905 128.435  0.00  0.00    +0.162 A 
ATOM     10  C   LIG A   1      -8.091   1.692 128.382  0.00  0.00    +0.162 A 
ATOM     11  C   LIG A   1      -8.919   2.303 129.331  0.00  0.00    +0.057 A 
ATOM     12  C   LIG A   1      -8.380   3.034 133.532  0.00  0.00    +0.012 C 
ATOM     13  C   LIG A   1      -7.382   6.438 131.977  0.00  0.00    +0.016 C 
ENDROOT
BRANCH   5  14
ATOM     14  C   LIG A   1     -10.060   5.078 130.635  0.00  0.00    -0.008 A 
ATOM     15  C   LIG A   1     -11.146   5.752 131.259  0.00  0.00    +0.010 A 
ATOM     16  C   LIG A   1     -11.772   6.855 130.667  0.00  0.00    +0.050 A 
ATOM     17  C   LIG A   1     -11.306   7.276 129.445  0.00  0.00    +0.166 A 
ATOM     18  O   LIG A   1     -11.793   8.322 128.730  0.00  0.00    -0.453 OA
ATOM     19  C   LIG A   1     -10.912   8.300 127.589  0.00  0.00    +0.466 C 
ATOM     20  O   LIG A   1      -9.949   7.224 127.628  0.00  0.00    -0.453 OA
ATOM     21  C   LIG A   1     -10.256   6.649 128.822  0.00  0.00    +0.167 A 
ATOM     22  C   LIG A   1      -9.614   5.564 129.386  0.00  0.00    +0.056 A 
ENDBRANCH   5  14
BRANCH   5  23
ATOM     23  O   LIG A   1     -10.409   2.975 131.640  0.00  0.00    -0.379 OA
ATOM     24  H   LIG A   1     -11.250   3.367 131.346  0.00  0.00    +0.211 HD
ENDBRANCH   5  23
BRANCH  10  25
ATOM     25  O   LIG A   1      -8.561   0.865 127.393  0.00  0.00    -0.491 OA
ATOM     26  C   LIG A   1      -8.933   1.497 126.172  0.00  0.00    +0.277 C 
ENDBRANCH  10  25
BRANCH   9  27
ATOM     27  O   LIG A   1      -5.930   1.231 127.527  0.00  0.00    -0.491 OA
ATOM     28  C   LIG A   1      -5.224   2.031 126.584  0.00  0.00    +0.277 C 
ENDBRANCH   9  27
TORSDOF 4
ENDMDL
MODEL 6
REMARK VINA RESULT:      -7.2      2.922      6.279
REMARK  Name = NuBBE_588
REMARK  8 active torsions:
REMARK  status: ('A' for Active; 'I' for Inactive)
REMARK    1  A    between atoms: C_3  and  C_29
REMARK    2  A    between atoms: C_5  and  C_28
REMARK    3  A    between atoms: C_7  and  O_8
REMARK    4  A    between atoms: C_7  and  C_19
REMARK    5  A    between atoms: C_12  and  O_17
REMARK    6  A    between atoms: C_13  and  O_14
REMARK    7  A    between atoms: O_14  and  C_15
REMARK    8  A    between atoms: O_17  and  C_18
REMARK                            x       y       z     vdW  Elec       q    Type
REMARK                         _______ _______ _______ _____ _____    ______ ____
ROOT
ATOM      1  O   LIG A   1      -7.524  -2.397 132.115  0.00  0.00    -0.292 OA
ATOM      2  C   LIG A   1      -6.988  -1.916 131.108  0.00  0.00    +0.167 C 
ATOM      3  C   LIG A   1      -5.903  -2.670 130.378  0.00  0.00    +0.063 C 
ATOM      4  C   LIG A   1      -5.023  -1.743 129.512  0.00  0.00    +0.037 C 
ATOM      5  C   LIG A   1      -5.846  -0.770 128.605  0.00  0.00    +0.120 C 
ATOM      6  C   LIG A   1      -6.912  -0.045 129.427  0.00  0.00    +0.003 A 
ATOM      7  C   LIG A   1      -7.461  -0.607 130.582  0.00  0.00    +0.028 A 
ATOM      8  C   LIG A   1      -8.491   0.048 131.276  0.00  0.00    +0.061 A 
ATOM      9  C   LIG A   1      -9.002   1.265 130.812  0.00  0.00    +0.162 A 
ATOM     10  C   LIG A   1      -8.469   1.838 129.648  0.00  0.00    +0.162 A 
ATOM     11  C   LIG A   1      -7.429   1.188 128.974  0.00  0.00    +0.057 A 
ATOM     12  C   LIG A   1      -4.022  -0.995 130.424  0.00  0.00    +0.012 C 
ATOM     13  C   LIG A   1      -6.529  -3.836 129.619  0.00  0.00    +0.016 C 
ENDROOT
BRANCH   5  14
ATOM     14  C   LIG A   1      -6.409  -1.460 127.346  0.00  0.00    -0.008 A 
ATOM     15  C   LIG A   1      -5.575  -2.041 126.352  0.00  0.00    +0.010 A 
ATOM     16  C   LIG A   1      -6.100  -2.684 125.225  0.00  0.00    +0.050 A 
ATOM     17  C   LIG A   1      -7.467  -2.737 125.099  0.00  0.00    +0.166 A 
ATOM     18  O   LIG A   1      -8.145  -3.317 124.075  0.00  0.00    -0.453 OA
ATOM     19  C   LIG A   1      -9.507  -3.094 124.496  0.00  0.00    +0.466 C 
ATOM     20  O   LIG A   1      -9.612  -2.358 125.733  0.00  0.00    -0.453 OA
ATOM     21  C   LIG A   1      -8.298  -2.191 126.044  0.00  0.00    +0.167 A 
ATOM     22  C   LIG A   1      -7.808  -1.559 127.171  0.00  0.00    +0.056 A 
ENDBRANCH   5  14
BRANCH   5  23
ATOM     23  O   LIG A   1      -4.925   0.210 128.093  0.00  0.00    -0.379 OA
ATOM     24  H   LIG A   1      -4.171   0.268 128.705  0.00  0.00    +0.211 HD
ENDBRANCH   5  23
BRANCH  10  25
ATOM     25  O   LIG A   1      -9.000   3.036 129.240  0.00  0.00    -0.491 OA
ATOM     26  C   LIG A   1      -8.139   4.166 129.331  0.00  0.00    +0.277 C 
ENDBRANCH  10  25
BRANCH   9  27
ATOM     27  O   LIG A   1      -9.972   1.972 131.474  0.00  0.00    -0.491 OA
ATOM     28  C   LIG A   1      -9.581   2.581 132.702  0.00  0.00    +0.277 C 
ENDBRANCH   9  27
TORSDOF 4
ENDMDL
MODEL 7
REMARK VINA RESULT:      -7.2      3.171      5.735
REMARK  Name = NuBBE_588
REMARK  8 active torsions:
REMARK  status: ('A' for Active; 'I' for Inactive)
REMARK    1  A    between atoms: C_3  and  C_29
REMARK    2  A    between atoms: C_5  and  C_28
REMARK    3  A    between atoms: C_7  and  O_8
REMARK    4  A    between atoms: C_7  and  C_19
REMARK    5  A    between atoms: C_12  and  O_17
REMARK    6  A    between atoms: C_13  and  O_14
REMARK    7  A    between atoms: O_14  and  C_15
REMARK    8  A    between atoms: O_17  and  C_18
REMARK                            x       y       z     vdW  Elec       q    Type
REMARK                         _______ _______ _______ _____ _____    ______ ____
ROOT
ATOM      1  O   LIG A   1      -6.735  -3.063 128.900  0.00  0.00    -0.292 OA
ATOM      2  C   LIG A   1      -6.925  -1.841 128.848  0.00  0.00    +0.167 C 
ATOM      3  C   LIG A   1      -6.300  -0.919 129.867  0.00  0.00    +0.063 C 
ATOM      4  C   LIG A   1      -7.036   0.434 129.965  0.00  0.00    +0.037 C 
ATOM      5  C   LIG A   1      -7.301   1.103 128.576  0.00  0.00    +0.120 C 
ATOM      6  C   LIG A   1      -7.941   0.103 127.614  0.00  0.00    +0.003 A 
ATOM      7  C   LIG A   1      -7.733  -1.274 127.735  0.00  0.00    +0.028 A 
ATOM      8  C   LIG A   1      -8.273  -2.164 126.792  0.00  0.00    +0.061 A 
ATOM      9  C   LIG A   1      -9.013  -1.688 125.704  0.00  0.00    +0.162 A 
ATOM     10  C   LIG A   1      -9.223  -0.309 125.562  0.00  0.00    +0.162 A 
ATOM     11  C   LIG A   1      -8.698   0.570 126.517  0.00  0.00    +0.057 A 
ATOM     12  C   LIG A   1      -8.333   0.249 130.788  0.00  0.00    +0.012 C 
ATOM     13  C   LIG A   1      -4.805  -0.806 129.587  0.00  0.00    +0.016 C 
ENDROOT
BRANCH   5  14
ATOM     14  C   LIG A   1      -6.049   1.793 127.997  0.00  0.00    -0.008 A 
ATOM     15  C   LIG A   1      -5.478   1.422 126.748  0.00  0.00    +0.010 A 
ATOM     16  C   LIG A   1      -4.355   2.072 126.224  0.00  0.00    +0.050 A 
ATOM     17  C   LIG A   1      -3.804   3.092 126.961  0.00  0.00    +0.166 A 
ATOM     18  O   LIG A   1      -2.718   3.826 126.608  0.00  0.00    -0.453 OA
ATOM     19  C   LIG A   1      -2.638   4.738 127.722  0.00  0.00    +0.466 C 
ATOM     20  O   LIG A   1      -3.647   4.505 128.728  0.00  0.00    -0.453 OA
ATOM     21  C   LIG A   1      -4.336   3.476 128.166  0.00  0.00    +0.167 A 
ATOM     22  C   LIG A   1      -5.449   2.859 128.704  0.00  0.00    +0.056 A 
ENDBRANCH   5  14
BRANCH   5  23
ATOM     23  O   LIG A   1      -8.231   2.179 128.796  0.00  0.00    -0.379 OA
ATOM     24  H   LIG A   1      -8.356   2.282 129.756  0.00  0.00    +0.211 HD
ENDBRANCH   5  23
BRANCH  10  25
ATOM     25  O   LIG A   1      -9.961   0.105 124.482  0.00  0.00    -0.491 OA
ATOM     26  C   LIG A   1      -9.996   1.509 124.248  0.00  0.00    +0.277 C 
ENDBRANCH  10  25
BRANCH   9  27
ATOM     27  O   LIG A   1      -9.604  -2.513 124.782  0.00  0.00    -0.491 OA
ATOM     28  C   LIG A   1      -8.724  -3.287 123.972  0.00  0.00    +0.277 C 
ENDBRANCH   9  27
TORSDOF 4
ENDMDL
MODEL 8
REMARK VINA RESULT:      -7.2      6.359      9.501
REMARK  Name = NuBBE_588
REMARK  8 active torsions:
REMARK  status: ('A' for Active; 'I' for Inactive)
REMARK    1  A    between atoms: C_3  and  C_29
REMARK    2  A    between atoms: C_5  and  C_28
REMARK    3  A    between atoms: C_7  and  O_8
REMARK    4  A    between atoms: C_7  and  C_19
REMARK    5  A    between atoms: C_12  and  O_17
REMARK    6  A    between atoms: C_13  and  O_14
REMARK    7  A    between atoms: O_14  and  C_15
REMARK    8  A    between atoms: O_17  and  C_18
REMARK                            x       y       z     vdW  Elec       q    Type
REMARK                         _______ _______ _______ _____ _____    ______ ____
ROOT
ATOM      1  O   LIG A   1      -6.627   3.498 133.938  0.00  0.00    -0.292 OA
ATOM      2  C   LIG A   1      -7.361   3.450 132.942  0.00  0.00    +0.167 C 
ATOM      3  C   LIG A   1      -8.861   3.368 133.091  0.00  0.00    +0.063 C 
ATOM      4  C   LIG A   1      -9.547   2.806 131.829  0.00  0.00    +0.037 C 
ATOM      5  C   LIG A   1      -9.074   3.490 130.504  0.00  0.00    +0.120 C 
ATOM      6  C   LIG A   1      -7.548   3.520 130.433  0.00  0.00    +0.003 A 
ATOM      7  C   LIG A   1      -6.756   3.531 131.585  0.00  0.00    +0.028 A 
ATOM      8  C   LIG A   1      -5.359   3.634 131.491  0.00  0.00    +0.061 A 
ATOM      9  C   LIG A   1      -4.734   3.749 130.244  0.00  0.00    +0.162 A 
ATOM     10  C   LIG A   1      -5.514   3.750 129.079  0.00  0.00    +0.162 A 
ATOM     11  C   LIG A   1      -6.905   3.626 129.180  0.00  0.00    +0.057 A 
ATOM     12  C   LIG A   1      -9.372   1.269 131.796  0.00  0.00    +0.012 C 
ATOM     13  C   LIG A   1      -9.391   4.723 133.549  0.00  0.00    +0.016 C 
ENDROOT
BRANCH   5  14
ATOM     14  C   LIG A   1      -9.724   4.870 130.279  0.00  0.00    -0.008 A 
ATOM     15  C   LIG A   1      -8.979   6.082 130.306  0.00  0.00    +0.010 A 
ATOM     16  C   LIG A   1      -9.578   7.326 130.078  0.00  0.00    +0.050 A 
ATOM     17  C   LIG A   1     -10.929   7.349 129.827  0.00  0.00    +0.166 A 
ATOM     18  O   LIG A   1     -11.670   8.461 129.588  0.00  0.00    -0.453 OA
ATOM     19  C   LIG A   1     -12.969   7.875 129.369  0.00  0.00    +0.466 C 
ATOM     20  O   LIG A   1     -12.984   6.439 129.521  0.00  0.00    -0.453 OA
ATOM     21  C   LIG A   1     -11.673   6.197 129.790  0.00  0.00    +0.167 A 
ATOM     22  C   LIG A   1     -11.107   4.954 130.002  0.00  0.00    +0.056 A 
ENDBRANCH   5  14
BRANCH   5  23
ATOM     23  O   LIG A   1      -9.562   2.684 129.416  0.00  0.00    -0.379 OA
ATOM     24  H   LIG A   1     -10.202   3.213 128.909  0.00  0.00    +0.211 HD
ENDBRANCH   5  23
BRANCH  10  25
ATOM     25  O   LIG A   1      -4.852   3.856 127.881  0.00  0.00    -0.491 OA
ATOM     26  C   LIG A   1      -5.595   4.414 126.802  0.00  0.00    +0.277 C 
ENDBRANCH  10  25
BRANCH   9  27
ATOM     27  O   LIG A   1      -3.372   3.803 130.090  0.00  0.00    -0.491 OA
ATOM     28  C   LIG A   1      -2.738   5.008 130.509  0.00  0.00    +0.277 C 
ENDBRANCH   9  27
TORSDOF 4
ENDMDL
MODEL 9
REMARK VINA RESULT:      -7.1      2.998      5.686
REMARK  Name = NuBBE_588
REMARK  8 active torsions:
REMARK  status: ('A' for Active; 'I' for Inactive)
REMARK    1  A    between atoms: C_3  and  C_29
REMARK    2  A    between atoms: C_5  and  C_28
REMARK    3  A    between atoms: C_7  and  O_8
REMARK    4  A    between atoms: C_7  and  C_19
REMARK    5  A    between atoms: C_12  and  O_17
REMARK    6  A    between atoms: C_13  and  O_14
REMARK    7  A    between atoms: O_14  and  C_15
REMARK    8  A    between atoms: O_17  and  C_18
REMARK                            x       y       z     vdW  Elec       q    Type
REMARK                         _______ _______ _______ _____ _____    ______ ____
ROOT
ATOM      1  O   LIG A   1      -5.007   4.578 123.467  0.00  0.00    -0.292 OA
ATOM      2  C   LIG A   1      -5.767   3.890 124.159  0.00  0.00    +0.167 C 
ATOM      3  C   LIG A   1      -7.108   3.447 123.624  0.00  0.00    +0.063 C 
ATOM      4  C   LIG A   1      -8.094   3.072 124.750  0.00  0.00    +0.037 C 
ATOM      5  C   LIG A   1      -7.484   2.108 125.821  0.00  0.00    +0.120 C 
ATOM      6  C   LIG A   1      -6.137   2.639 126.311  0.00  0.00    +0.003 A 
ATOM      7  C   LIG A   1      -5.327   3.449 125.510  0.00  0.00    +0.028 A 
ATOM      8  C   LIG A   1      -4.061   3.860 125.958  0.00  0.00    +0.061 A 
ATOM      9  C   LIG A   1      -3.577   3.449 127.205  0.00  0.00    +0.162 A 
ATOM     10  C   LIG A   1      -4.373   2.627 128.017  0.00  0.00    +0.162 A 
ATOM     11  C   LIG A   1      -5.642   2.239 127.571  0.00  0.00    +0.057 A 
ATOM     12  C   LIG A   1      -8.665   4.366 125.378  0.00  0.00    +0.012 C 
ATOM     13  C   LIG A   1      -6.893   2.354 122.583  0.00  0.00    +0.016 C 
ENDROOT
BRANCH   5  14
ATOM     14  C   LIG A   1      -7.427   0.644 125.342  0.00  0.00    -0.008 A 
ATOM     15  C   LIG A   1      -6.204  -0.063 125.180  0.00  0.00    +0.010 A 
ATOM     16  C   LIG A   1      -6.169  -1.400 124.767  0.00  0.00    +0.050 A 
ATOM     17  C   LIG A   1      -7.366  -2.022 124.512  0.00  0.00    +0.166 A 
ATOM     18  O   LIG A   1      -7.518  -3.308 124.102  0.00  0.00    -0.453 OA
ATOM     19  C   LIG A   1      -8.956  -3.399 124.036  0.00  0.00    +0.466 C 
ATOM     20  O   LIG A   1      -9.626  -2.163 124.367  0.00  0.00    -0.453 OA
ATOM     21  C   LIG A   1      -8.563  -1.368 124.664  0.00  0.00    +0.167 A 
ATOM     22  C   LIG A   1      -8.628  -0.052 125.079  0.00  0.00    +0.056 A 
ENDBRANCH   5  14
BRANCH   5  23
ATOM     23  O   LIG A   1      -8.394   2.085 126.935  0.00  0.00    -0.379 OA
ATOM     24  H   LIG A   1      -9.283   2.307 126.607  0.00  0.00    +0.211 HD
ENDBRANCH   5  23
BRANCH  10  25
ATOM     25  O   LIG A   1      -3.856   2.259 129.233  0.00  0.00    -0.491 OA
ATOM     26  C   LIG A   1      -4.573   2.705 130.380  0.00  0.00    +0.277 C 
ENDBRANCH  10  25
BRANCH   9  27
ATOM     27  O   LIG A   1      -2.372   3.859 127.713  0.00  0.00    -0.491 OA
ATOM     28  C   LIG A   1      -2.328   5.181 128.243  0.00  0.00    +0.277 C 
ENDBRANCH   9  27
TORSDOF 4
ENDMDL
