MODEL 1
REMARK VINA RESULT:      -6.9      0.000      0.000
REMARK  Name = NuBBE_2193
REMARK  8 active torsions:
REMARK  status: ('A' for Active; 'I' for Inactive)
REMARK    1  A    between atoms: C_1  and  C_2
REMARK    2  A    between atoms: C_5  and  O_7
REMARK    3  A    between atoms: C_8  and  O_9
REMARK    4  A    between atoms: C_14  and  C_15
REMARK    5  A    between atoms: C_14  and  C_17
REMARK    6  A    between atoms: C_20  and  C_21
REMARK    7  A    between atoms: C_20  and  C_22
REMARK    8  A    between atoms: C_22  and  O_23
REMARK                            x       y       z     vdW  Elec       q    Type
REMARK                         _______ _______ _______ _____ _____    ______ ____
ROOT
ATOM      1  C   LIG A   1      -9.800  -1.880 126.037  0.00  0.00    +0.012 C 
ATOM      2  C   LIG A   1      -8.300  -2.283 126.086  0.00  0.00    -0.023 C 
ATOM      3  C   LIG A   1      -7.383  -1.366 125.201  0.00  0.00    +0.006 C 
ATOM      4  C   LIG A   1      -7.076  -0.038 125.906  0.00  0.00    +0.039 C 
ATOM      5  C   LIG A   1      -6.295  -0.245 127.216  0.00  0.00    +0.147 C 
ATOM      6  C   LIG A   1      -6.473  -1.654 127.877  0.00  0.00    +0.096 C 
ATOM      7  C   LIG A   1      -7.910  -2.162 127.624  0.00  0.00    +0.030 C 
ATOM      8  C   LIG A   1      -8.231  -3.420 128.453  0.00  0.00    +0.008 C 
ATOM      9  C   LIG A   1      -8.019  -3.164 129.943  0.00  0.00    +0.011 C 
ATOM     10  C   LIG A   1      -6.581  -2.728 130.298  0.00  0.00    -0.012 C 
ATOM     11  C   LIG A   1      -5.604  -3.913 130.147  0.00  0.00    +0.015 C 
ATOM     12  C   LIG A   1      -6.143  -1.540 129.390  0.00  0.00    +0.048 C 
ATOM     13  C   LIG A   1      -7.820  -1.254 123.693  0.00  0.00    -0.005 C 
ATOM     14  C   LIG A   1      -6.548  -0.980 122.840  0.00  0.00    +0.014 C 
ATOM     15  C   LIG A   1      -8.424  -2.605 123.206  0.00  0.00    +0.009 C 
ATOM     16  C   LIG A   1      -7.919  -3.808 123.999  0.00  0.00    +0.001 C 
ATOM     17  C   LIG A   1      -8.171  -3.726 125.516  0.00  0.00    +0.007 C 
ENDROOT
BRANCH   5  18
ATOM     18  O   LIG A   1      -4.902  -0.028 126.959  0.00  0.00    -0.389 OA
ATOM     19  H   LIG A   1      -4.882   0.479 126.119  0.00  0.00    +0.210 HD
ENDBRANCH   5  18
BRANCH   6  20
ATOM     20  O   LIG A   1      -5.496  -2.517 127.267  0.00  0.00    -0.386 OA
ATOM     21  H   LIG A   1      -5.758  -3.441 127.404  0.00  0.00    +0.210 HD
ENDBRANCH   6  20
BRANCH  10  22
ATOM     22  C   LIG A   1      -6.619  -2.229 131.750  0.00  0.00    -0.028 C 
ATOM     23  C   LIG A   1      -7.449  -2.609 132.729  0.00  0.00    +0.004 C 
ENDBRANCH  10  22
BRANCH  13  24
ATOM     24  C   LIG A   1      -8.805  -0.087 123.423  0.00  0.00    +0.162 C 
BRANCH  24  25
ATOM     25  O   LIG A   1      -9.990  -0.526 122.763  0.00  0.00    -0.395 OA
ATOM     26  H   LIG A   1     -10.392   0.242 122.324  0.00  0.00    +0.209 HD
ENDBRANCH  24  25
ENDBRANCH  13  24
TORSDOF 5
ENDMDL
MODEL 2
REMARK VINA RESULT:      -6.9      2.815      4.751
REMARK  Name = NuBBE_2193
REMARK  8 active torsions:
REMARK  status: ('A' for Active; 'I' for Inactive)
REMARK    1  A    between atoms: C_1  and  C_2
REMARK    2  A    between atoms: C_5  and  O_7
REMARK    3  A    between atoms: C_8  and  O_9
REMARK    4  A    between atoms: C_14  and  C_15
REMARK    5  A    between atoms: C_14  and  C_17
REMARK    6  A    between atoms: C_20  and  C_21
REMARK    7  A    between atoms: C_20  and  C_22
REMARK    8  A    between atoms: C_22  and  O_23
REMARK                            x       y       z     vdW  Elec       q    Type
REMARK                         _______ _______ _______ _____ _____    ______ ____
ROOT
ATOM      1  C   LIG A   1      -8.896   2.460 124.753  0.00  0.00    +0.012 C 
ATOM      2  C   LIG A   1      -7.629   1.569 124.617  0.00  0.00    -0.023 C 
ATOM      3  C   LIG A   1      -6.353   2.202 125.278  0.00  0.00    +0.006 C 
ATOM      4  C   LIG A   1      -6.358   2.008 126.800  0.00  0.00    +0.039 C 
ATOM      5  C   LIG A   1      -6.321   0.520 127.193  0.00  0.00    +0.147 C 
ATOM      6  C   LIG A   1      -6.866  -0.467 126.105  0.00  0.00    +0.096 C 
ATOM      7  C   LIG A   1      -8.026   0.207 125.338  0.00  0.00    +0.030 C 
ATOM      8  C   LIG A   1      -8.771  -0.789 124.429  0.00  0.00    +0.008 C 
ATOM      9  C   LIG A   1      -9.293  -1.978 125.231  0.00  0.00    +0.011 C 
ATOM     10  C   LIG A   1      -8.187  -2.761 125.970  0.00  0.00    -0.012 C 
ATOM     11  C   LIG A   1      -7.320  -3.549 124.964  0.00  0.00    +0.015 C 
ATOM     12  C   LIG A   1      -7.304  -1.783 126.801  0.00  0.00    +0.048 C 
ATOM     13  C   LIG A   1      -6.000   3.652 124.776  0.00  0.00    -0.005 C 
ATOM     14  C   LIG A   1      -4.462   3.848 124.907  0.00  0.00    +0.014 C 
ATOM     15  C   LIG A   1      -6.361   3.802 123.268  0.00  0.00    +0.009 C 
ATOM     16  C   LIG A   1      -6.364   2.473 122.517  0.00  0.00    +0.001 C 
ATOM     17  C   LIG A   1      -7.313   1.411 123.101  0.00  0.00    +0.007 C 
ENDROOT
BRANCH   5  18
ATOM     18  O   LIG A   1      -4.968   0.161 127.504  0.00  0.00    -0.389 OA
ATOM     19  H   LIG A   1      -4.684  -0.403 126.753  0.00  0.00    +0.210 HD
ENDBRANCH   5  18
BRANCH   6  20
ATOM     20  O   LIG A   1      -5.762  -0.765 125.233  0.00  0.00    -0.386 OA
ATOM     21  H   LIG A   1      -6.092  -1.232 124.450  0.00  0.00    +0.210 HD
ENDBRANCH   6  20
BRANCH  10  22
ATOM     22  C   LIG A   1      -8.896  -3.711 126.945  0.00  0.00    -0.028 C 
ATOM     23  C   LIG A   1      -8.727  -3.806 128.270  0.00  0.00    +0.004 C 
ENDBRANCH  10  22
BRANCH  13  24
ATOM     24  C   LIG A   1      -6.671   4.773 125.612  0.00  0.00    +0.162 C 
BRANCH  24  25
ATOM     25  O   LIG A   1      -6.539   6.053 124.999  0.00  0.00    -0.395 OA
ATOM     26  H   LIG A   1      -7.425   6.358 124.744  0.00  0.00    +0.209 HD
ENDBRANCH  24  25
ENDBRANCH  13  24
TORSDOF 5
ENDMDL
MODEL 3
REMARK VINA RESULT:      -6.9      8.832     11.082
REMARK  Name = NuBBE_2193
REMARK  8 active torsions:
REMARK  status: ('A' for Active; 'I' for Inactive)
REMARK    1  A    between atoms: C_1  and  C_2
REMARK    2  A    between atoms: C_5  and  O_7
REMARK    3  A    between atoms: C_8  and  O_9
REMARK    4  A    between atoms: C_14  and  C_15
REMARK    5  A    between atoms: C_14  and  C_17
REMARK    6  A    between atoms: C_20  and  C_21
REMARK    7  A    between atoms: C_20  and  C_22
REMARK    8  A    between atoms: C_22  and  O_23
REMARK                            x       y       z     vdW  Elec       q    Type
REMARK                         _______ _______ _______ _____ _____    ______ ____
ROOT
ATOM      1  C   LIG A   1      -7.497   6.862 130.368  0.00  0.00    +0.012 C 
ATOM      2  C   LIG A   1      -8.794   6.019 130.220  0.00  0.00    -0.023 C 
ATOM      3  C   LIG A   1      -9.151   5.199 131.510  0.00  0.00    +0.006 C 
ATOM      4  C   LIG A   1      -9.818   6.087 132.569  0.00  0.00    +0.039 C 
ATOM      5  C   LIG A   1     -11.156   6.668 132.077  0.00  0.00    +0.147 C 
ATOM      6  C   LIG A   1     -11.302   6.769 130.521  0.00  0.00    +0.096 C 
ATOM      7  C   LIG A   1      -9.925   7.091 129.897  0.00  0.00    +0.030 C 
ATOM      8  C   LIG A   1     -10.040   7.451 128.403  0.00  0.00    +0.008 C 
ATOM      9  C   LIG A   1     -10.998   8.620 128.193  0.00  0.00    +0.011 C 
ATOM     10  C   LIG A   1     -12.426   8.353 128.717  0.00  0.00    -0.012 C 
ATOM     11  C   LIG A   1     -13.148   7.325 127.820  0.00  0.00    +0.015 C 
ATOM     12  C   LIG A   1     -12.368   7.847 130.189  0.00  0.00    +0.048 C 
ATOM     13  C   LIG A   1      -8.002   4.259 132.033  0.00  0.00    -0.005 C 
ATOM     14  C   LIG A   1      -8.658   3.057 132.772  0.00  0.00    +0.014 C 
ATOM     15  C   LIG A   1      -7.192   3.680 130.834  0.00  0.00    +0.009 C 
ATOM     16  C   LIG A   1      -7.997   3.626 129.538  0.00  0.00    +0.001 C 
ATOM     17  C   LIG A   1      -8.566   4.982 129.081  0.00  0.00    +0.007 C 
ENDROOT
BRANCH   5  18
ATOM     18  O   LIG A   1     -12.223   5.859 132.589  0.00  0.00    -0.389 OA
ATOM     19  H   LIG A   1     -12.244   5.076 131.999  0.00  0.00    +0.210 HD
ENDBRANCH   5  18
BRANCH   6  20
ATOM     20  O   LIG A   1     -11.797   5.494 130.073  0.00  0.00    -0.386 OA
ATOM     21  H   LIG A   1     -11.883   4.901 130.836  0.00  0.00    +0.210 HD
ENDBRANCH   6  20
BRANCH  10  22
ATOM     22  C   LIG A   1     -13.158   9.702 128.704  0.00  0.00    -0.028 C 
ATOM     23  C   LIG A   1     -13.384  10.525 129.736  0.00  0.00    +0.004 C 
ENDBRANCH  10  22
BRANCH  13  24
ATOM     24  C   LIG A   1      -7.055   4.950 133.049  0.00  0.00    +0.162 C 
BRANCH  24  25
ATOM     25  O   LIG A   1      -7.163   4.387 134.354  0.00  0.00    -0.395 OA
ATOM     26  H   LIG A   1      -7.715   4.978 134.892  0.00  0.00    +0.209 HD
ENDBRANCH  24  25
ENDBRANCH  13  24
TORSDOF 5
ENDMDL
MODEL 4
REMARK VINA RESULT:      -6.8      2.598      3.674
REMARK  Name = NuBBE_2193
REMARK  8 active torsions:
REMARK  status: ('A' for Active; 'I' for Inactive)
REMARK    1  A    between atoms: C_1  and  C_2
REMARK    2  A    between atoms: C_5  and  O_7
REMARK    3  A    between atoms: C_8  and  O_9
REMARK    4  A    between atoms: C_14  and  C_15
REMARK    5  A    between atoms: C_14  and  C_17
REMARK    6  A    between atoms: C_20  and  C_21
REMARK    7  A    between atoms: C_20  and  C_22
REMARK    8  A    between atoms: C_22  and  O_23
REMARK                            x       y       z     vdW  Elec       q    Type
REMARK                         _______ _______ _______ _____ _____    ______ ____
ROOT
ATOM      1  C   LIG A   1      -8.129  -2.937 127.360  0.00  0.00    +0.012 C 
ATOM      2  C   LIG A   1      -7.508  -1.657 126.733  0.00  0.00    -0.023 C 
ATOM      3  C   LIG A   1      -8.108  -1.303 125.326  0.00  0.00    +0.006 C 
ATOM      4  C   LIG A   1      -9.471  -0.609 125.458  0.00  0.00    +0.039 C 
ATOM      5  C   LIG A   1      -9.366   0.734 126.203  0.00  0.00    +0.147 C 
ATOM      6  C   LIG A   1      -8.134   0.867 127.160  0.00  0.00    +0.096 C 
ATOM      7  C   LIG A   1      -7.823  -0.509 127.790  0.00  0.00    +0.030 C 
ATOM      8  C   LIG A   1      -6.789  -0.403 128.927  0.00  0.00    +0.008 C 
ATOM      9  C   LIG A   1      -7.255   0.575 130.002  0.00  0.00    +0.011 C 
ATOM     10  C   LIG A   1      -7.512   2.002 129.474  0.00  0.00    -0.012 C 
ATOM     11  C   LIG A   1      -6.180   2.697 129.121  0.00  0.00    +0.015 C 
ATOM     12  C   LIG A   1      -8.446   1.950 128.228  0.00  0.00    +0.048 C 
ATOM     13  C   LIG A   1      -8.033  -2.464 124.266  0.00  0.00    -0.005 C 
ATOM     14  C   LIG A   1      -7.956  -1.822 122.850  0.00  0.00    +0.014 C 
ATOM     15  C   LIG A   1      -6.732  -3.295 124.470  0.00  0.00    +0.009 C 
ATOM     16  C   LIG A   1      -5.615  -2.504 125.146  0.00  0.00    +0.001 C 
ATOM     17  C   LIG A   1      -5.989  -1.914 126.518  0.00  0.00    +0.007 C 
ENDROOT
BRANCH   5  18
ATOM     18  O   LIG A   1      -9.315   1.791 125.235  0.00  0.00    -0.389 OA
ATOM     19  H   LIG A   1      -9.612   1.374 124.398  0.00  0.00    +0.210 HD
ENDBRANCH   5  18
BRANCH   6  20
ATOM     20  O   LIG A   1      -7.038   1.335 126.353  0.00  0.00    -0.386 OA
ATOM     21  H   LIG A   1      -7.205   2.254 126.093  0.00  0.00    +0.210 HD
ENDBRANCH   6  20
BRANCH  10  22
ATOM     22  C   LIG A   1      -8.247   2.759 130.589  0.00  0.00    -0.028 C 
ATOM     23  C   LIG A   1      -9.555   3.030 130.676  0.00  0.00    +0.004 C 
ENDBRANCH  10  22
BRANCH  13  24
ATOM     24  C   LIG A   1      -9.279  -3.388 124.275  0.00  0.00    +0.162 C 
BRANCH  24  25
ATOM     25  O   LIG A   1     -10.138  -3.143 123.165  0.00  0.00    -0.395 OA
ATOM     26  H   LIG A   1     -10.026  -3.870 122.531  0.00  0.00    +0.209 HD
ENDBRANCH  24  25
ENDBRANCH  13  24
TORSDOF 5
ENDMDL
MODEL 5
REMARK VINA RESULT:      -6.6      3.974      5.824
REMARK  Name = NuBBE_2193
REMARK  8 active torsions:
REMARK  status: ('A' for Active; 'I' for Inactive)
REMARK    1  A    between atoms: C_1  and  C_2
REMARK    2  A    between atoms: C_5  and  O_7
REMARK    3  A    between atoms: C_8  and  O_9
REMARK    4  A    between atoms: C_14  and  C_15
REMARK    5  A    between atoms: C_14  and  C_17
REMARK    6  A    between atoms: C_20  and  C_21
REMARK    7  A    between atoms: C_20  and  C_22
REMARK    8  A    between atoms: C_22  and  O_23
REMARK                            x       y       z     vdW  Elec       q    Type
REMARK                         _______ _______ _______ _____ _____    ______ ____
ROOT
ATOM      1  C   LIG A   1      -7.771   0.823 126.919  0.00  0.00    +0.012 C 
ATOM      2  C   LIG A   1      -6.854   1.512 125.868  0.00  0.00    -0.023 C 
ATOM      3  C   LIG A   1      -7.650   2.354 124.809  0.00  0.00    +0.006 C 
ATOM      4  C   LIG A   1      -8.066   3.717 125.378  0.00  0.00    +0.039 C 
ATOM      5  C   LIG A   1      -6.849   4.584 125.752  0.00  0.00    +0.147 C 
ATOM      6  C   LIG A   1      -5.536   3.785 126.056  0.00  0.00    +0.096 C 
ATOM      7  C   LIG A   1      -5.897   2.444 126.733  0.00  0.00    +0.030 C 
ATOM      8  C   LIG A   1      -4.652   1.724 127.285  0.00  0.00    +0.008 C 
ATOM      9  C   LIG A   1      -3.890   2.617 128.260  0.00  0.00    +0.011 C 
ATOM     10  C   LIG A   1      -3.419   3.950 127.642  0.00  0.00    -0.012 C 
ATOM     11  C   LIG A   1      -2.271   3.706 126.640  0.00  0.00    +0.015 C 
ATOM     12  C   LIG A   1      -4.613   4.665 126.941  0.00  0.00    +0.048 C 
ATOM     13  C   LIG A   1      -8.775   1.561 124.046  0.00  0.00    -0.005 C 
ATOM     14  C   LIG A   1      -8.952   2.205 122.640  0.00  0.00    +0.014 C 
ATOM     15  C   LIG A   1      -8.336   0.082 123.826  0.00  0.00    +0.009 C 
ATOM     16  C   LIG A   1      -6.820  -0.098 123.811  0.00  0.00    +0.001 C 
ATOM     17  C   LIG A   1      -6.105   0.398 125.081  0.00  0.00    +0.007 C 
ENDROOT
BRANCH   5  18
ATOM     18  O   LIG A   1      -6.594   5.501 124.681  0.00  0.00    -0.389 OA
ATOM     19  H   LIG A   1      -5.899   5.065 124.143  0.00  0.00    +0.210 HD
ENDBRANCH   5  18
BRANCH   6  20
ATOM     20  O   LIG A   1      -4.883   3.577 124.791  0.00  0.00    -0.386 OA
ATOM     21  H   LIG A   1      -4.890   2.630 124.582  0.00  0.00    +0.210 HD
ENDBRANCH   6  20
BRANCH  10  22
ATOM     22  C   LIG A   1      -2.951   4.834 128.807  0.00  0.00    -0.028 C 
ATOM     23  C   LIG A   1      -2.353   6.030 128.743  0.00  0.00    +0.004 C 
ENDBRANCH  10  22
BRANCH  13  24
ATOM     24  C   LIG A   1     -10.157   1.622 124.748  0.00  0.00    +0.162 C 
BRANCH  24  25
ATOM     25  O   LIG A   1     -11.229   1.350 123.849  0.00  0.00    -0.395 OA
ATOM     26  H   LIG A   1     -10.901   0.746 123.163  0.00  0.00    +0.209 HD
ENDBRANCH  24  25
ENDBRANCH  13  24
TORSDOF 5
ENDMDL
MODEL 6
REMARK VINA RESULT:      -6.6      1.994      6.456
REMARK  Name = NuBBE_2193
REMARK  8 active torsions:
REMARK  status: ('A' for Active; 'I' for Inactive)
REMARK    1  A    between atoms: C_1  and  C_2
REMARK    2  A    between atoms: C_5  and  O_7
REMARK    3  A    between atoms: C_8  and  O_9
REMARK    4  A    between atoms: C_14  and  C_15
REMARK    5  A    between atoms: C_14  and  C_17
REMARK    6  A    between atoms: C_20  and  C_21
REMARK    7  A    between atoms: C_20  and  C_22
REMARK    8  A    between atoms: C_22  and  O_23
REMARK                            x       y       z     vdW  Elec       q    Type
REMARK                         _______ _______ _______ _____ _____    ______ ____
ROOT
ATOM      1  C   LIG A   1      -6.317  -4.062 130.698  0.00  0.00    +0.012 C 
ATOM      2  C   LIG A   1      -6.688  -2.676 130.099  0.00  0.00    -0.023 C 
ATOM      3  C   LIG A   1      -5.506  -1.645 130.146  0.00  0.00    +0.006 C 
ATOM      4  C   LIG A   1      -4.500  -1.895 129.014  0.00  0.00    +0.039 C 
ATOM      5  C   LIG A   1      -5.138  -1.716 127.624  0.00  0.00    +0.147 C 
ATOM      6  C   LIG A   1      -6.691  -1.909 127.578  0.00  0.00    +0.096 C 
ATOM      7  C   LIG A   1      -7.103  -2.997 128.596  0.00  0.00    +0.030 C 
ATOM      8  C   LIG A   1      -8.576  -3.416 128.428  0.00  0.00    +0.008 C 
ATOM      9  C   LIG A   1      -8.850  -3.896 127.006  0.00  0.00    +0.011 C 
ATOM     10  C   LIG A   1      -8.542  -2.840 125.924  0.00  0.00    -0.012 C 
ATOM     11  C   LIG A   1      -9.584  -1.702 125.966  0.00  0.00    +0.015 C 
ATOM     12  C   LIG A   1      -7.106  -2.271 126.126  0.00  0.00    +0.048 C 
ATOM     13  C   LIG A   1      -4.883  -1.420 131.574  0.00  0.00    -0.005 C 
ATOM     14  C   LIG A   1      -4.308   0.025 131.629  0.00  0.00    +0.014 C 
ATOM     15  C   LIG A   1      -5.990  -1.521 132.666  0.00  0.00    +0.009 C 
ATOM     16  C   LIG A   1      -7.385  -1.198 132.137  0.00  0.00    +0.001 C 
ATOM     17  C   LIG A   1      -7.839  -2.074 130.955  0.00  0.00    +0.007 C 
ENDROOT
BRANCH   5  18
ATOM     18  O   LIG A   1      -4.822  -0.403 127.141  0.00  0.00    -0.389 OA
ATOM     19  H   LIG A   1      -3.917  -0.228 127.477  0.00  0.00    +0.210 HD
ENDBRANCH   5  18
BRANCH   6  20
ATOM     20  O   LIG A   1      -7.272  -0.635 127.907  0.00  0.00    -0.386 OA
ATOM     21  H   LIG A   1      -7.310  -0.542 128.872  0.00  0.00    +0.210 HD
ENDBRANCH   6  20
BRANCH  10  22
ATOM     22  C   LIG A   1      -8.580  -3.569 124.573  0.00  0.00    -0.028 C 
ATOM     23  C   LIG A   1      -9.338  -3.286 123.507  0.00  0.00    +0.004 C 
ENDBRANCH  10  22
BRANCH  13  24
ATOM     24  C   LIG A   1      -3.710  -2.384 131.894  0.00  0.00    +0.162 C 
BRANCH  24  25
ATOM     25  O   LIG A   1      -3.900  -3.068 133.130  0.00  0.00    -0.395 OA
ATOM     26  H   LIG A   1      -4.122  -3.993 132.931  0.00  0.00    +0.209 HD
ENDBRANCH  24  25
ENDBRANCH  13  24
TORSDOF 5
ENDMDL
MODEL 7
REMARK VINA RESULT:      -6.6      2.838      5.129
REMARK  Name = NuBBE_2193
REMARK  8 active torsions:
REMARK  status: ('A' for Active; 'I' for Inactive)
REMARK    1  A    between atoms: C_1  and  C_2
REMARK    2  A    between atoms: C_5  and  O_7
REMARK    3  A    between atoms: C_8  and  O_9
REMARK    4  A    between atoms: C_14  and  C_15
REMARK    5  A    between atoms: C_14  and  C_17
REMARK    6  A    between atoms: C_20  and  C_21
REMARK    7  A    between atoms: C_20  and  C_22
REMARK    8  A    between atoms: C_22  and  O_23
REMARK                            x       y       z     vdW  Elec       q    Type
REMARK                         _______ _______ _______ _____ _____    ______ ____
ROOT
ATOM      1  C   LIG A   1      -6.215  -1.838 127.040  0.00  0.00    +0.012 C 
ATOM      2  C   LIG A   1      -6.459  -0.948 125.789  0.00  0.00    -0.023 C 
ATOM      3  C   LIG A   1      -7.895  -1.119 125.177  0.00  0.00    +0.006 C 
ATOM      4  C   LIG A   1      -8.940  -0.328 125.976  0.00  0.00    +0.039 C 
ATOM      5  C   LIG A   1      -8.666   1.186 125.946  0.00  0.00    +0.147 C 
ATOM      6  C   LIG A   1      -7.176   1.584 125.671  0.00  0.00    +0.096 C 
ATOM      7  C   LIG A   1      -6.239   0.538 126.314  0.00  0.00    +0.030 C 
ATOM      8  C   LIG A   1      -4.768   0.996 126.301  0.00  0.00    +0.008 C 
ATOM      9  C   LIG A   1      -4.607   2.344 126.998  0.00  0.00    +0.011 C 
ATOM     10  C   LIG A   1      -5.450   3.472 126.368  0.00  0.00    -0.012 C 
ATOM     11  C   LIG A   1      -4.873   3.876 124.994  0.00  0.00    +0.015 C 
ATOM     12  C   LIG A   1      -6.933   3.015 126.224  0.00  0.00    +0.048 C 
ATOM     13  C   LIG A   1      -8.288  -2.601 124.819  0.00  0.00    -0.005 C 
ATOM     14  C   LIG A   1      -9.304  -2.561 123.641  0.00  0.00    +0.014 C 
ATOM     15  C   LIG A   1      -7.035  -3.385 124.325  0.00  0.00    +0.009 C 
ATOM     16  C   LIG A   1      -5.956  -2.481 123.734  0.00  0.00    +0.001 C 
ATOM     17  C   LIG A   1      -5.450  -1.382 124.686  0.00  0.00    +0.007 C 
ENDROOT
BRANCH   5  18
ATOM     18  O   LIG A   1      -9.496   1.782 124.940  0.00  0.00    -0.389 OA
ATOM     19  H   LIG A   1      -9.575   2.722 125.211  0.00  0.00    +0.210 HD
ENDBRANCH   5  18
BRANCH   6  20
ATOM     20  O   LIG A   1      -7.020   1.622 124.241  0.00  0.00    -0.386 OA
ATOM     21  H   LIG A   1      -6.137   1.961 124.027  0.00  0.00    +0.210 HD
ENDBRANCH   6  20
BRANCH  10  22
ATOM     22  C   LIG A   1      -5.409   4.653 127.348  0.00  0.00    -0.028 C 
ATOM     23  C   LIG A   1      -4.441   4.965 128.220  0.00  0.00    +0.004 C 
ENDBRANCH  10  22
BRANCH  13  24
ATOM     24  C   LIG A   1      -8.978  -3.355 125.986  0.00  0.00    +0.162 C 
BRANCH  24  25
ATOM     25  O   LIG A   1     -10.399  -3.304 125.892  0.00  0.00    -0.395 OA
ATOM     26  H   LIG A   1     -10.630  -2.877 125.050  0.00  0.00    +0.209 HD
ENDBRANCH  24  25
ENDBRANCH  13  24
TORSDOF 5
ENDMDL
MODEL 8
REMARK VINA RESULT:      -6.6      8.166     10.551
REMARK  Name = NuBBE_2193
REMARK  8 active torsions:
REMARK  status: ('A' for Active; 'I' for Inactive)
REMARK    1  A    between atoms: C_1  and  C_2
REMARK    2  A    between atoms: C_5  and  O_7
REMARK    3  A    between atoms: C_8  and  O_9
REMARK    4  A    between atoms: C_14  and  C_15
REMARK    5  A    between atoms: C_14  and  C_17
REMARK    6  A    between atoms: C_20  and  C_21
REMARK    7  A    between atoms: C_20  and  C_22
REMARK    8  A    between atoms: C_22  and  O_23
REMARK                            x       y       z     vdW  Elec       q    Type
REMARK                         _______ _______ _______ _____ _____    ______ ____
ROOT
ATOM      1  C   LIG A   1      -6.314   6.883 131.108  0.00  0.00    +0.012 C 
ATOM      2  C   LIG A   1      -7.319   5.697 131.076  0.00  0.00    -0.023 C 
ATOM      3  C   LIG A   1      -7.168   4.725 132.299  0.00  0.00    +0.006 C 
ATOM      4  C   LIG A   1      -7.842   5.297 133.554  0.00  0.00    +0.039 C 
ATOM      5  C   LIG A   1      -9.359   5.476 133.365  0.00  0.00    +0.147 C 
ATOM      6  C   LIG A   1      -9.828   5.631 131.878  0.00  0.00    +0.096 C 
ATOM      7  C   LIG A   1      -8.749   6.395 131.078  0.00  0.00    +0.030 C 
ATOM      8  C   LIG A   1      -9.250   6.801 129.679  0.00  0.00    +0.008 C 
ATOM      9  C   LIG A   1     -10.524   7.636 129.774  0.00  0.00    +0.011 C 
ATOM     10  C   LIG A   1     -11.686   6.916 130.491  0.00  0.00    -0.012 C 
ATOM     11  C   LIG A   1     -12.244   5.779 129.609  0.00  0.00    +0.015 C 
ATOM     12  C   LIG A   1     -11.201   6.355 131.862  0.00  0.00    +0.048 C 
ATOM     13  C   LIG A   1      -5.720   4.144 132.507  0.00  0.00    -0.005 C 
ATOM     14  C   LIG A   1      -5.849   2.754 133.193  0.00  0.00    +0.014 C 
ATOM     15  C   LIG A   1      -5.028   3.919 131.129  0.00  0.00    +0.009 C 
ATOM     16  C   LIG A   1      -6.020   3.710 129.987  0.00  0.00    +0.001 C 
ATOM     17  C   LIG A   1      -7.030   4.856 129.799  0.00  0.00    +0.007 C 
ENDROOT
BRANCH   5  18
ATOM     18  O   LIG A   1     -10.030   4.350 133.945  0.00  0.00    -0.389 OA
ATOM     19  H   LIG A   1     -10.178   3.737 133.194  0.00  0.00    +0.210 HD
ENDBRANCH   5  18
BRANCH   6  20
ATOM     20  O   LIG A   1     -10.016   4.299 131.369  0.00  0.00    -0.386 OA
ATOM     21  H   LIG A   1     -10.411   3.746 132.061  0.00  0.00    +0.210 HD
ENDBRANCH   6  20
BRANCH  10  22
ATOM     22  C   LIG A   1     -12.760   7.978 130.764  0.00  0.00    -0.028 C 
ATOM     23  C   LIG A   1     -12.951   9.138 130.124  0.00  0.00    +0.004 C 
ENDBRANCH  10  22
BRANCH  13  24
ATOM     24  C   LIG A   1      -4.831   5.021 133.427  0.00  0.00    +0.162 C 
BRANCH  24  25
ATOM     25  O   LIG A   1      -3.590   5.358 132.813  0.00  0.00    -0.395 OA
ATOM     26  H   LIG A   1      -2.878   4.928 133.315  0.00  0.00    +0.209 HD
ENDBRANCH  24  25
ENDBRANCH  13  24
TORSDOF 5
ENDMDL
MODEL 9
REMARK VINA RESULT:      -6.5      2.777      6.130
REMARK  Name = NuBBE_2193
REMARK  8 active torsions:
REMARK  status: ('A' for Active; 'I' for Inactive)
REMARK    1  A    between atoms: C_1  and  C_2
REMARK    2  A    between atoms: C_5  and  O_7
REMARK    3  A    between atoms: C_8  and  O_9
REMARK    4  A    between atoms: C_14  and  C_15
REMARK    5  A    between atoms: C_14  and  C_17
REMARK    6  A    between atoms: C_20  and  C_21
REMARK    7  A    between atoms: C_20  and  C_22
REMARK    8  A    between atoms: C_22  and  O_23
REMARK                            x       y       z     vdW  Elec       q    Type
REMARK                         _______ _______ _______ _____ _____    ______ ____
ROOT
ATOM      1  C   LIG A   1      -7.791   2.811 126.461  0.00  0.00    +0.012 C 
ATOM      2  C   LIG A   1      -6.494   2.008 126.160  0.00  0.00    -0.023 C 
ATOM      3  C   LIG A   1      -5.543   1.879 127.402  0.00  0.00    +0.006 C 
ATOM      4  C   LIG A   1      -6.026   0.787 128.366  0.00  0.00    +0.039 C 
ATOM      5  C   LIG A   1      -6.024  -0.606 127.709  0.00  0.00    +0.147 C 
ATOM      6  C   LIG A   1      -6.127  -0.601 126.146  0.00  0.00    +0.096 C 
ATOM      7  C   LIG A   1      -7.016   0.578 125.694  0.00  0.00    +0.030 C 
ATOM      8  C   LIG A   1      -7.364   0.496 124.195  0.00  0.00    +0.008 C 
ATOM      9  C   LIG A   1      -8.041  -0.830 123.861  0.00  0.00    +0.011 C 
ATOM     10  C   LIG A   1      -7.185  -2.067 124.208  0.00  0.00    -0.012 C 
ATOM     11  C   LIG A   1      -5.992  -2.189 123.235  0.00  0.00    +0.015 C 
ATOM     12  C   LIG A   1      -6.682  -1.974 125.679  0.00  0.00    +0.048 C 
ATOM     13  C   LIG A   1      -5.139   3.247 128.068  0.00  0.00    -0.005 C 
ATOM     14  C   LIG A   1      -3.741   3.070 128.728  0.00  0.00    +0.014 C 
ATOM     15  C   LIG A   1      -5.002   4.355 126.982  0.00  0.00    +0.009 C 
ATOM     16  C   LIG A   1      -4.679   3.800 125.596  0.00  0.00    +0.001 C 
ATOM     17  C   LIG A   1      -5.697   2.775 125.065  0.00  0.00    +0.007 C 
ENDROOT
BRANCH   5  18
ATOM     18  O   LIG A   1      -4.824  -1.290 128.091  0.00  0.00    -0.389 OA
ATOM     19  H   LIG A   1      -5.137  -2.076 128.589  0.00  0.00    +0.210 HD
ENDBRANCH   5  18
BRANCH   6  20
ATOM     20  O   LIG A   1      -4.783  -0.467 125.649  0.00  0.00    -0.386 OA
ATOM     21  H   LIG A   1      -4.308   0.185 126.188  0.00  0.00    +0.210 HD
ENDBRANCH   6  20
BRANCH  10  22
ATOM     22  C   LIG A   1      -8.110  -3.287 124.097  0.00  0.00    -0.028 C 
ATOM     23  C   LIG A   1      -9.386  -3.318 123.693  0.00  0.00    +0.004 C 
ENDBRANCH  10  22
BRANCH  13  24
ATOM     24  C   LIG A   1      -6.113   3.698 129.188  0.00  0.00    +0.162 C 
BRANCH  24  25
ATOM     25  O   LIG A   1      -6.588   5.026 128.983  0.00  0.00    -0.395 OA
ATOM     26  H   LIG A   1      -5.942   5.496 128.431  0.00  0.00    +0.209 HD
ENDBRANCH  24  25
ENDBRANCH  13  24
TORSDOF 5
ENDMDL
