MODEL 1
REMARK VINA RESULT:      -7.6      0.000      0.000
REMARK  Name = NuBBE_427
REMARK  5 active torsions:
REMARK  status: ('A' for Active; 'I' for Inactive)
REMARK    1  A    between atoms: C_2  and  C_8
REMARK    2  A    between atoms: C_9  and  C_10
REMARK    3  A    between atoms: C_11  and  C_12
REMARK    4  A    between atoms: C_12  and  C_13
REMARK    5  A    between atoms: C_13  and  C_14
REMARK                            x       y       z     vdW  Elec       q    Type
REMARK                         _______ _______ _______ _____ _____    ______ ____
ROOT
ATOM      1  C   LIG A   1     -10.039   0.827 124.771  0.00  0.00    -0.004 C 
ATOM      2  C   LIG A   1      -9.477   1.087 123.578  0.00  0.00    -0.026 C 
ENDROOT
BRANCH   1   4
ATOM      3  C   LIG A   1      -8.730  -0.570 126.383  0.00  0.00    +0.067 C 
ATOM      4  C   LIG A   1      -9.307   0.569 125.987  0.00  0.00    +0.005 C 
BRANCH   3   6
ATOM      5  O   LIG A   1      -9.752  -2.539 125.557  0.00  0.00    -0.271 OA
ATOM      6  C   LIG A   1      -8.729  -1.881 125.679  0.00  0.00    +0.239 C 
ATOM      7  N   LIG A   1      -7.509  -2.250 125.144  0.00  0.00    -0.298 N 
ATOM      8  C   LIG A   1      -6.235  -1.563 125.284  0.00  0.00    +0.108 C 
ATOM      9  C   LIG A   1      -5.361  -2.169 124.199  0.00  0.00    +0.020 C 
ATOM     10  C   LIG A   1      -5.867  -3.601 124.102  0.00  0.00    +0.020 C 
ATOM     11  C   LIG A   1      -7.363  -3.476 124.376  0.00  0.00    +0.108 C 
ENDBRANCH   3   6
ENDBRANCH   1   4
BRANCH   2  12
ATOM     12  C   LIG A   1      -8.011   1.291 123.277  0.00  0.00    +0.032 C 
BRANCH  12  13
ATOM     13  C   LIG A   1      -7.519   2.700 123.645  0.00  0.00    +0.039 C 
BRANCH  13  14
ATOM     14  C   LIG A   1      -6.869   3.427 122.489  0.00  0.00    -0.043 A 
ATOM     15  C   LIG A   1      -5.563   3.953 122.629  0.00  0.00    +0.007 A 
ATOM     16  C   LIG A   1      -4.925   4.596 121.566  0.00  0.00    +0.050 A 
ATOM     17  C   LIG A   1      -5.621   4.719 120.386  0.00  0.00    +0.166 A 
ATOM     18  C   LIG A   1      -6.892   4.214 120.238  0.00  0.00    +0.167 A 
ATOM     19  O   LIG A   1      -7.403   4.453 119.000  0.00  0.00    -0.453 OA
ATOM     20  C   LIG A   1      -6.335   5.226 118.413  0.00  0.00    +0.466 C 
ATOM     21  O   LIG A   1      -5.173   5.335 119.259  0.00  0.00    -0.453 OA
ATOM     22  C   LIG A   1      -7.538   3.552 121.261  0.00  0.00    +0.053 A 
ENDBRANCH  13  14
ENDBRANCH  12  13
ENDBRANCH   2  12
TORSDOF 5
ENDMDL
MODEL 2
REMARK VINA RESULT:      -7.4      7.547      9.274
REMARK  Name = NuBBE_427
REMARK  5 active torsions:
REMARK  status: ('A' for Active; 'I' for Inactive)
REMARK    1  A    between atoms: C_2  and  C_8
REMARK    2  A    between atoms: C_9  and  C_10
REMARK    3  A    between atoms: C_11  and  C_12
REMARK    4  A    between atoms: C_12  and  C_13
REMARK    5  A    between atoms: C_13  and  C_14
REMARK                            x       y       z     vdW  Elec       q    Type
REMARK                         _______ _______ _______ _____ _____    ______ ____
ROOT
ATOM      1  C   LIG A   1      -8.244   2.948 133.664  0.00  0.00    -0.004 C 
ATOM      2  C   LIG A   1      -7.755   4.137 134.055  0.00  0.00    -0.026 C 
ENDROOT
BRANCH   1   4
ATOM      3  C   LIG A   1      -9.820   1.832 132.071  0.00  0.00    +0.067 C 
ATOM      4  C   LIG A   1      -9.500   2.760 132.979  0.00  0.00    +0.005 C 
BRANCH   3   6
ATOM      5  O   LIG A   1      -8.668  -0.234 132.144  0.00  0.00    -0.271 OA
ATOM      6  C   LIG A   1      -8.942   0.771 131.507  0.00  0.00    +0.239 C 
ATOM      7  N   LIG A   1      -8.521   0.998 130.209  0.00  0.00    -0.298 N 
ATOM      8  C   LIG A   1      -8.750   2.182 129.397  0.00  0.00    +0.108 C 
ATOM      9  C   LIG A   1      -8.425   1.735 127.982  0.00  0.00    +0.020 C 
ATOM     10  C   LIG A   1      -7.327   0.702 128.186  0.00  0.00    +0.020 C 
ATOM     11  C   LIG A   1      -7.706   0.025 129.500  0.00  0.00    +0.108 C 
ENDBRANCH   3   6
ENDBRANCH   1   4
BRANCH   2  12
ATOM     12  C   LIG A   1      -8.320   5.506 133.760  0.00  0.00    +0.032 C 
BRANCH  12  13
ATOM     13  C   LIG A   1      -7.932   6.022 132.366  0.00  0.00    +0.039 C 
BRANCH  13  14
ATOM     14  C   LIG A   1      -9.119   6.470 131.543  0.00  0.00    -0.043 A 
ATOM     15  C   LIG A   1     -10.434   6.192 131.989  0.00  0.00    +0.007 A 
ATOM     16  C   LIG A   1     -11.548   6.626 131.267  0.00  0.00    +0.050 A 
ATOM     17  C   LIG A   1     -11.322   7.312 130.096  0.00  0.00    +0.166 A 
ATOM     18  C   LIG A   1     -10.048   7.586 129.652  0.00  0.00    +0.167 A 
ATOM     19  O   LIG A   1     -10.047   8.262 128.471  0.00  0.00    -0.453 OA
ATOM     20  C   LIG A   1     -11.462   8.319 128.192  0.00  0.00    +0.466 C 
ATOM     21  O   LIG A   1     -12.279   7.785 129.253  0.00  0.00    -0.453 OA
ATOM     22  C   LIG A   1      -8.929   7.193 130.355  0.00  0.00    +0.053 A 
ENDBRANCH  13  14
ENDBRANCH  12  13
ENDBRANCH   2  12
TORSDOF 5
ENDMDL
MODEL 3
REMARK VINA RESULT:      -7.4      3.641      4.985
REMARK  Name = NuBBE_427
REMARK  5 active torsions:
REMARK  status: ('A' for Active; 'I' for Inactive)
REMARK    1  A    between atoms: C_2  and  C_8
REMARK    2  A    between atoms: C_9  and  C_10
REMARK    3  A    between atoms: C_11  and  C_12
REMARK    4  A    between atoms: C_12  and  C_13
REMARK    5  A    between atoms: C_13  and  C_14
REMARK                            x       y       z     vdW  Elec       q    Type
REMARK                         _______ _______ _______ _____ _____    ______ ____
ROOT
ATOM      1  C   LIG A   1      -8.511  -3.573 125.574  0.00  0.00    -0.004 C 
ATOM      2  C   LIG A   1      -8.477  -3.635 124.232  0.00  0.00    -0.026 C 
ENDROOT
BRANCH   1   4
ATOM      3  C   LIG A   1      -8.028  -1.630 127.077  0.00  0.00    +0.067 C 
ATOM      4  C   LIG A   1      -8.839  -2.392 126.334  0.00  0.00    +0.005 C 
BRANCH   3   6
ATOM      5  O   LIG A   1      -5.724  -1.304 126.641  0.00  0.00    -0.271 OA
ATOM      6  C   LIG A   1      -6.577  -1.833 127.338  0.00  0.00    +0.239 C 
ATOM      7  N   LIG A   1      -6.292  -2.611 128.445  0.00  0.00    -0.298 N 
ATOM      8  C   LIG A   1      -7.233  -3.322 129.296  0.00  0.00    +0.108 C 
ATOM      9  C   LIG A   1      -6.430  -3.661 130.540  0.00  0.00    +0.020 C 
ATOM     10  C   LIG A   1      -5.021  -3.862 130.003  0.00  0.00    +0.020 C 
ATOM     11  C   LIG A   1      -4.920  -2.851 128.864  0.00  0.00    +0.108 C 
ENDBRANCH   3   6
ENDBRANCH   1   4
BRANCH   2  12
ATOM     12  C   LIG A   1      -8.887  -2.563 123.250  0.00  0.00    +0.032 C 
BRANCH  12  13
ATOM     13  C   LIG A   1      -7.771  -1.541 122.985  0.00  0.00    +0.039 C 
BRANCH  13  14
ATOM     14  C   LIG A   1      -8.099  -0.154 123.492  0.00  0.00    -0.043 A 
ATOM     15  C   LIG A   1      -9.441   0.297 123.496  0.00  0.00    +0.007 A 
ATOM     16  C   LIG A   1      -9.776   1.559 123.992  0.00  0.00    +0.050 A 
ATOM     17  C   LIG A   1      -8.753   2.355 124.455  0.00  0.00    +0.166 A 
ATOM     18  C   LIG A   1      -7.446   1.927 124.453  0.00  0.00    +0.167 A 
ATOM     19  O   LIG A   1      -6.593   2.869 124.939  0.00  0.00    -0.453 OA
ATOM     20  C   LIG A   1      -7.507   3.960 125.181  0.00  0.00    +0.466 C 
ATOM     21  O   LIG A   1      -8.887   3.616 124.946  0.00  0.00    -0.453 OA
ATOM     22  C   LIG A   1      -7.087   0.678 123.993  0.00  0.00    +0.053 A 
ENDBRANCH  13  14
ENDBRANCH  12  13
ENDBRANCH   2  12
TORSDOF 5
ENDMDL
MODEL 4
REMARK VINA RESULT:      -7.2      4.481      5.658
REMARK  Name = NuBBE_427
REMARK  5 active torsions:
REMARK  status: ('A' for Active; 'I' for Inactive)
REMARK    1  A    between atoms: C_2  and  C_8
REMARK    2  A    between atoms: C_9  and  C_10
REMARK    3  A    between atoms: C_11  and  C_12
REMARK    4  A    between atoms: C_12  and  C_13
REMARK    5  A    between atoms: C_13  and  C_14
REMARK                            x       y       z     vdW  Elec       q    Type
REMARK                         _______ _______ _______ _____ _____    ______ ____
ROOT
ATOM      1  C   LIG A   1      -7.662   2.861 122.594  0.00  0.00    -0.004 C 
ATOM      2  C   LIG A   1      -6.421   3.362 122.717  0.00  0.00    -0.026 C 
ENDROOT
BRANCH   1   4
ATOM      3  C   LIG A   1      -9.528   1.880 123.944  0.00  0.00    +0.067 C 
ATOM      4  C   LIG A   1      -8.651   2.844 123.644  0.00  0.00    +0.005 C 
BRANCH   3   6
ATOM      5  O   LIG A   1     -10.629   0.438 122.425  0.00  0.00    -0.271 OA
ATOM      6  C   LIG A   1      -9.732   0.585 123.240  0.00  0.00    +0.239 C 
ATOM      7  N   LIG A   1      -8.802  -0.392 123.546  0.00  0.00    -0.298 N 
ATOM      8  C   LIG A   1      -7.740  -0.326 124.537  0.00  0.00    +0.108 C 
ATOM      9  C   LIG A   1      -6.816  -1.476 124.174  0.00  0.00    +0.020 C 
ATOM     10  C   LIG A   1      -7.767  -2.520 123.605  0.00  0.00    +0.020 C 
ATOM     11  C   LIG A   1      -8.833  -1.691 122.895  0.00  0.00    +0.108 C 
ENDBRANCH   3   6
ENDBRANCH   1   4
BRANCH   2  12
ATOM     12  C   LIG A   1      -5.845   4.113 123.895  0.00  0.00    +0.032 C 
BRANCH  12  13
ATOM     13  C   LIG A   1      -5.402   3.182 125.034  0.00  0.00    +0.039 C 
BRANCH  13  14
ATOM     14  C   LIG A   1      -4.499   3.859 126.041  0.00  0.00    -0.043 A 
ATOM     15  C   LIG A   1      -3.226   3.313 126.329  0.00  0.00    +0.007 A 
ATOM     16  C   LIG A   1      -2.358   3.937 127.228  0.00  0.00    +0.050 A 
ATOM     17  C   LIG A   1      -2.795   5.090 127.839  0.00  0.00    +0.166 A 
ATOM     18  C   LIG A   1      -4.032   5.629 127.569  0.00  0.00    +0.167 A 
ATOM     19  O   LIG A   1      -4.271   6.760 128.287  0.00  0.00    -0.453 OA
ATOM     20  C   LIG A   1      -3.072   6.828 129.088  0.00  0.00    +0.466 C 
ATOM     21  O   LIG A   1      -2.101   5.816 128.756  0.00  0.00    -0.453 OA
ATOM     22  C   LIG A   1      -4.900   5.049 126.668  0.00  0.00    +0.053 A 
ENDBRANCH  13  14
ENDBRANCH  12  13
ENDBRANCH   2  12
TORSDOF 5
ENDMDL
MODEL 5
REMARK VINA RESULT:      -7.2      1.583      2.366
REMARK  Name = NuBBE_427
REMARK  5 active torsions:
REMARK  status: ('A' for Active; 'I' for Inactive)
REMARK    1  A    between atoms: C_2  and  C_8
REMARK    2  A    between atoms: C_9  and  C_10
REMARK    3  A    between atoms: C_11  and  C_12
REMARK    4  A    between atoms: C_12  and  C_13
REMARK    5  A    between atoms: C_13  and  C_14
REMARK                            x       y       z     vdW  Elec       q    Type
REMARK                         _______ _______ _______ _____ _____    ______ ____
ROOT
ATOM      1  C   LIG A   1      -8.296   1.117 127.344  0.00  0.00    -0.004 C 
ATOM      2  C   LIG A   1      -7.007   1.498 127.350  0.00  0.00    -0.026 C 
ENDROOT
BRANCH   1   4
ATOM      3  C   LIG A   1      -9.150  -0.229 125.415  0.00  0.00    +0.067 C 
ATOM      4  C   LIG A   1      -9.079   0.882 126.156  0.00  0.00    +0.005 C 
BRANCH   3   6
ATOM      5  O   LIG A   1      -8.667  -2.258 126.534  0.00  0.00    -0.271 OA
ATOM      6  C   LIG A   1      -8.404  -1.502 125.611  0.00  0.00    +0.239 C 
ATOM      7  N   LIG A   1      -7.451  -1.768 124.646  0.00  0.00    -0.298 N 
ATOM      8  C   LIG A   1      -7.035  -0.908 123.549  0.00  0.00    +0.108 C 
ATOM      9  C   LIG A   1      -6.281  -1.835 122.611  0.00  0.00    +0.020 C 
ATOM     10  C   LIG A   1      -5.648  -2.847 123.554  0.00  0.00    +0.020 C 
ATOM     11  C   LIG A   1      -6.681  -3.001 124.667  0.00  0.00    +0.108 C 
ENDBRANCH   3   6
ENDBRANCH   1   4
BRANCH   2  12
ATOM     12  C   LIG A   1      -6.082   1.631 126.163  0.00  0.00    +0.032 C 
BRANCH  12  13
ATOM     13  C   LIG A   1      -5.858   3.093 125.745  0.00  0.00    +0.039 C 
BRANCH  13  14
ATOM     14  C   LIG A   1      -6.048   3.326 124.262  0.00  0.00    -0.043 A 
ATOM     15  C   LIG A   1      -7.096   2.669 123.573  0.00  0.00    +0.007 A 
ATOM     16  C   LIG A   1      -7.316   2.894 122.212  0.00  0.00    +0.050 A 
ATOM     17  C   LIG A   1      -6.466   3.759 121.562  0.00  0.00    +0.166 A 
ATOM     18  C   LIG A   1      -5.443   4.401 122.222  0.00  0.00    +0.167 A 
ATOM     19  O   LIG A   1      -4.716   5.200 121.395  0.00  0.00    -0.453 OA
ATOM     20  C   LIG A   1      -5.356   4.931 120.130  0.00  0.00    +0.466 C 
ATOM     21  O   LIG A   1      -6.512   4.077 120.241  0.00  0.00    -0.453 OA
ATOM     22  C   LIG A   1      -5.216   4.218 123.570  0.00  0.00    +0.053 A 
ENDBRANCH  13  14
ENDBRANCH  12  13
ENDBRANCH   2  12
TORSDOF 5
ENDMDL
MODEL 6
REMARK VINA RESULT:      -7.1      8.245      9.580
REMARK  Name = NuBBE_427
REMARK  5 active torsions:
REMARK  status: ('A' for Active; 'I' for Inactive)
REMARK    1  A    between atoms: C_2  and  C_8
REMARK    2  A    between atoms: C_9  and  C_10
REMARK    3  A    between atoms: C_11  and  C_12
REMARK    4  A    between atoms: C_12  and  C_13
REMARK    5  A    between atoms: C_13  and  C_14
REMARK                            x       y       z     vdW  Elec       q    Type
REMARK                         _______ _______ _______ _____ _____    ______ ____
ROOT
ATOM      1  C   LIG A   1      -7.614   1.894 132.949  0.00  0.00    -0.004 C 
ATOM      2  C   LIG A   1      -7.754   3.005 133.694  0.00  0.00    -0.026 C 
ENDROOT
BRANCH   1   4
ATOM      3  C   LIG A   1      -8.861  -0.018 131.922  0.00  0.00    +0.067 C 
ATOM      4  C   LIG A   1      -8.671   1.280 132.183  0.00  0.00    +0.005 C 
BRANCH   3   6
ATOM      5  O   LIG A   1      -7.700  -1.349 133.497  0.00  0.00    -0.271 OA
ATOM      6  C   LIG A   1      -8.001  -1.162 132.328  0.00  0.00    +0.239 C 
ATOM      7  N   LIG A   1      -7.629  -2.002 131.294  0.00  0.00    -0.298 N 
ATOM      8  C   LIG A   1      -7.892  -1.831 129.874  0.00  0.00    +0.108 C 
ATOM      9  C   LIG A   1      -7.619  -3.200 129.275  0.00  0.00    +0.020 C 
ATOM     10  C   LIG A   1      -6.510  -3.753 130.159  0.00  0.00    +0.020 C 
ATOM     11  C   LIG A   1      -6.838  -3.197 131.542  0.00  0.00    +0.108 C 
ENDBRANCH   3   6
ENDBRANCH   1   4
BRANCH   2  12
ATOM     12  C   LIG A   1      -8.965   3.903 133.789  0.00  0.00    +0.032 C 
BRANCH  12  13
ATOM     13  C   LIG A   1      -8.622   5.387 133.585  0.00  0.00    +0.039 C 
BRANCH  13  14
ATOM     14  C   LIG A   1      -9.383   6.024 132.443  0.00  0.00    -0.043 A 
ATOM     15  C   LIG A   1      -8.680   6.546 131.331  0.00  0.00    +0.007 A 
ATOM     16  C   LIG A   1      -9.359   7.107 130.247  0.00  0.00    +0.050 A 
ATOM     17  C   LIG A   1     -10.733   7.153 130.309  0.00  0.00    +0.166 A 
ATOM     18  C   LIG A   1     -11.426   6.649 131.386  0.00  0.00    +0.167 A 
ATOM     19  O   LIG A   1     -12.771   6.805 131.254  0.00  0.00    -0.453 OA
ATOM     20  C   LIG A   1     -12.837   7.525 130.005  0.00  0.00    +0.466 C 
ATOM     21  O   LIG A   1     -11.555   7.683 129.364  0.00  0.00    -0.453 OA
ATOM     22  C   LIG A   1     -10.785   6.068 132.460  0.00  0.00    +0.053 A 
ENDBRANCH  13  14
ENDBRANCH  12  13
ENDBRANCH   2  12
TORSDOF 5
ENDMDL
MODEL 7
REMARK VINA RESULT:      -7.1      1.691      2.716
REMARK  Name = NuBBE_427
REMARK  5 active torsions:
REMARK  status: ('A' for Active; 'I' for Inactive)
REMARK    1  A    between atoms: C_2  and  C_8
REMARK    2  A    between atoms: C_9  and  C_10
REMARK    3  A    between atoms: C_11  and  C_12
REMARK    4  A    between atoms: C_12  and  C_13
REMARK    5  A    between atoms: C_13  and  C_14
REMARK                            x       y       z     vdW  Elec       q    Type
REMARK                         _______ _______ _______ _____ _____    ______ ____
ROOT
ATOM      1  C   LIG A   1      -6.296   0.944 126.673  0.00  0.00    -0.004 C 
ATOM      2  C   LIG A   1      -6.959   2.041 126.270  0.00  0.00    -0.026 C 
ENDROOT
BRANCH   1   4
ATOM      3  C   LIG A   1      -5.550  -1.091 125.420  0.00  0.00    +0.067 C 
ATOM      4  C   LIG A   1      -5.405   0.170 125.843  0.00  0.00    +0.005 C 
BRANCH   3   6
ATOM      5  O   LIG A   1      -6.770  -2.542 126.837  0.00  0.00    -0.271 OA
ATOM      6  C   LIG A   1      -6.658  -2.033 125.732  0.00  0.00    +0.239 C 
ATOM      7  N   LIG A   1      -7.558  -2.230 124.700  0.00  0.00    -0.298 N 
ATOM      8  C   LIG A   1      -7.477  -1.713 123.343  0.00  0.00    +0.108 C 
ATOM      9  C   LIG A   1      -8.879  -1.902 122.787  0.00  0.00    +0.020 C 
ATOM     10  C   LIG A   1      -9.365  -3.162 123.488  0.00  0.00    +0.020 C 
ATOM     11  C   LIG A   1      -8.727  -3.076 124.871  0.00  0.00    +0.108 C 
ENDBRANCH   3   6
ENDBRANCH   1   4
BRANCH   2  12
ATOM     12  C   LIG A   1      -6.827   2.763 124.950  0.00  0.00    +0.032 C 
BRANCH  12  13
ATOM     13  C   LIG A   1      -7.778   2.214 123.874  0.00  0.00    +0.039 C 
BRANCH  13  14
ATOM     14  C   LIG A   1      -7.635   2.910 122.539  0.00  0.00    -0.043 A 
ATOM     15  C   LIG A   1      -8.769   3.093 121.712  0.00  0.00    +0.007 A 
ATOM     16  C   LIG A   1      -8.673   3.765 120.491  0.00  0.00    +0.050 A 
ATOM     17  C   LIG A   1      -7.432   4.222 120.112  0.00  0.00    +0.166 A 
ATOM     18  C   LIG A   1      -6.322   4.048 120.906  0.00  0.00    +0.167 A 
ATOM     19  O   LIG A   1      -5.196   4.562 120.341  0.00  0.00    -0.453 OA
ATOM     20  C   LIG A   1      -5.714   5.015 119.073  0.00  0.00    +0.466 C 
ATOM     21  O   LIG A   1      -7.143   4.870 118.952  0.00  0.00    -0.453 OA
ATOM     22  C   LIG A   1      -6.390   3.411 122.128  0.00  0.00    +0.053 A 
ENDBRANCH  13  14
ENDBRANCH  12  13
ENDBRANCH   2  12
TORSDOF 5
ENDMDL
MODEL 8
REMARK VINA RESULT:      -7.0      3.764      8.567
REMARK  Name = NuBBE_427
REMARK  5 active torsions:
REMARK  status: ('A' for Active; 'I' for Inactive)
REMARK    1  A    between atoms: C_2  and  C_8
REMARK    2  A    between atoms: C_9  and  C_10
REMARK    3  A    between atoms: C_11  and  C_12
REMARK    4  A    between atoms: C_12  and  C_13
REMARK    5  A    between atoms: C_13  and  C_14
REMARK                            x       y       z     vdW  Elec       q    Type
REMARK                         _______ _______ _______ _____ _____    ______ ____
ROOT
ATOM      1  C   LIG A   1      -7.302  -3.639 124.591  0.00  0.00    -0.004 C 
ATOM      2  C   LIG A   1      -8.560  -3.751 125.049  0.00  0.00    -0.026 C 
ENDROOT
BRANCH   1   4
ATOM      3  C   LIG A   1      -6.117  -1.440 124.760  0.00  0.00    +0.067 C 
ATOM      4  C   LIG A   1      -6.319  -2.717 125.105  0.00  0.00    +0.005 C 
BRANCH   3   6
ATOM      5  O   LIG A   1      -6.553  -0.749 122.539  0.00  0.00    -0.271 OA
ATOM      6  C   LIG A   1      -6.838  -0.654 123.723  0.00  0.00    +0.239 C 
ATOM      7  N   LIG A   1      -7.869   0.131 124.206  0.00  0.00    -0.298 N 
ATOM      8  C   LIG A   1      -8.244   0.347 125.594  0.00  0.00    +0.108 C 
ATOM      9  C   LIG A   1      -9.637   0.948 125.517  0.00  0.00    +0.020 C 
ATOM     10  C   LIG A   1      -9.603   1.743 124.220  0.00  0.00    +0.020 C 
ATOM     11  C   LIG A   1      -8.706   0.911 123.309  0.00  0.00    +0.108 C 
ENDBRANCH   3   6
ENDBRANCH   1   4
BRANCH   2  12
ATOM     12  C   LIG A   1      -9.169  -3.060 126.246  0.00  0.00    +0.032 C 
BRANCH  12  13
ATOM     13  C   LIG A   1      -8.917  -3.814 127.561  0.00  0.00    +0.039 C 
BRANCH  13  14
ATOM     14  C   LIG A   1      -7.973  -3.088 128.494  0.00  0.00    -0.043 A 
ATOM     15  C   LIG A   1      -7.821  -1.685 128.394  0.00  0.00    +0.007 A 
ATOM     16  C   LIG A   1      -6.984  -0.985 129.267  0.00  0.00    +0.050 A 
ATOM     17  C   LIG A   1      -6.298  -1.712 130.212  0.00  0.00    +0.166 A 
ATOM     18  C   LIG A   1      -6.437  -3.077 130.318  0.00  0.00    +0.167 A 
ATOM     19  O   LIG A   1      -5.663  -3.600 131.306  0.00  0.00    -0.453 OA
ATOM     20  C   LIG A   1      -4.972  -2.418 131.762  0.00  0.00    +0.466 C 
ATOM     21  O   LIG A   1      -5.424  -1.207 131.123  0.00  0.00    -0.453 OA
ATOM     22  C   LIG A   1      -7.273  -3.792 129.487  0.00  0.00    +0.053 A 
ENDBRANCH  13  14
ENDBRANCH  12  13
ENDBRANCH   2  12
TORSDOF 5
ENDMDL
MODEL 9
REMARK VINA RESULT:      -7.0      4.093      7.890
REMARK  Name = NuBBE_427
REMARK  5 active torsions:
REMARK  status: ('A' for Active; 'I' for Inactive)
REMARK    1  A    between atoms: C_2  and  C_8
REMARK    2  A    between atoms: C_9  and  C_10
REMARK    3  A    between atoms: C_11  and  C_12
REMARK    4  A    between atoms: C_12  and  C_13
REMARK    5  A    between atoms: C_13  and  C_14
REMARK                            x       y       z     vdW  Elec       q    Type
REMARK                         _______ _______ _______ _____ _____    ______ ____
ROOT
ATOM      1  C   LIG A   1      -8.457  -2.227 122.608  0.00  0.00    -0.004 C 
ATOM      2  C   LIG A   1      -9.170  -3.041 123.405  0.00  0.00    -0.026 C 
ENDROOT
BRANCH   1   4
ATOM      3  C   LIG A   1      -6.830  -0.585 123.570  0.00  0.00    +0.067 C 
ATOM      4  C   LIG A   1      -7.146  -1.712 122.922  0.00  0.00    +0.005 C 
BRANCH   3   6
ATOM      5  O   LIG A   1      -8.862   0.626 123.613  0.00  0.00    -0.271 OA
ATOM      6  C   LIG A   1      -7.758   0.447 124.104  0.00  0.00    +0.239 C 
ATOM      7  N   LIG A   1      -7.289   1.130 125.211  0.00  0.00    -0.298 N 
ATOM      8  C   LIG A   1      -5.976   1.025 125.827  0.00  0.00    +0.108 C 
ATOM      9  C   LIG A   1      -6.149   1.673 127.190  0.00  0.00    +0.020 C 
ATOM     10  C   LIG A   1      -7.192   2.751 126.934  0.00  0.00    +0.020 C 
ATOM     11  C   LIG A   1      -8.106   2.128 125.883  0.00  0.00    +0.108 C 
ENDBRANCH   3   6
ENDBRANCH   1   4
BRANCH   2  12
ATOM     12  C   LIG A   1      -8.727  -3.684 124.698  0.00  0.00    +0.032 C 
BRANCH  12  13
ATOM     13  C   LIG A   1      -9.270  -2.958 125.939  0.00  0.00    +0.039 C 
BRANCH  13  14
ATOM     14  C   LIG A   1      -8.283  -2.915 127.085  0.00  0.00    -0.043 A 
ATOM     15  C   LIG A   1      -8.595  -3.551 128.310  0.00  0.00    +0.007 A 
ATOM     16  C   LIG A   1      -7.687  -3.558 129.372  0.00  0.00    +0.050 A 
ATOM     17  C   LIG A   1      -6.490  -2.905 129.191  0.00  0.00    +0.166 A 
ATOM     18  C   LIG A   1      -6.177  -2.281 128.005  0.00  0.00    +0.167 A 
ATOM     19  O   LIG A   1      -4.954  -1.687 128.040  0.00  0.00    -0.453 OA
ATOM     20  C   LIG A   1      -4.566  -1.950 129.405  0.00  0.00    +0.466 C 
ATOM     21  O   LIG A   1      -5.501  -2.785 130.118  0.00  0.00    -0.453 OA
ATOM     22  C   LIG A   1      -7.042  -2.279 126.931  0.00  0.00    +0.053 A 
ENDBRANCH  13  14
ENDBRANCH  12  13
ENDBRANCH   2  12
TORSDOF 5
ENDMDL
