MODEL 1
REMARK VINA RESULT:      -7.9      0.000      0.000
REMARK  Name = NuBBE_1086
REMARK  5 active torsions:
REMARK  status: ('A' for Active; 'I' for Inactive)
REMARK    1  A    between atoms: C_6  and  C_7
REMARK    2  A    between atoms: C_9  and  C_11
REMARK    3  A    between atoms: C_11  and  C_12
REMARK    4  A    between atoms: C_13  and  C_14
REMARK    5  A    between atoms: C_13  and  C_15
REMARK                            x       y       z     vdW  Elec       q    Type
REMARK                         _______ _______ _______ _____ _____    ______ ____
ROOT
ATOM      1  C   LIG A   1      -8.051   2.239 123.078  0.00  0.00    +0.156 C 
ATOM      2  C   LIG A   1      -7.210   1.276 123.939  0.00  0.00    +0.054 C 
ATOM      3  C   LIG A   1      -8.021   1.229 125.210  0.00  0.00    -0.045 C 
ATOM      4  C   LIG A   1      -9.005   2.351 125.187  0.00  0.00    +0.191 C 
ATOM      5  O   LIG A   1      -8.732   3.106 124.005  0.00  0.00    -0.367 OA
ATOM      6  C   LIG A   1      -7.911   0.353 126.225  0.00  0.00    +0.010 C 
ENDROOT
BRANCH   1  12
ATOM      7  H   LIG A   1      -4.277   5.840 119.387  0.00  0.00    +0.165 HD
ATOM      8  N   LIG A   1      -5.192   5.412 119.372  0.00  0.00    -0.361 N 
ATOM      9  C   LIG A   1      -5.723   4.673 120.406  0.00  0.00    +0.046 A 
ATOM     10  C   LIG A   1      -5.186   4.342 121.654  0.00  0.00    +0.026 A 
ATOM     11  C   LIG A   1      -5.969   3.562 122.514  0.00  0.00    +0.008 A 
ATOM     12  C   LIG A   1      -7.246   3.116 122.143  0.00  0.00    -0.018 A 
ATOM     13  C   LIG A   1      -7.752   3.460 120.874  0.00  0.00    +0.016 A 
ATOM     14  C   LIG A   1      -6.987   4.251 119.998  0.00  0.00    -0.000 A 
ATOM     15  C   LIG A   1      -7.200   4.762 118.688  0.00  0.00    +0.027 A 
ATOM     16  C   LIG A   1      -6.080   5.478 118.332  0.00  0.00    +0.083 A 
ENDBRANCH   1  12
BRANCH   2  17
ATOM     17  C   LIG A   1      -6.888  -0.058 123.230  0.00  0.00    +0.038 C 
BRANCH  17  18
ATOM     18  C   LIG A   1      -8.056  -1.007 123.115  0.00  0.00    -0.027 C 
ATOM     19  C   LIG A   1      -8.142  -2.278 123.551  0.00  0.00    -0.080 C 
ATOM     20  C   LIG A   1      -7.069  -3.027 124.292  0.00  0.00    +0.038 C 
ATOM     21  C   LIG A   1      -9.410  -3.064 123.328  0.00  0.00    +0.038 C 
ENDBRANCH  17  18
ENDBRANCH   2  17
TORSDOF 3
ENDMDL
MODEL 2
REMARK VINA RESULT:      -7.8      1.144      2.005
REMARK  Name = NuBBE_1086
REMARK  5 active torsions:
REMARK  status: ('A' for Active; 'I' for Inactive)
REMARK    1  A    between atoms: C_6  and  C_7
REMARK    2  A    between atoms: C_9  and  C_11
REMARK    3  A    between atoms: C_11  and  C_12
REMARK    4  A    between atoms: C_13  and  C_14
REMARK    5  A    between atoms: C_13  and  C_15
REMARK                            x       y       z     vdW  Elec       q    Type
REMARK                         _______ _______ _______ _____ _____    ______ ____
ROOT
ATOM      1  C   LIG A   1      -8.543   1.832 123.651  0.00  0.00    +0.156 C 
ATOM      2  C   LIG A   1      -7.546   0.749 124.110  0.00  0.00    +0.054 C 
ATOM      3  C   LIG A   1      -7.763   0.759 125.602  0.00  0.00    -0.045 C 
ATOM      4  C   LIG A   1      -8.526   1.991 125.963  0.00  0.00    +0.191 C 
ATOM      5  O   LIG A   1      -8.673   2.745 124.758  0.00  0.00    -0.367 OA
ATOM      6  C   LIG A   1      -7.354  -0.154 126.501  0.00  0.00    +0.010 C 
ENDROOT
BRANCH   1  12
ATOM      7  H   LIG A   1      -7.090   5.328 118.503  0.00  0.00    +0.165 HD
ATOM      8  N   LIG A   1      -6.642   4.918 119.310  0.00  0.00    -0.361 N 
ATOM      9  C   LIG A   1      -7.293   4.171 120.267  0.00  0.00    +0.046 A 
ATOM     10  C   LIG A   1      -8.640   3.808 120.373  0.00  0.00    +0.026 A 
ATOM     11  C   LIG A   1      -9.020   3.032 121.476  0.00  0.00    +0.008 A 
ATOM     12  C   LIG A   1      -8.093   2.635 122.450  0.00  0.00    -0.018 A 
ATOM     13  C   LIG A   1      -6.746   3.027 122.316  0.00  0.00    +0.016 A 
ATOM     14  C   LIG A   1      -6.339   3.798 121.212  0.00  0.00    -0.000 A 
ATOM     15  C   LIG A   1      -5.094   4.340 120.791  0.00  0.00    +0.027 A 
ATOM     16  C   LIG A   1      -5.311   5.019 119.614  0.00  0.00    +0.083 A 
ENDBRANCH   1  12
BRANCH   2  17
ATOM     17  C   LIG A   1      -7.709  -0.591 123.359  0.00  0.00    +0.038 C 
BRANCH  17  18
ATOM     18  C   LIG A   1      -6.437  -1.391 123.218  0.00  0.00    -0.027 C 
ATOM     19  C   LIG A   1      -6.188  -2.642 123.653  0.00  0.00    -0.080 C 
ATOM     20  C   LIG A   1      -7.166  -3.535 124.365  0.00  0.00    +0.038 C 
ATOM     21  C   LIG A   1      -4.835  -3.264 123.414  0.00  0.00    +0.038 C 
ENDBRANCH  17  18
ENDBRANCH   2  17
TORSDOF 3
ENDMDL
MODEL 3
REMARK VINA RESULT:      -7.5      2.444      4.184
REMARK  Name = NuBBE_1086
REMARK  5 active torsions:
REMARK  status: ('A' for Active; 'I' for Inactive)
REMARK    1  A    between atoms: C_6  and  C_7
REMARK    2  A    between atoms: C_9  and  C_11
REMARK    3  A    between atoms: C_11  and  C_12
REMARK    4  A    between atoms: C_13  and  C_14
REMARK    5  A    between atoms: C_13  and  C_15
REMARK                            x       y       z     vdW  Elec       q    Type
REMARK                         _______ _______ _______ _____ _____    ______ ____
ROOT
ATOM      1  C   LIG A   1      -8.222  -1.509 124.565  0.00  0.00    +0.156 C 
ATOM      2  C   LIG A   1      -7.518  -1.489 125.936  0.00  0.00    +0.054 C 
ATOM      3  C   LIG A   1      -8.280  -2.559 126.677  0.00  0.00    -0.045 C 
ATOM      4  C   LIG A   1      -9.526  -2.868 125.915  0.00  0.00    +0.191 C 
ATOM      5  O   LIG A   1      -9.569  -1.953 124.819  0.00  0.00    -0.367 OA
ATOM      6  C   LIG A   1      -7.944  -3.159 127.833  0.00  0.00    +0.010 C 
ENDROOT
BRANCH   1  12
ATOM      7  H   LIG A   1      -9.008   4.230 121.868  0.00  0.00    +0.165 HD
ATOM      8  N   LIG A   1      -8.275   3.564 122.068  0.00  0.00    -0.361 N 
ATOM      9  C   LIG A   1      -8.475   2.349 122.685  0.00  0.00    +0.046 A 
ATOM     10  C   LIG A   1      -9.647   1.756 123.164  0.00  0.00    +0.026 A 
ATOM     11  C   LIG A   1      -9.543   0.492 123.757  0.00  0.00    +0.008 A 
ATOM     12  C   LIG A   1      -8.309  -0.162 123.881  0.00  0.00    -0.018 A 
ATOM     13  C   LIG A   1      -7.146   0.470 123.398  0.00  0.00    +0.016 A 
ATOM     14  C   LIG A   1      -7.228   1.735 122.788  0.00  0.00    -0.000 A 
ATOM     15  C   LIG A   1      -6.274   2.617 122.210  0.00  0.00    +0.027 A 
ATOM     16  C   LIG A   1      -6.949   3.732 121.770  0.00  0.00    +0.083 A 
ENDBRANCH   1  12
BRANCH   2  17
ATOM     17  C   LIG A   1      -5.982  -1.624 125.838  0.00  0.00    +0.038 C 
BRANCH  17  18
ATOM     18  C   LIG A   1      -5.498  -2.970 125.354  0.00  0.00    -0.027 C 
ATOM     19  C   LIG A   1      -5.187  -3.340 124.097  0.00  0.00    -0.080 C 
ATOM     20  C   LIG A   1      -5.230  -2.452 122.884  0.00  0.00    +0.038 C 
ATOM     21  C   LIG A   1      -4.724  -4.749 123.823  0.00  0.00    +0.038 C 
ENDBRANCH  17  18
ENDBRANCH   2  17
TORSDOF 3
ENDMDL
MODEL 4
REMARK VINA RESULT:      -7.4      8.564     10.498
REMARK  Name = NuBBE_1086
REMARK  5 active torsions:
REMARK  status: ('A' for Active; 'I' for Inactive)
REMARK    1  A    between atoms: C_6  and  C_7
REMARK    2  A    between atoms: C_9  and  C_11
REMARK    3  A    between atoms: C_11  and  C_12
REMARK    4  A    between atoms: C_13  and  C_14
REMARK    5  A    between atoms: C_13  and  C_15
REMARK                            x       y       z     vdW  Elec       q    Type
REMARK                         _______ _______ _______ _____ _____    ______ ____
ROOT
ATOM      1  C   LIG A   1      -9.538   5.362 130.163  0.00  0.00    +0.156 C 
ATOM      2  C   LIG A   1      -9.554   5.186 131.694  0.00  0.00    +0.054 C 
ATOM      3  C   LIG A   1      -9.484   3.685 131.821  0.00  0.00    -0.045 C 
ATOM      4  C   LIG A   1      -9.785   3.082 130.489  0.00  0.00    +0.191 C 
ATOM      5  O   LIG A   1     -10.125   4.164 129.620  0.00  0.00    -0.367 OA
ATOM      6  C   LIG A   1      -9.210   2.963 132.922  0.00  0.00    +0.010 C 
ENDROOT
BRANCH   1  12
ATOM      7  H   LIG A   1     -12.852  10.179 127.585  0.00  0.00    +0.165 HD
ATOM      8  N   LIG A   1     -12.746   9.699 128.467  0.00  0.00    -0.361 N 
ATOM      9  C   LIG A   1     -11.879   8.651 128.684  0.00  0.00    +0.046 A 
ATOM     10  C   LIG A   1     -10.985   8.018 127.815  0.00  0.00    +0.026 A 
ATOM     11  C   LIG A   1     -10.221   6.960 128.324  0.00  0.00    +0.008 A 
ATOM     12  C   LIG A   1     -10.347   6.536 129.654  0.00  0.00    -0.018 A 
ATOM     13  C   LIG A   1     -11.265   7.190 130.499  0.00  0.00    +0.016 A 
ATOM     14  C   LIG A   1     -12.036   8.262 130.014  0.00  0.00    -0.000 A 
ATOM     15  C   LIG A   1     -13.020   9.111 130.589  0.00  0.00    +0.027 A 
ATOM     16  C   LIG A   1     -13.435   9.990 129.614  0.00  0.00    +0.083 A 
ENDBRANCH   1  12
BRANCH   2  17
ATOM     17  C   LIG A   1      -8.481   6.029 132.419  0.00  0.00    +0.038 C 
BRANCH  17  18
ATOM     18  C   LIG A   1      -7.408   6.591 131.518  0.00  0.00    -0.027 C 
ATOM     19  C   LIG A   1      -6.071   6.507 131.663  0.00  0.00    -0.080 C 
ATOM     20  C   LIG A   1      -5.351   5.788 132.771  0.00  0.00    +0.038 C 
ATOM     21  C   LIG A   1      -5.164   7.149 130.643  0.00  0.00    +0.038 C 
ENDBRANCH  17  18
ENDBRANCH   2  17
TORSDOF 3
ENDMDL
MODEL 5
REMARK VINA RESULT:      -7.2      4.679      7.576
REMARK  Name = NuBBE_1086
REMARK  5 active torsions:
REMARK  status: ('A' for Active; 'I' for Inactive)
REMARK    1  A    between atoms: C_6  and  C_7
REMARK    2  A    between atoms: C_9  and  C_11
REMARK    3  A    between atoms: C_11  and  C_12
REMARK    4  A    between atoms: C_13  and  C_14
REMARK    5  A    between atoms: C_13  and  C_15
REMARK                            x       y       z     vdW  Elec       q    Type
REMARK                         _______ _______ _______ _____ _____    ______ ____
ROOT
ATOM      1  C   LIG A   1      -8.775   0.146 125.327  0.00  0.00    +0.156 C 
ATOM      2  C   LIG A   1      -8.672  -0.291 123.853  0.00  0.00    +0.054 C 
ATOM      3  C   LIG A   1      -9.697   0.606 123.205  0.00  0.00    -0.045 C 
ATOM      4  C   LIG A   1     -10.547   1.205 124.276  0.00  0.00    +0.191 C 
ATOM      5  O   LIG A   1     -10.124   0.617 125.507  0.00  0.00    -0.367 OA
ATOM      6  C   LIG A   1      -9.866   0.852 121.894  0.00  0.00    +0.010 C 
ENDROOT
BRANCH   1  12
ATOM      7  H   LIG A   1      -7.865  -4.838 129.222  0.00  0.00    +0.165 HD
ATOM      8  N   LIG A   1      -7.702  -3.842 129.191  0.00  0.00    -0.361 N 
ATOM      9  C   LIG A   1      -8.060  -3.026 128.140  0.00  0.00    +0.046 A 
ATOM     10  C   LIG A   1      -8.693  -3.330 126.931  0.00  0.00    +0.026 A 
ATOM     11  C   LIG A   1      -8.931  -2.277 126.037  0.00  0.00    +0.008 A 
ATOM     12  C   LIG A   1      -8.542  -0.963 126.331  0.00  0.00    -0.018 A 
ATOM     13  C   LIG A   1      -7.897  -0.694 127.555  0.00  0.00    +0.016 A 
ATOM     14  C   LIG A   1      -7.657  -1.734 128.472  0.00  0.00    -0.000 A 
ATOM     15  C   LIG A   1      -7.050  -1.798 129.756  0.00  0.00    +0.027 A 
ATOM     16  C   LIG A   1      -7.098  -3.108 130.176  0.00  0.00    +0.083 A 
ENDBRANCH   1  12
BRANCH   2  17
ATOM     17  C   LIG A   1      -7.228  -0.262 123.304  0.00  0.00    +0.038 C 
BRANCH  17  18
ATOM     18  C   LIG A   1      -6.565  -1.615 123.206  0.00  0.00    -0.027 C 
ATOM     19  C   LIG A   1      -5.675  -2.169 124.052  0.00  0.00    -0.080 C 
ATOM     20  C   LIG A   1      -5.165  -1.546 125.322  0.00  0.00    +0.038 C 
ATOM     21  C   LIG A   1      -5.124  -3.543 123.765  0.00  0.00    +0.038 C 
ENDBRANCH  17  18
ENDBRANCH   2  17
TORSDOF 3
ENDMDL
MODEL 6
REMARK VINA RESULT:      -7.2      3.476      5.310
REMARK  Name = NuBBE_1086
REMARK  5 active torsions:
REMARK  status: ('A' for Active; 'I' for Inactive)
REMARK    1  A    between atoms: C_6  and  C_7
REMARK    2  A    between atoms: C_9  and  C_11
REMARK    3  A    between atoms: C_11  and  C_12
REMARK    4  A    between atoms: C_13  and  C_14
REMARK    5  A    between atoms: C_13  and  C_15
REMARK                            x       y       z     vdW  Elec       q    Type
REMARK                         _______ _______ _______ _____ _____    ______ ____
ROOT
ATOM      1  C   LIG A   1      -8.208  -1.091 127.839  0.00  0.00    +0.156 C 
ATOM      2  C   LIG A   1      -7.693  -2.544 127.806  0.00  0.00    +0.054 C 
ATOM      3  C   LIG A   1      -7.189  -2.712 129.218  0.00  0.00    -0.045 C 
ATOM      4  C   LIG A   1      -7.090  -1.364 129.850  0.00  0.00    +0.191 C 
ATOM      5  O   LIG A   1      -7.418  -0.414 128.835  0.00  0.00    -0.367 OA
ATOM      6  C   LIG A   1      -6.862  -3.856 129.845  0.00  0.00    +0.010 C 
ENDROOT
BRANCH   1  12
ATOM      7  H   LIG A   1      -7.135   1.863 122.276  0.00  0.00    +0.165 HD
ATOM      8  N   LIG A   1      -7.881   1.712 122.939  0.00  0.00    -0.361 N 
ATOM      9  C   LIG A   1      -7.751   0.995 124.108  0.00  0.00    +0.046 A 
ATOM     10  C   LIG A   1      -6.644   0.335 124.649  0.00  0.00    +0.026 A 
ATOM     11  C   LIG A   1      -6.813  -0.324 125.874  0.00  0.00    +0.008 A 
ATOM     12  C   LIG A   1      -8.047  -0.335 126.538  0.00  0.00    -0.018 A 
ATOM     13  C   LIG A   1      -9.144   0.332 125.959  0.00  0.00    +0.016 A 
ATOM     14  C   LIG A   1      -8.996   1.010 124.735  0.00  0.00    -0.000 A 
ATOM     15  C   LIG A   1      -9.876   1.761 123.909  0.00  0.00    +0.027 A 
ATOM     16  C   LIG A   1      -9.160   2.186 122.813  0.00  0.00    +0.083 A 
ENDBRANCH   1  12
BRANCH   2  17
ATOM     17  C   LIG A   1      -8.737  -3.553 127.280  0.00  0.00    +0.038 C 
BRANCH  17  18
ATOM     18  C   LIG A   1      -9.281  -3.238 125.907  0.00  0.00    -0.027 C 
ATOM     19  C   LIG A   1      -8.659  -3.357 124.718  0.00  0.00    -0.080 C 
ATOM     20  C   LIG A   1      -7.262  -3.873 124.505  0.00  0.00    +0.038 C 
ATOM     21  C   LIG A   1      -9.384  -2.979 123.451  0.00  0.00    +0.038 C 
ENDBRANCH  17  18
ENDBRANCH   2  17
TORSDOF 3
ENDMDL
MODEL 7
REMARK VINA RESULT:      -7.2      2.821      6.307
REMARK  Name = NuBBE_1086
REMARK  5 active torsions:
REMARK  status: ('A' for Active; 'I' for Inactive)
REMARK    1  A    between atoms: C_6  and  C_7
REMARK    2  A    between atoms: C_9  and  C_11
REMARK    3  A    between atoms: C_11  and  C_12
REMARK    4  A    between atoms: C_13  and  C_14
REMARK    5  A    between atoms: C_13  and  C_15
REMARK                            x       y       z     vdW  Elec       q    Type
REMARK                         _______ _______ _______ _____ _____    ______ ____
ROOT
ATOM      1  C   LIG A   1      -8.129   3.142 122.724  0.00  0.00    +0.156 C 
ATOM      2  C   LIG A   1      -6.712   3.252 122.128  0.00  0.00    +0.054 C 
ATOM      3  C   LIG A   1      -6.998   3.909 120.800  0.00  0.00    -0.045 C 
ATOM      4  C   LIG A   1      -8.464   3.819 120.533  0.00  0.00    +0.191 C 
ATOM      5  O   LIG A   1      -9.025   3.051 121.599  0.00  0.00    -0.367 OA
ATOM      6  C   LIG A   1      -6.120   4.483 119.959  0.00  0.00    +0.010 C 
ENDROOT
BRANCH   1  12
ATOM      7  H   LIG A   1      -9.508  -1.841 126.479  0.00  0.00    +0.165 HD
ATOM      8  N   LIG A   1      -8.857  -1.576 125.754  0.00  0.00    -0.361 N 
ATOM      9  C   LIG A   1      -8.834  -0.344 125.138  0.00  0.00    +0.046 A 
ATOM     10  C   LIG A   1      -9.640   0.782 125.332  0.00  0.00    +0.026 A 
ATOM     11  C   LIG A   1      -9.381   1.911 124.545  0.00  0.00    +0.008 A 
ATOM     12  C   LIG A   1      -8.357   1.920 123.587  0.00  0.00    -0.018 A 
ATOM     13  C   LIG A   1      -7.571   0.765 123.411  0.00  0.00    +0.016 A 
ATOM     14  C   LIG A   1      -7.806  -0.378 124.197  0.00  0.00    -0.000 A 
ATOM     15  C   LIG A   1      -7.210  -1.667 124.269  0.00  0.00    +0.027 A 
ATOM     16  C   LIG A   1      -7.874  -2.381 125.241  0.00  0.00    +0.083 A 
ENDBRANCH   1  12
BRANCH   2  17
ATOM     17  C   LIG A   1      -5.701   3.935 123.075  0.00  0.00    +0.038 C 
BRANCH  17  18
ATOM     18  C   LIG A   1      -6.253   4.293 124.434  0.00  0.00    -0.027 C 
ATOM     19  C   LIG A   1      -6.064   3.654 125.604  0.00  0.00    -0.080 C 
ATOM     20  C   LIG A   1      -5.212   2.431 125.809  0.00  0.00    +0.038 C 
ATOM     21  C   LIG A   1      -6.718   4.177 126.859  0.00  0.00    +0.038 C 
ENDBRANCH  17  18
ENDBRANCH   2  17
TORSDOF 3
ENDMDL
MODEL 8
REMARK VINA RESULT:      -7.2      9.768     11.057
REMARK  Name = NuBBE_1086
REMARK  5 active torsions:
REMARK  status: ('A' for Active; 'I' for Inactive)
REMARK    1  A    between atoms: C_6  and  C_7
REMARK    2  A    between atoms: C_9  and  C_11
REMARK    3  A    between atoms: C_11  and  C_12
REMARK    4  A    between atoms: C_13  and  C_14
REMARK    5  A    between atoms: C_13  and  C_15
REMARK                            x       y       z     vdW  Elec       q    Type
REMARK                         _______ _______ _______ _____ _____    ______ ____
ROOT
ATOM      1  C   LIG A   1      -8.135   6.555 131.654  0.00  0.00    +0.156 C 
ATOM      2  C   LIG A   1      -7.666   5.087 131.674  0.00  0.00    +0.054 C 
ATOM      3  C   LIG A   1      -6.180   5.246 131.468  0.00  0.00    -0.045 C 
ATOM      4  C   LIG A   1      -5.914   6.638 130.999  0.00  0.00    +0.191 C 
ATOM      5  O   LIG A   1      -7.188   7.261 130.829  0.00  0.00    -0.367 OA
ATOM      6  C   LIG A   1      -5.219   4.324 131.650  0.00  0.00    +0.010 C 
ENDROOT
BRANCH   1  12
ATOM      7  H   LIG A   1     -14.113   7.371 129.552  0.00  0.00    +0.165 HD
ATOM      8  N   LIG A   1     -13.163   7.568 129.273  0.00  0.00    -0.361 N 
ATOM      9  C   LIG A   1     -12.048   7.217 130.003  0.00  0.00    +0.046 A 
ATOM     10  C   LIG A   1     -11.939   6.549 131.227  0.00  0.00    +0.026 A 
ATOM     11  C   LIG A   1     -10.653   6.330 131.737  0.00  0.00    +0.008 A 
ATOM     12  C   LIG A   1      -9.508   6.769 131.056  0.00  0.00    -0.018 A 
ATOM     13  C   LIG A   1      -9.656   7.448 129.831  0.00  0.00    +0.016 A 
ATOM     14  C   LIG A   1     -10.938   7.670 129.294  0.00  0.00    -0.000 A 
ATOM     15  C   LIG A   1     -11.418   8.301 128.114  0.00  0.00    +0.027 A 
ATOM     16  C   LIG A   1     -12.792   8.217 128.126  0.00  0.00    +0.083 A 
ENDBRANCH   1  12
BRANCH   2  17
ATOM     17  C   LIG A   1      -8.148   4.306 132.918  0.00  0.00    +0.038 C 
BRANCH  17  18
ATOM     18  C   LIG A   1      -8.209   5.121 134.187  0.00  0.00    -0.027 C 
ATOM     19  C   LIG A   1      -7.355   5.103 135.229  0.00  0.00    -0.080 C 
ATOM     20  C   LIG A   1      -6.113   4.262 135.332  0.00  0.00    +0.038 C 
ATOM     21  C   LIG A   1      -7.602   6.000 136.416  0.00  0.00    +0.038 C 
ENDBRANCH  17  18
ENDBRANCH   2  17
TORSDOF 3
ENDMDL
MODEL 9
REMARK VINA RESULT:      -7.1      5.460      8.693
REMARK  Name = NuBBE_1086
REMARK  5 active torsions:
REMARK  status: ('A' for Active; 'I' for Inactive)
REMARK    1  A    between atoms: C_6  and  C_7
REMARK    2  A    between atoms: C_9  and  C_11
REMARK    3  A    between atoms: C_11  and  C_12
REMARK    4  A    between atoms: C_13  and  C_14
REMARK    5  A    between atoms: C_13  and  C_15
REMARK                            x       y       z     vdW  Elec       q    Type
REMARK                         _______ _______ _______ _____ _____    ______ ____
ROOT
ATOM      1  C   LIG A   1      -6.800  -1.538 126.262  0.00  0.00    +0.156 C 
ATOM      2  C   LIG A   1      -8.075  -1.889 125.470  0.00  0.00    +0.054 C 
ATOM      3  C   LIG A   1      -8.344  -0.591 124.750  0.00  0.00    -0.045 C 
ATOM      4  C   LIG A   1      -7.517   0.481 125.380  0.00  0.00    +0.191 C 
ATOM      5  O   LIG A   1      -6.858  -0.119 126.497  0.00  0.00    -0.367 OA
ATOM      6  C   LIG A   1      -9.181  -0.378 123.719  0.00  0.00    +0.010 C 
ENDROOT
BRANCH   1  12
ATOM      7  H   LIG A   1      -6.769  -4.539 131.903  0.00  0.00    +0.165 HD
ATOM      8  N   LIG A   1      -6.123  -4.165 131.223  0.00  0.00    -0.361 N 
ATOM      9  C   LIG A   1      -6.497  -3.533 130.057  0.00  0.00    +0.046 A 
ATOM     10  C   LIG A   1      -7.767  -3.261 129.541  0.00  0.00    +0.026 A 
ATOM     11  C   LIG A   1      -7.841  -2.595 128.311  0.00  0.00    +0.008 A 
ATOM     12  C   LIG A   1      -6.687  -2.219 127.609  0.00  0.00    -0.018 A 
ATOM     13  C   LIG A   1      -5.423  -2.519 128.154  0.00  0.00    +0.016 A 
ATOM     14  C   LIG A   1      -5.324  -3.177 129.393  0.00  0.00    -0.000 A 
ATOM     15  C   LIG A   1      -4.235  -3.611 130.197  0.00  0.00    +0.027 A 
ATOM     16  C   LIG A   1      -4.758  -4.210 131.321  0.00  0.00    +0.083 A 
ENDBRANCH   1  12
BRANCH   2  17
ATOM     17  C   LIG A   1      -7.938  -3.175 124.625  0.00  0.00    +0.038 C 
BRANCH  17  18
ATOM     18  C   LIG A   1      -6.519  -3.651 124.429  0.00  0.00    -0.027 C 
ATOM     19  C   LIG A   1      -5.618  -3.230 123.521  0.00  0.00    -0.080 C 
ATOM     20  C   LIG A   1      -5.838  -2.146 122.502  0.00  0.00    +0.038 C 
ATOM     21  C   LIG A   1      -4.241  -3.846 123.489  0.00  0.00    +0.038 C 
ENDBRANCH  17  18
ENDBRANCH   2  17
TORSDOF 3
ENDMDL
