MODEL 1
REMARK VINA RESULT:      -7.7      0.000      0.000
REMARK  Name = NuBBE_2416
REMARK  5 active torsions:
REMARK  status: ('A' for Active; 'I' for Inactive)
REMARK    1  A    between atoms: C_3  and  C_13
REMARK    2  A    between atoms: C_10  and  O_12
REMARK    3  A    between atoms: C_15  and  O_16
REMARK    4  A    between atoms: C_17  and  O_20
REMARK    5  A    between atoms: O_20  and  C_21
REMARK                            x       y       z     vdW  Elec       q    Type
REMARK                         _______ _______ _______ _____ _____    ______ ____
ROOT
ATOM      1  O   LIG A   1     -11.139   3.820 130.064  0.00  0.00    -0.286 OA
ATOM      2  C   LIG A   1     -10.377   4.217 130.935  0.00  0.00    +0.200 A 
ATOM      3  C   LIG A   1     -10.252   5.659 131.322  0.00  0.00    +0.064 A 
ATOM      4  C   LIG A   1      -9.383   5.933 132.310  0.00  0.00    +0.208 A 
ATOM      5  O   LIG A   1      -8.580   5.047 132.987  0.00  0.00    -0.462 OA
ATOM      6  C   LIG A   1      -8.663   3.723 132.648  0.00  0.00    +0.142 A 
ATOM      7  C   LIG A   1      -9.523   3.255 131.661  0.00  0.00    +0.065 A 
ATOM      8  C   LIG A   1      -9.573   1.887 131.363  0.00  0.00    +0.019 A 
ATOM      9  C   LIG A   1      -8.754   0.993 132.057  0.00  0.00    +0.046 A 
ATOM     10  C   LIG A   1      -7.895   1.477 133.041  0.00  0.00    +0.120 A 
ATOM     11  C   LIG A   1      -7.842   2.834 133.342  0.00  0.00    +0.092 A 
ENDROOT
BRANCH   3  12
ATOM     12  C   LIG A   1     -11.049   6.740 130.685  0.00  0.00    -0.008 A 
ATOM     13  C   LIG A   1     -10.635   7.344 129.488  0.00  0.00    +0.058 A 
ATOM     14  C   LIG A   1     -11.383   8.372 128.891  0.00  0.00    +0.159 A 
ATOM     15  C   LIG A   1     -12.577   8.806 129.468  0.00  0.00    +0.161 A 
ATOM     16  C   LIG A   1     -12.987   8.223 130.668  0.00  0.00    +0.050 A 
ATOM     17  C   LIG A   1     -12.237   7.207 131.271  0.00  0.00    +0.012 A 
BRANCH  14  18
ATOM     18  O   LIG A   1     -10.899   8.946 127.748  0.00  0.00    -0.503 OA
ATOM     19  H   LIG A   1      -9.933   9.028 127.823  0.00  0.00    +0.292 HD
ENDBRANCH  14  18
BRANCH  15  20
ATOM     20  O   LIG A   1     -13.412   9.796 129.028  0.00  0.00    -0.491 OA
ATOM     21  C   LIG A   1     -13.461  10.987 129.804  0.00  0.00    +0.277 C 
ENDBRANCH  15  20
ENDBRANCH   3  12
BRANCH  10  22
ATOM     22  O   LIG A   1      -7.078   0.642 133.742  0.00  0.00    -0.507 OA
ATOM     23  H   LIG A   1      -6.757   1.102 134.535  0.00  0.00    +0.292 HD
ENDBRANCH  10  22
TORSDOF 4
ENDMDL
MODEL 2
REMARK VINA RESULT:      -7.3      1.488      7.481
REMARK  Name = NuBBE_2416
REMARK  5 active torsions:
REMARK  status: ('A' for Active; 'I' for Inactive)
REMARK    1  A    between atoms: C_3  and  C_13
REMARK    2  A    between atoms: C_10  and  O_12
REMARK    3  A    between atoms: C_15  and  O_16
REMARK    4  A    between atoms: C_17  and  O_20
REMARK    5  A    between atoms: O_20  and  C_21
REMARK                            x       y       z     vdW  Elec       q    Type
REMARK                         _______ _______ _______ _____ _____    ______ ____
ROOT
ATOM      1  O   LIG A   1      -9.545   5.094 129.057  0.00  0.00    -0.286 OA
ATOM      2  C   LIG A   1     -10.246   5.647 129.894  0.00  0.00    +0.200 A 
ATOM      3  C   LIG A   1     -10.334   5.194 131.319  0.00  0.00    +0.064 A 
ATOM      4  C   LIG A   1     -11.135   5.917 132.120  0.00  0.00    +0.208 A 
ATOM      5  O   LIG A   1     -11.899   7.006 131.777  0.00  0.00    -0.462 OA
ATOM      6  C   LIG A   1     -11.848   7.437 130.478  0.00  0.00    +0.142 A 
ATOM      7  C   LIG A   1     -11.057   6.820 129.515  0.00  0.00    +0.065 A 
ATOM      8  C   LIG A   1     -11.037   7.311 128.203  0.00  0.00    +0.019 A 
ATOM      9  C   LIG A   1     -11.815   8.420 127.862  0.00  0.00    +0.046 A 
ATOM     10  C   LIG A   1     -12.606   9.025 128.837  0.00  0.00    +0.120 A 
ATOM     11  C   LIG A   1     -12.629   8.543 130.141  0.00  0.00    +0.092 A 
ENDROOT
BRANCH   3  12
ATOM     12  C   LIG A   1      -9.573   4.033 131.849  0.00  0.00    -0.008 A 
ATOM     13  C   LIG A   1      -9.955   2.715 131.559  0.00  0.00    +0.058 A 
ATOM     14  C   LIG A   1      -9.241   1.618 132.067  0.00  0.00    +0.159 A 
ATOM     15  C   LIG A   1      -8.111   1.814 132.862  0.00  0.00    +0.161 A 
ATOM     16  C   LIG A   1      -7.733   3.122 133.170  0.00  0.00    +0.050 A 
ATOM     17  C   LIG A   1      -8.451   4.217 132.674  0.00  0.00    +0.012 A 
BRANCH  14  18
ATOM     18  O   LIG A   1      -9.695   0.359 131.780  0.00  0.00    -0.503 OA
ATOM     19  H   LIG A   1     -10.132  -0.004 132.569  0.00  0.00    +0.292 HD
ENDBRANCH  14  18
BRANCH  15  20
ATOM     20  O   LIG A   1      -7.316   0.865 133.443  0.00  0.00    -0.491 OA
ATOM     21  C   LIG A   1      -6.079   1.307 133.986  0.00  0.00    +0.277 C 
ENDBRANCH  15  20
ENDBRANCH   3  12
BRANCH  10  22
ATOM     22  O   LIG A   1     -13.381  10.107 128.548  0.00  0.00    -0.507 OA
ATOM     23  H   LIG A   1     -14.311   9.891 128.730  0.00  0.00    +0.292 HD
ENDBRANCH  10  22
TORSDOF 4
ENDMDL
MODEL 3
REMARK VINA RESULT:      -7.1      8.140      9.215
REMARK  Name = NuBBE_2416
REMARK  5 active torsions:
REMARK  status: ('A' for Active; 'I' for Inactive)
REMARK    1  A    between atoms: C_3  and  C_13
REMARK    2  A    between atoms: C_10  and  O_12
REMARK    3  A    between atoms: C_15  and  O_16
REMARK    4  A    between atoms: C_17  and  O_20
REMARK    5  A    between atoms: O_20  and  C_21
REMARK                            x       y       z     vdW  Elec       q    Type
REMARK                         _______ _______ _______ _____ _____    ______ ____
ROOT
ATOM      1  O   LIG A   1      -6.969   0.363 123.242  0.00  0.00    -0.286 OA
ATOM      2  C   LIG A   1      -7.346   1.175 124.077  0.00  0.00    +0.200 A 
ATOM      3  C   LIG A   1      -7.651   2.605 123.752  0.00  0.00    +0.064 A 
ATOM      4  C   LIG A   1      -8.071   3.367 124.777  0.00  0.00    +0.208 A 
ATOM      5  O   LIG A   1      -8.229   2.991 126.089  0.00  0.00    -0.462 OA
ATOM      6  C   LIG A   1      -7.947   1.693 126.419  0.00  0.00    +0.142 A 
ATOM      7  C   LIG A   1      -7.518   0.758 125.483  0.00  0.00    +0.065 A 
ATOM      8  C   LIG A   1      -7.254  -0.560 125.877  0.00  0.00    +0.019 A 
ATOM      9  C   LIG A   1      -7.419  -0.935 127.212  0.00  0.00    +0.046 A 
ATOM     10  C   LIG A   1      -7.845   0.014 128.139  0.00  0.00    +0.120 A 
ATOM     11  C   LIG A   1      -8.110   1.324 127.754  0.00  0.00    +0.092 A 
ENDROOT
BRANCH   3  12
ATOM     12  C   LIG A   1      -7.529   3.168 122.383  0.00  0.00    -0.008 A 
ATOM     13  C   LIG A   1      -8.654   3.350 121.564  0.00  0.00    +0.058 A 
ATOM     14  C   LIG A   1      -8.538   3.873 120.267  0.00  0.00    +0.159 A 
ATOM     15  C   LIG A   1      -7.292   4.249 119.763  0.00  0.00    +0.161 A 
ATOM     16  C   LIG A   1      -6.165   4.057 120.564  0.00  0.00    +0.050 A 
ATOM     17  C   LIG A   1      -6.277   3.524 121.853  0.00  0.00    +0.012 A 
BRANCH  14  18
ATOM     18  O   LIG A   1      -9.670   3.982 119.507  0.00  0.00    -0.503 OA
ATOM     19  H   LIG A   1      -9.736   4.892 119.171  0.00  0.00    +0.292 HD
ENDBRANCH  14  18
BRANCH  15  20
ATOM     20  O   LIG A   1      -7.003   4.758 118.527  0.00  0.00    -0.491 OA
ATOM     21  C   LIG A   1      -5.966   5.728 118.458  0.00  0.00    +0.277 C 
ENDBRANCH  15  20
ENDBRANCH   3  12
BRANCH  10  22
ATOM     22  O   LIG A   1      -8.018  -0.307 129.452  0.00  0.00    -0.507 OA
ATOM     23  H   LIG A   1      -8.759   0.210 129.811  0.00  0.00    +0.292 HD
ENDBRANCH  10  22
TORSDOF 4
ENDMDL
MODEL 4
REMARK VINA RESULT:      -7.0      1.835      7.488
REMARK  Name = NuBBE_2416
REMARK  5 active torsions:
REMARK  status: ('A' for Active; 'I' for Inactive)
REMARK    1  A    between atoms: C_3  and  C_13
REMARK    2  A    between atoms: C_10  and  O_12
REMARK    3  A    between atoms: C_15  and  O_16
REMARK    4  A    between atoms: C_17  and  O_20
REMARK    5  A    between atoms: O_20  and  C_21
REMARK                            x       y       z     vdW  Elec       q    Type
REMARK                         _______ _______ _______ _____ _____    ______ ____
ROOT
ATOM      1  O   LIG A   1      -8.313   6.538 130.138  0.00  0.00    -0.286 OA
ATOM      2  C   LIG A   1      -9.432   6.583 130.630  0.00  0.00    +0.200 A 
ATOM      3  C   LIG A   1      -9.790   5.910 131.920  0.00  0.00    +0.064 A 
ATOM      4  C   LIG A   1     -11.058   6.068 132.336  0.00  0.00    +0.208 A 
ATOM      5  O   LIG A   1     -12.067   6.753 131.705  0.00  0.00    -0.462 OA
ATOM      6  C   LIG A   1     -11.774   7.370 130.519  0.00  0.00    +0.142 A 
ATOM      7  C   LIG A   1     -10.507   7.329 129.946  0.00  0.00    +0.065 A 
ATOM      8  C   LIG A   1     -10.262   7.987 128.733  0.00  0.00    +0.019 A 
ATOM      9  C   LIG A   1     -11.294   8.684 128.099  0.00  0.00    +0.046 A 
ATOM     10  C   LIG A   1     -12.558   8.713 128.683  0.00  0.00    +0.120 A 
ATOM     11  C   LIG A   1     -12.807   8.062 129.886  0.00  0.00    +0.092 A 
ENDROOT
BRANCH   3  12
ATOM     12  C   LIG A   1      -8.814   5.129 132.723  0.00  0.00    -0.008 A 
ATOM     13  C   LIG A   1      -8.770   3.728 132.659  0.00  0.00    +0.058 A 
ATOM     14  C   LIG A   1      -7.854   2.989 133.425  0.00  0.00    +0.159 A 
ATOM     15  C   LIG A   1      -6.943   3.638 134.260  0.00  0.00    +0.161 A 
ATOM     16  C   LIG A   1      -6.991   5.030 134.343  0.00  0.00    +0.050 A 
ATOM     17  C   LIG A   1      -7.911   5.768 133.589  0.00  0.00    +0.012 A 
BRANCH  14  18
ATOM     18  O   LIG A   1      -7.895   1.624 133.347  0.00  0.00    -0.503 OA
ATOM     19  H   LIG A   1      -7.069   1.309 132.942  0.00  0.00    +0.292 HD
ENDBRANCH  14  18
BRANCH  15  20
ATOM     20  O   LIG A   1      -6.001   3.074 135.077  0.00  0.00    -0.491 OA
ATOM     21  C   LIG A   1      -4.898   3.892 135.444  0.00  0.00    +0.277 C 
ENDBRANCH  15  20
ENDBRANCH   3  12
BRANCH  10  22
ATOM     22  O   LIG A   1     -13.593   9.379 128.098  0.00  0.00    -0.507 OA
ATOM     23  H   LIG A   1     -14.091   9.857 128.782  0.00  0.00    +0.292 HD
ENDBRANCH  10  22
TORSDOF 4
ENDMDL
MODEL 5
REMARK VINA RESULT:      -6.8      2.897      3.702
REMARK  Name = NuBBE_2416
REMARK  5 active torsions:
REMARK  status: ('A' for Active; 'I' for Inactive)
REMARK    1  A    between atoms: C_3  and  C_13
REMARK    2  A    between atoms: C_10  and  O_12
REMARK    3  A    between atoms: C_15  and  O_16
REMARK    4  A    between atoms: C_17  and  O_20
REMARK    5  A    between atoms: O_20  and  C_21
REMARK                            x       y       z     vdW  Elec       q    Type
REMARK                         _______ _______ _______ _____ _____    ______ ____
ROOT
ATOM      1  O   LIG A   1      -6.887   7.532 130.465  0.00  0.00    -0.286 OA
ATOM      2  C   LIG A   1      -7.132   6.761 131.383  0.00  0.00    +0.200 A 
ATOM      3  C   LIG A   1      -8.520   6.320 131.737  0.00  0.00    +0.064 A 
ATOM      4  C   LIG A   1      -8.622   5.456 132.761  0.00  0.00    +0.208 A 
ATOM      5  O   LIG A   1      -7.605   4.951 133.533  0.00  0.00    -0.462 OA
ATOM      6  C   LIG A   1      -6.326   5.343 133.242  0.00  0.00    +0.142 A 
ATOM      7  C   LIG A   1      -6.030   6.219 132.203  0.00  0.00    +0.065 A 
ATOM      8  C   LIG A   1      -4.701   6.579 131.944  0.00  0.00    +0.019 A 
ATOM      9  C   LIG A   1      -3.673   6.059 132.734  0.00  0.00    +0.046 A 
ATOM     10  C   LIG A   1      -3.985   5.186 133.774  0.00  0.00    +0.120 A 
ATOM     11  C   LIG A   1      -5.303   4.824 134.034  0.00  0.00    +0.092 A 
ENDROOT
BRANCH   3  12
ATOM     12  C   LIG A   1      -9.726   6.777 131.000  0.00  0.00    -0.008 A 
ATOM     13  C   LIG A   1      -9.622   7.534 129.823  0.00  0.00    +0.058 A 
ATOM     14  C   LIG A   1     -10.762   7.973 129.132  0.00  0.00    +0.159 A 
ATOM     15  C   LIG A   1     -12.039   7.646 129.590  0.00  0.00    +0.161 A 
ATOM     16  C   LIG A   1     -12.153   6.908 130.770  0.00  0.00    +0.050 A 
ATOM     17  C   LIG A   1     -11.017   6.479 131.467  0.00  0.00    +0.012 A 
BRANCH  14  18
ATOM     18  O   LIG A   1     -10.587   8.744 128.016  0.00  0.00    -0.503 OA
ATOM     19  H   LIG A   1     -10.043   9.516 128.249  0.00  0.00    +0.292 HD
ENDBRANCH  14  18
BRANCH  15  20
ATOM     20  O   LIG A   1     -13.244   8.001 129.049  0.00  0.00    -0.491 OA
ATOM     21  C   LIG A   1     -13.780   7.138 128.055  0.00  0.00    +0.277 C 
ENDBRANCH  15  20
ENDBRANCH   3  12
BRANCH  10  22
ATOM     22  O   LIG A   1      -3.014   4.656 134.569  0.00  0.00    -0.507 OA
ATOM     23  H   LIG A   1      -3.403   3.959 135.124  0.00  0.00    +0.292 HD
ENDBRANCH  10  22
TORSDOF 4
ENDMDL
MODEL 6
REMARK VINA RESULT:      -6.8      9.197     11.509
REMARK  Name = NuBBE_2416
REMARK  5 active torsions:
REMARK  status: ('A' for Active; 'I' for Inactive)
REMARK    1  A    between atoms: C_3  and  C_13
REMARK    2  A    between atoms: C_10  and  O_12
REMARK    3  A    between atoms: C_15  and  O_16
REMARK    4  A    between atoms: C_17  and  O_20
REMARK    5  A    between atoms: O_20  and  C_21
REMARK                            x       y       z     vdW  Elec       q    Type
REMARK                         _______ _______ _______ _____ _____    ______ ____
ROOT
ATOM      1  O   LIG A   1      -9.106  -3.825 128.459  0.00  0.00    -0.286 OA
ATOM      2  C   LIG A   1      -8.129  -3.280 127.963  0.00  0.00    +0.200 A 
ATOM      3  C   LIG A   1      -6.907  -2.913 128.748  0.00  0.00    +0.064 A 
ATOM      4  C   LIG A   1      -5.911  -2.335 128.054  0.00  0.00    +0.208 A 
ATOM      5  O   LIG A   1      -5.895  -2.022 126.717  0.00  0.00    -0.462 OA
ATOM      6  C   LIG A   1      -7.002  -2.335 125.975  0.00  0.00    +0.142 A 
ATOM      7  C   LIG A   1      -8.121  -2.954 126.523  0.00  0.00    +0.065 A 
ATOM      8  C   LIG A   1      -9.222  -3.260 125.713  0.00  0.00    +0.019 A 
ATOM      9  C   LIG A   1      -9.197  -2.940 124.354  0.00  0.00    +0.046 A 
ATOM     10  C   LIG A   1      -8.072  -2.316 123.820  0.00  0.00    +0.120 A 
ATOM     11  C   LIG A   1      -6.975  -2.011 124.619  0.00  0.00    +0.092 A 
ENDROOT
BRANCH   3  12
ATOM     12  C   LIG A   1      -6.767  -3.183 130.202  0.00  0.00    -0.008 A 
ATOM     13  C   LIG A   1      -7.440  -2.406 131.158  0.00  0.00    +0.058 A 
ATOM     14  C   LIG A   1      -7.301  -2.654 132.532  0.00  0.00    +0.159 A 
ATOM     15  C   LIG A   1      -6.500  -3.704 132.985  0.00  0.00    +0.161 A 
ATOM     16  C   LIG A   1      -5.813  -4.471 132.043  0.00  0.00    +0.050 A 
ATOM     17  C   LIG A   1      -5.941  -4.216 130.672  0.00  0.00    +0.012 A 
BRANCH  14  18
ATOM     18  O   LIG A   1      -7.952  -1.831 133.410  0.00  0.00    -0.503 OA
ATOM     19  H   LIG A   1      -8.222  -1.024 132.940  0.00  0.00    +0.292 HD
ENDBRANCH  14  18
BRANCH  15  20
ATOM     20  O   LIG A   1      -6.247  -4.071 134.278  0.00  0.00    -0.491 OA
ATOM     21  C   LIG A   1      -6.171  -5.465 134.546  0.00  0.00    +0.277 C 
ENDBRANCH  15  20
ENDBRANCH   3  12
BRANCH  10  22
ATOM     22  O   LIG A   1      -8.005  -1.985 122.500  0.00  0.00    -0.507 OA
ATOM     23  H   LIG A   1      -8.838  -2.235 122.066  0.00  0.00    +0.292 HD
ENDBRANCH  10  22
TORSDOF 4
ENDMDL
MODEL 7
REMARK VINA RESULT:      -6.7      1.061      2.028
REMARK  Name = NuBBE_2416
REMARK  5 active torsions:
REMARK  status: ('A' for Active; 'I' for Inactive)
REMARK    1  A    between atoms: C_3  and  C_13
REMARK    2  A    between atoms: C_10  and  O_12
REMARK    3  A    between atoms: C_15  and  O_16
REMARK    4  A    between atoms: C_17  and  O_20
REMARK    5  A    between atoms: O_20  and  C_21
REMARK                            x       y       z     vdW  Elec       q    Type
REMARK                         _______ _______ _______ _____ _____    ______ ____
ROOT
ATOM      1  O   LIG A   1      -9.051   6.461 133.141  0.00  0.00    -0.286 OA
ATOM      2  C   LIG A   1      -9.171   5.418 132.513  0.00  0.00    +0.200 A 
ATOM      3  C   LIG A   1     -10.028   5.288 131.291  0.00  0.00    +0.064 A 
ATOM      4  C   LIG A   1     -10.040   4.079 130.704  0.00  0.00    +0.208 A 
ATOM      5  O   LIG A   1      -9.378   2.946 131.109  0.00  0.00    -0.462 OA
ATOM      6  C   LIG A   1      -8.595   3.029 132.229  0.00  0.00    +0.142 A 
ATOM      7  C   LIG A   1      -8.449   4.207 132.954  0.00  0.00    +0.065 A 
ATOM      8  C   LIG A   1      -7.626   4.237 134.087  0.00  0.00    +0.019 A 
ATOM      9  C   LIG A   1      -6.954   3.081 134.491  0.00  0.00    +0.046 A 
ATOM     10  C   LIG A   1      -7.114   1.908 133.758  0.00  0.00    +0.120 A 
ATOM     11  C   LIG A   1      -7.928   1.872 132.630  0.00  0.00    +0.092 A 
ENDROOT
BRANCH   3  12
ATOM     12  C   LIG A   1     -10.809   6.418 130.726  0.00  0.00    -0.008 A 
ATOM     13  C   LIG A   1     -10.349   7.141 129.614  0.00  0.00    +0.058 A 
ATOM     14  C   LIG A   1     -11.082   8.215 129.086  0.00  0.00    +0.159 A 
ATOM     15  C   LIG A   1     -12.308   8.580 129.645  0.00  0.00    +0.161 A 
ATOM     16  C   LIG A   1     -12.765   7.878 130.762  0.00  0.00    +0.050 A 
ATOM     17  C   LIG A   1     -12.029   6.815 131.298  0.00  0.00    +0.012 A 
BRANCH  14  18
ATOM     18  O   LIG A   1     -10.554   8.904 128.028  0.00  0.00    -0.503 OA
ATOM     19  H   LIG A   1     -10.747   8.416 127.209  0.00  0.00    +0.292 HD
ENDBRANCH  14  18
BRANCH  15  20
ATOM     20  O   LIG A   1     -13.135   9.601 129.265  0.00  0.00    -0.491 OA
ATOM     21  C   LIG A   1     -13.887   9.407 128.074  0.00  0.00    +0.277 C 
ENDBRANCH  15  20
ENDBRANCH   3  12
BRANCH  10  22
ATOM     22  O   LIG A   1      -6.479   0.757 134.116  0.00  0.00    -0.507 OA
ATOM     23  H   LIG A   1      -6.835   0.448 134.966  0.00  0.00    +0.292 HD
ENDBRANCH  10  22
TORSDOF 4
ENDMDL
MODEL 8
REMARK VINA RESULT:      -6.7      9.159      9.884
REMARK  Name = NuBBE_2416
REMARK  5 active torsions:
REMARK  status: ('A' for Active; 'I' for Inactive)
REMARK    1  A    between atoms: C_3  and  C_13
REMARK    2  A    between atoms: C_10  and  O_12
REMARK    3  A    between atoms: C_15  and  O_16
REMARK    4  A    between atoms: C_17  and  O_20
REMARK    5  A    between atoms: O_20  and  C_21
REMARK                            x       y       z     vdW  Elec       q    Type
REMARK                         _______ _______ _______ _____ _____    ______ ____
ROOT
ATOM      1  O   LIG A   1      -5.246  -1.955 126.903  0.00  0.00    -0.286 OA
ATOM      2  C   LIG A   1      -6.028  -2.433 127.714  0.00  0.00    +0.200 A 
ATOM      3  C   LIG A   1      -7.500  -2.554 127.463  0.00  0.00    +0.064 A 
ATOM      4  C   LIG A   1      -8.223  -3.117 128.446  0.00  0.00    +0.208 A 
ATOM      5  O   LIG A   1      -7.771  -3.571 129.661  0.00  0.00    -0.462 OA
ATOM      6  C   LIG A   1      -6.432  -3.464 129.925  0.00  0.00    +0.142 A 
ATOM      7  C   LIG A   1      -5.530  -2.924 129.014  0.00  0.00    +0.065 A 
ATOM      8  C   LIG A   1      -4.168  -2.849 129.334  0.00  0.00    +0.019 A 
ATOM      9  C   LIG A   1      -3.717  -3.314 130.571  0.00  0.00    +0.046 A 
ATOM     10  C   LIG A   1      -4.632  -3.849 131.475  0.00  0.00    +0.120 A 
ATOM     11  C   LIG A   1      -5.985  -3.928 131.162  0.00  0.00    +0.092 A 
ENDROOT
BRANCH   3  12
ATOM     12  C   LIG A   1      -8.146  -2.108 126.201  0.00  0.00    -0.008 A 
ATOM     13  C   LIG A   1      -8.834  -3.009 125.374  0.00  0.00    +0.058 A 
ATOM     14  C   LIG A   1      -9.436  -2.590 124.177  0.00  0.00    +0.159 A 
ATOM     15  C   LIG A   1      -9.382  -1.251 123.788  0.00  0.00    +0.161 A 
ATOM     16  C   LIG A   1      -8.685  -0.351 124.595  0.00  0.00    +0.050 A 
ATOM     17  C   LIG A   1      -8.074  -0.769 125.783  0.00  0.00    +0.012 A 
BRANCH  14  18
ATOM     18  O   LIG A   1     -10.054  -3.530 123.398  0.00  0.00    -0.503 OA
ATOM     19  H   LIG A   1      -9.768  -4.414 123.687  0.00  0.00    +0.292 HD
ENDBRANCH  14  18
BRANCH  15  20
ATOM     20  O   LIG A   1      -9.899  -0.683 122.656  0.00  0.00    -0.491 OA
ATOM     21  C   LIG A   1     -10.085   0.726 122.672  0.00  0.00    +0.277 C 
ENDBRANCH  15  20
ENDBRANCH   3  12
BRANCH  10  22
ATOM     22  O   LIG A   1      -4.236  -4.314 132.693  0.00  0.00    -0.507 OA
ATOM     23  H   LIG A   1      -3.323  -4.638 132.628  0.00  0.00    +0.292 HD
ENDBRANCH  10  22
TORSDOF 4
ENDMDL
MODEL 9
REMARK VINA RESULT:      -6.6      9.414     11.706
REMARK  Name = NuBBE_2416
REMARK  5 active torsions:
REMARK  status: ('A' for Active; 'I' for Inactive)
REMARK    1  A    between atoms: C_3  and  C_13
REMARK    2  A    between atoms: C_10  and  O_12
REMARK    3  A    between atoms: C_15  and  O_16
REMARK    4  A    between atoms: C_17  and  O_20
REMARK    5  A    between atoms: O_20  and  C_21
REMARK                            x       y       z     vdW  Elec       q    Type
REMARK                         _______ _______ _______ _____ _____    ______ ____
ROOT
ATOM      1  O   LIG A   1      -5.376  -2.031 127.955  0.00  0.00    -0.286 OA
ATOM      2  C   LIG A   1      -6.475  -2.481 127.662  0.00  0.00    +0.200 A 
ATOM      3  C   LIG A   1      -7.354  -3.202 128.638  0.00  0.00    +0.064 A 
ATOM      4  C   LIG A   1      -8.540  -3.622 128.166  0.00  0.00    +0.208 A 
ATOM      5  O   LIG A   1      -9.027  -3.488 126.889  0.00  0.00    -0.462 OA
ATOM      6  C   LIG A   1      -8.242  -2.843 125.971  0.00  0.00    +0.142 A 
ATOM      7  C   LIG A   1      -6.991  -2.326 126.288  0.00  0.00    +0.065 A 
ATOM      8  C   LIG A   1      -6.235  -1.666 125.309  0.00  0.00    +0.019 A 
ATOM      9  C   LIG A   1      -6.738  -1.533 124.013  0.00  0.00    +0.046 A 
ATOM     10  C   LIG A   1      -7.991  -2.060 123.710  0.00  0.00    +0.120 A 
ATOM     11  C   LIG A   1      -8.747  -2.714 124.677  0.00  0.00    +0.092 A 
ENDROOT
BRANCH   3  12
ATOM     12  C   LIG A   1      -6.972  -3.431 130.056  0.00  0.00    -0.008 A 
ATOM     13  C   LIG A   1      -7.557  -2.695 131.098  0.00  0.00    +0.058 A 
ATOM     14  C   LIG A   1      -7.190  -2.904 132.437  0.00  0.00    +0.159 A 
ATOM     15  C   LIG A   1      -6.242  -3.873 132.768  0.00  0.00    +0.161 A 
ATOM     16  C   LIG A   1      -5.642  -4.598 131.737  0.00  0.00    +0.050 A 
ATOM     17  C   LIG A   1      -5.999  -4.382 130.401  0.00  0.00    +0.012 A 
BRANCH  14  18
ATOM     18  O   LIG A   1      -7.767  -2.121 133.398  0.00  0.00    -0.503 OA
ATOM     19  H   LIG A   1      -7.083  -1.845 134.031  0.00  0.00    +0.292 HD
ENDBRANCH  14  18
BRANCH  15  20
ATOM     20  O   LIG A   1      -5.765  -4.193 134.010  0.00  0.00    -0.491 OA
ATOM     21  C   LIG A   1      -5.983  -5.525 134.458  0.00  0.00    +0.277 C 
ENDBRANCH  15  20
ENDBRANCH   3  12
BRANCH  10  22
ATOM     22  O   LIG A   1      -8.521  -1.954 122.459  0.00  0.00    -0.507 OA
ATOM     23  H   LIG A   1      -8.199  -2.691 121.913  0.00  0.00    +0.292 HD
ENDBRANCH  10  22
TORSDOF 4
ENDMDL
