MODEL 1
REMARK VINA RESULT:      -7.8      0.000      0.000
REMARK  Name = NuBBE_154
REMARK  13 active torsions:
REMARK  status: ('A' for Active; 'I' for Inactive)
REMARK    1  A    between atoms: C_2  and  O_3
REMARK    2  A    between atoms: C_2  and  C_5
REMARK    3  A    between atoms: O_3  and  C_4
REMARK    4  A    between atoms: C_7  and  C_8
REMARK    5  A    between atoms: C_8  and  C_9
REMARK    6  A    between atoms: C_10  and  C_11
REMARK    7  A    between atoms: C_10  and  C_12
REMARK    8  A    between atoms: C_15  and  C_16
REMARK    9  A    between atoms: C_15  and  C_22
REMARK   10  A    between atoms: C_16  and  C_17
REMARK   11  A    between atoms: C_17  and  C_18
REMARK   12  A    between atoms: C_19  and  C_20
REMARK   13  A    between atoms: C_19  and  C_21
REMARK                            x       y       z     vdW  Elec       q    Type
REMARK                         _______ _______ _______ _____ _____    ______ ____
ROOT
ATOM      1  C   LIG A   1      -5.790   3.536 125.335  0.00  0.00    +0.060 A 
ATOM      2  C   LIG A   1      -5.703   3.520 123.939  0.00  0.00    +0.022 A 
ATOM      3  C   LIG A   1      -6.560   2.703 123.176  0.00  0.00    -0.001 A 
ATOM      4  C   LIG A   1      -7.531   1.928 123.841  0.00  0.00    +0.132 A 
ATOM      5  O   LIG A   1      -8.345   1.149 123.066  0.00  0.00    -0.481 OA
ATOM      6  C   LIG A   1      -9.303   0.271 123.692  0.00  0.00    +0.127 C 
ATOM      7  C   LIG A   1     -10.669   0.664 123.111  0.00  0.00    +0.060 C 
ATOM      8  C   LIG A   1      -9.399   0.363 125.198  0.00  0.00    +0.021 C 
ATOM      9  C   LIG A   1      -8.618   1.156 125.931  0.00  0.00    +0.011 C 
ATOM     10  C   LIG A   1      -7.628   1.961 125.238  0.00  0.00    +0.018 A 
ATOM     11  C   LIG A   1      -6.760   2.765 125.981  0.00  0.00    +0.026 A 
ENDROOT
BRANCH   1  13
ATOM     12  O   LIG A   1      -5.143   5.401 126.683  0.00  0.00    -0.245 OA
ATOM     13  C   LIG A   1      -4.840   4.367 126.115  0.00  0.00    +0.339 C 
BRANCH  13  14
ATOM     14  O   LIG A   1      -3.604   3.815 126.030  0.00  0.00    -0.465 OA
ATOM     15  C   LIG A   1      -2.701   4.099 127.104  0.00  0.00    +0.280 C 
ENDBRANCH  13  14
ENDBRANCH   1  13
BRANCH   3  16
ATOM     16  C   LIG A   1      -6.414   2.676 121.666  0.00  0.00    +0.066 C 
BRANCH  16  17
ATOM     17  C   LIG A   1      -5.687   3.875 121.114  0.00  0.00    -0.023 C 
ATOM     18  C   LIG A   1      -6.035   4.606 120.034  0.00  0.00    -0.079 C 
ATOM     19  C   LIG A   1      -7.214   4.317 119.146  0.00  0.00    +0.038 C 
ATOM     20  C   LIG A   1      -5.223   5.803 119.613  0.00  0.00    +0.038 C 
ENDBRANCH  16  17
ENDBRANCH   3  16
BRANCH   6  21
ATOM     21  C   LIG A   1      -8.951  -1.175 123.274  0.00  0.00    +0.056 C 
BRANCH  21  22
ATOM     22  C   LIG A   1      -8.565  -2.076 124.458  0.00  0.00    +0.031 C 
BRANCH  22  23
ATOM     23  C   LIG A   1      -7.370  -2.927 124.132  0.00  0.00    -0.028 C 
ATOM     24  C   LIG A   1      -6.074  -2.596 124.296  0.00  0.00    -0.080 C 
ATOM     25  C   LIG A   1      -5.589  -1.294 124.872  0.00  0.00    +0.038 C 
ATOM     26  C   LIG A   1      -4.980  -3.558 123.919  0.00  0.00    +0.038 C 
ENDBRANCH  22  23
ENDBRANCH  21  22
ENDBRANCH   6  21
TORSDOF 7
ENDMDL
MODEL 2
REMARK VINA RESULT:      -7.6      3.341      5.291
REMARK  Name = NuBBE_154
REMARK  13 active torsions:
REMARK  status: ('A' for Active; 'I' for Inactive)
REMARK    1  A    between atoms: C_2  and  O_3
REMARK    2  A    between atoms: C_2  and  C_5
REMARK    3  A    between atoms: O_3  and  C_4
REMARK    4  A    between atoms: C_7  and  C_8
REMARK    5  A    between atoms: C_8  and  C_9
REMARK    6  A    between atoms: C_10  and  C_11
REMARK    7  A    between atoms: C_10  and  C_12
REMARK    8  A    between atoms: C_15  and  C_16
REMARK    9  A    between atoms: C_15  and  C_22
REMARK   10  A    between atoms: C_16  and  C_17
REMARK   11  A    between atoms: C_17  and  C_18
REMARK   12  A    between atoms: C_19  and  C_20
REMARK   13  A    between atoms: C_19  and  C_21
REMARK                            x       y       z     vdW  Elec       q    Type
REMARK                         _______ _______ _______ _____ _____    ______ ____
ROOT
ATOM      1  C   LIG A   1      -7.736  -2.184 128.343  0.00  0.00    +0.060 A 
ATOM      2  C   LIG A   1      -7.045  -1.036 127.940  0.00  0.00    +0.022 A 
ATOM      3  C   LIG A   1      -7.104  -0.595 126.604  0.00  0.00    -0.001 A 
ATOM      4  C   LIG A   1      -7.898  -1.311 125.686  0.00  0.00    +0.132 A 
ATOM      5  O   LIG A   1      -7.930  -0.851 124.398  0.00  0.00    -0.481 OA
ATOM      6  C   LIG A   1      -8.658  -1.587 123.394  0.00  0.00    +0.127 C 
ATOM      7  C   LIG A   1      -9.665  -0.592 122.798  0.00  0.00    +0.060 C 
ATOM      8  C   LIG A   1      -9.434  -2.788 123.886  0.00  0.00    +0.021 C 
ATOM      9  C   LIG A   1      -9.415  -3.198 125.154  0.00  0.00    +0.011 C 
ATOM     10  C   LIG A   1      -8.604  -2.449 126.097  0.00  0.00    +0.018 A 
ATOM     11  C   LIG A   1      -8.523  -2.881 127.423  0.00  0.00    +0.026 A 
ENDROOT
BRANCH   1  13
ATOM     12  O   LIG A   1      -7.853  -1.963 130.721  0.00  0.00    -0.245 OA
ATOM     13  C   LIG A   1      -7.614  -2.653 129.745  0.00  0.00    +0.339 C 
BRANCH  13  14
ATOM     14  O   LIG A   1      -7.148  -3.926 129.742  0.00  0.00    -0.465 OA
ATOM     15  C   LIG A   1      -5.862  -4.138 130.335  0.00  0.00    +0.280 C 
ENDBRANCH  13  14
ENDBRANCH   1  13
BRANCH   3  16
ATOM     16  C   LIG A   1      -6.310   0.630 126.188  0.00  0.00    +0.066 C 
BRANCH  16  17
ATOM     17  C   LIG A   1      -7.145   1.881 126.101  0.00  0.00    -0.023 C 
ATOM     18  C   LIG A   1      -7.392   2.613 124.993  0.00  0.00    -0.079 C 
ATOM     19  C   LIG A   1      -6.828   2.324 123.630  0.00  0.00    +0.038 C 
ATOM     20  C   LIG A   1      -8.274   3.833 125.051  0.00  0.00    +0.038 C 
ENDBRANCH  16  17
ENDBRANCH   3  16
BRANCH   6  21
ATOM     21  C   LIG A   1      -7.645  -2.021 122.310  0.00  0.00    +0.056 C 
BRANCH  21  22
ATOM     22  C   LIG A   1      -6.191  -1.663 122.656  0.00  0.00    +0.031 C 
BRANCH  22  23
ATOM     23  C   LIG A   1      -5.307  -2.879 122.631  0.00  0.00    -0.028 C 
ATOM     24  C   LIG A   1      -4.854  -3.569 123.696  0.00  0.00    -0.080 C 
ATOM     25  C   LIG A   1      -5.185  -3.250 125.128  0.00  0.00    +0.038 C 
ATOM     26  C   LIG A   1      -3.967  -4.771 123.513  0.00  0.00    +0.038 C 
ENDBRANCH  22  23
ENDBRANCH  21  22
ENDBRANCH   6  21
TORSDOF 7
ENDMDL
MODEL 3
REMARK VINA RESULT:      -7.5      8.346     10.809
REMARK  Name = NuBBE_154
REMARK  13 active torsions:
REMARK  status: ('A' for Active; 'I' for Inactive)
REMARK    1  A    between atoms: C_2  and  O_3
REMARK    2  A    between atoms: C_2  and  C_5
REMARK    3  A    between atoms: O_3  and  C_4
REMARK    4  A    between atoms: C_7  and  C_8
REMARK    5  A    between atoms: C_8  and  C_9
REMARK    6  A    between atoms: C_10  and  C_11
REMARK    7  A    between atoms: C_10  and  C_12
REMARK    8  A    between atoms: C_15  and  C_16
REMARK    9  A    between atoms: C_15  and  C_22
REMARK   10  A    between atoms: C_16  and  C_17
REMARK   11  A    between atoms: C_17  and  C_18
REMARK   12  A    between atoms: C_19  and  C_20
REMARK   13  A    between atoms: C_19  and  C_21
REMARK                            x       y       z     vdW  Elec       q    Type
REMARK                         _______ _______ _______ _____ _____    ______ ____
ROOT
ATOM      1  C   LIG A   1      -5.450   5.976 132.505  0.00  0.00    +0.060 A 
ATOM      2  C   LIG A   1      -6.080   4.938 133.198  0.00  0.00    +0.022 A 
ATOM      3  C   LIG A   1      -7.452   4.680 133.010  0.00  0.00    -0.001 A 
ATOM      4  C   LIG A   1      -8.172   5.464 132.088  0.00  0.00    +0.132 A 
ATOM      5  O   LIG A   1      -9.501   5.182 131.934  0.00  0.00    -0.481 OA
ATOM      6  C   LIG A   1     -10.310   6.002 131.065  0.00  0.00    +0.127 C 
ATOM      7  C   LIG A   1     -10.933   5.038 130.045  0.00  0.00    +0.060 C 
ATOM      8  C   LIG A   1      -9.576   7.076 130.295  0.00  0.00    +0.021 C 
ATOM      9  C   LIG A   1      -8.271   7.310 130.436  0.00  0.00    +0.011 C 
ATOM     10  C   LIG A   1      -7.533   6.490 131.381  0.00  0.00    +0.018 A 
ATOM     11  C   LIG A   1      -6.175   6.743 131.589  0.00  0.00    +0.026 A 
ENDROOT
BRANCH   1  13
ATOM     12  O   LIG A   1      -3.333   5.654 133.569  0.00  0.00    -0.245 OA
ATOM     13  C   LIG A   1      -4.015   6.257 132.760  0.00  0.00    +0.339 C 
BRANCH  13  14
ATOM     14  O   LIG A   1      -3.634   7.312 131.998  0.00  0.00    -0.465 OA
ATOM     15  C   LIG A   1      -2.680   8.209 132.577  0.00  0.00    +0.280 C 
ENDBRANCH  13  14
ENDBRANCH   1  13
BRANCH   3  16
ATOM     16  C   LIG A   1      -8.117   3.573 133.808  0.00  0.00    +0.066 C 
BRANCH  16  17
ATOM     17  C   LIG A   1      -7.805   2.193 133.290  0.00  0.00    -0.023 C 
ATOM     18  C   LIG A   1      -8.576   1.441 132.476  0.00  0.00    -0.079 C 
ATOM     19  C   LIG A   1      -9.933   1.842 131.967  0.00  0.00    +0.038 C 
ATOM     20  C   LIG A   1      -8.119   0.082 132.014  0.00  0.00    +0.038 C 
ENDBRANCH  16  17
ENDBRANCH   3  16
BRANCH   6  21
ATOM     21  C   LIG A   1     -11.422   6.640 131.930  0.00  0.00    +0.056 C 
BRANCH  21  22
ATOM     22  C   LIG A   1     -12.718   6.914 131.152  0.00  0.00    +0.031 C 
BRANCH  22  23
ATOM     23  C   LIG A   1     -13.006   8.387 131.068  0.00  0.00    -0.028 C 
ATOM     24  C   LIG A   1     -12.902   9.169 129.975  0.00  0.00    -0.080 C 
ATOM     25  C   LIG A   1     -12.494   8.684 128.611  0.00  0.00    +0.038 C 
ATOM     26  C   LIG A   1     -13.222  10.637 130.046  0.00  0.00    +0.038 C 
ENDBRANCH  22  23
ENDBRANCH  21  22
ENDBRANCH   6  21
TORSDOF 7
ENDMDL
MODEL 4
REMARK VINA RESULT:      -7.5      3.668      7.109
REMARK  Name = NuBBE_154
REMARK  13 active torsions:
REMARK  status: ('A' for Active; 'I' for Inactive)
REMARK    1  A    between atoms: C_2  and  O_3
REMARK    2  A    between atoms: C_2  and  C_5
REMARK    3  A    between atoms: O_3  and  C_4
REMARK    4  A    between atoms: C_7  and  C_8
REMARK    5  A    between atoms: C_8  and  C_9
REMARK    6  A    between atoms: C_10  and  C_11
REMARK    7  A    between atoms: C_10  and  C_12
REMARK    8  A    between atoms: C_15  and  C_16
REMARK    9  A    between atoms: C_15  and  C_22
REMARK   10  A    between atoms: C_16  and  C_17
REMARK   11  A    between atoms: C_17  and  C_18
REMARK   12  A    between atoms: C_19  and  C_20
REMARK   13  A    between atoms: C_19  and  C_21
REMARK                            x       y       z     vdW  Elec       q    Type
REMARK                         _______ _______ _______ _____ _____    ______ ____
ROOT
ATOM      1  C   LIG A   1      -8.440  -2.407 124.814  0.00  0.00    +0.060 A 
ATOM      2  C   LIG A   1      -7.264  -1.649 124.820  0.00  0.00    +0.022 A 
ATOM      3  C   LIG A   1      -6.527  -1.480 126.008  0.00  0.00    -0.001 A 
ATOM      4  C   LIG A   1      -6.974  -2.115 127.183  0.00  0.00    +0.132 A 
ATOM      5  O   LIG A   1      -6.231  -1.927 128.315  0.00  0.00    -0.481 OA
ATOM      6  C   LIG A   1      -6.682  -2.484 129.568  0.00  0.00    +0.127 C 
ATOM      7  C   LIG A   1      -5.530  -3.368 130.068  0.00  0.00    +0.060 C 
ATOM      8  C   LIG A   1      -7.925  -3.341 129.502  0.00  0.00    +0.021 C 
ATOM      9  C   LIG A   1      -8.615  -3.538 128.378  0.00  0.00    +0.011 C 
ATOM     10  C   LIG A   1      -8.141  -2.889 127.168  0.00  0.00    +0.018 A 
ATOM     11  C   LIG A   1      -8.869  -3.035 125.985  0.00  0.00    +0.026 A 
ENDROOT
BRANCH   1  13
ATOM     12  O   LIG A   1     -10.003  -3.432 123.323  0.00  0.00    -0.245 OA
ATOM     13  C   LIG A   1      -9.223  -2.526 123.559  0.00  0.00    +0.339 C 
BRANCH  13  14
ATOM     14  O   LIG A   1      -8.878  -1.511 122.730  0.00  0.00    -0.465 OA
ATOM     15  C   LIG A   1      -9.857  -0.485 122.532  0.00  0.00    +0.280 C 
ENDBRANCH  13  14
ENDBRANCH   1  13
BRANCH   3  16
ATOM     16  C   LIG A   1      -5.278  -0.617 125.993  0.00  0.00    +0.066 C 
BRANCH  16  17
ATOM     17  C   LIG A   1      -5.553   0.826 125.656  0.00  0.00    -0.023 C 
ATOM     18  C   LIG A   1      -5.226   1.906 126.396  0.00  0.00    -0.079 C 
ATOM     19  C   LIG A   1      -4.551   1.854 127.739  0.00  0.00    +0.038 C 
ATOM     20  C   LIG A   1      -5.542   3.299 125.917  0.00  0.00    +0.038 C 
ENDBRANCH  16  17
ENDBRANCH   3  16
BRANCH   6  21
ATOM     21  C   LIG A   1      -6.903  -1.307 130.546  0.00  0.00    +0.056 C 
BRANCH  21  22
ATOM     22  C   LIG A   1      -8.202  -0.530 130.281  0.00  0.00    +0.031 C 
BRANCH  22  23
ATOM     23  C   LIG A   1      -7.937   0.940 130.110  0.00  0.00    -0.028 C 
ATOM     24  C   LIG A   1      -8.096   1.663 128.985  0.00  0.00    -0.080 C 
ATOM     25  C   LIG A   1      -8.604   1.116 127.679  0.00  0.00    +0.038 C 
ATOM     26  C   LIG A   1      -7.784   3.135 128.965  0.00  0.00    +0.038 C 
ENDBRANCH  22  23
ENDBRANCH  21  22
ENDBRANCH   6  21
TORSDOF 7
ENDMDL
MODEL 5
REMARK VINA RESULT:      -7.4      6.797     10.427
REMARK  Name = NuBBE_154
REMARK  13 active torsions:
REMARK  status: ('A' for Active; 'I' for Inactive)
REMARK    1  A    between atoms: C_2  and  O_3
REMARK    2  A    between atoms: C_2  and  C_5
REMARK    3  A    between atoms: O_3  and  C_4
REMARK    4  A    between atoms: C_7  and  C_8
REMARK    5  A    between atoms: C_8  and  C_9
REMARK    6  A    between atoms: C_10  and  C_11
REMARK    7  A    between atoms: C_10  and  C_12
REMARK    8  A    between atoms: C_15  and  C_16
REMARK    9  A    between atoms: C_15  and  C_22
REMARK   10  A    between atoms: C_16  and  C_17
REMARK   11  A    between atoms: C_17  and  C_18
REMARK   12  A    between atoms: C_19  and  C_20
REMARK   13  A    between atoms: C_19  and  C_21
REMARK                            x       y       z     vdW  Elec       q    Type
REMARK                         _______ _______ _______ _____ _____    ______ ____
ROOT
ATOM      1  C   LIG A   1     -10.003   6.425 131.495  0.00  0.00    +0.060 A 
ATOM      2  C   LIG A   1      -9.870   5.473 132.511  0.00  0.00    +0.022 A 
ATOM      3  C   LIG A   1      -8.595   5.065 132.948  0.00  0.00    -0.001 A 
ATOM      4  C   LIG A   1      -7.455   5.655 132.368  0.00  0.00    +0.132 A 
ATOM      5  O   LIG A   1      -6.236   5.232 132.819  0.00  0.00    -0.481 OA
ATOM      6  C   LIG A   1      -5.031   5.738 132.207  0.00  0.00    +0.127 C 
ATOM      7  C   LIG A   1      -4.211   6.353 133.351  0.00  0.00    +0.060 C 
ATOM      8  C   LIG A   1      -5.223   6.804 131.153  0.00  0.00    +0.021 C 
ATOM      9  C   LIG A   1      -6.422   7.226 130.752  0.00  0.00    +0.011 C 
ATOM     10  C   LIG A   1      -7.593   6.621 131.364  0.00  0.00    +0.018 A 
ATOM     11  C   LIG A   1      -8.864   7.005 130.931  0.00  0.00    +0.026 A 
ENDROOT
BRANCH   1  13
ATOM     12  O   LIG A   1     -12.394   6.410 131.531  0.00  0.00    -0.245 OA
ATOM     13  C   LIG A   1     -11.358   6.799 131.020  0.00  0.00    +0.339 C 
BRANCH  13  14
ATOM     14  O   LIG A   1     -11.235   7.576 129.915  0.00  0.00    -0.465 OA
ATOM     15  C   LIG A   1     -12.377   8.360 129.554  0.00  0.00    +0.280 C 
ENDBRANCH  13  14
ENDBRANCH   1  13
BRANCH   3  16
ATOM     16  C   LIG A   1      -8.483   3.999 134.024  0.00  0.00    +0.066 C 
BRANCH  16  17
ATOM     17  C   LIG A   1      -8.178   2.629 133.477  0.00  0.00    -0.023 C 
ATOM     18  C   LIG A   1      -7.045   1.917 133.664  0.00  0.00    -0.079 C 
ATOM     19  C   LIG A   1      -5.845   2.399 134.431  0.00  0.00    +0.038 C 
ATOM     20  C   LIG A   1      -6.890   0.539 133.076  0.00  0.00    +0.038 C 
ENDBRANCH  16  17
ENDBRANCH   3  16
BRANCH   6  21
ATOM     21  C   LIG A   1      -4.272   4.532 131.607  0.00  0.00    +0.056 C 
BRANCH  21  22
ATOM     22  C   LIG A   1      -4.784   4.121 130.217  0.00  0.00    +0.031 C 
BRANCH  22  23
ATOM     23  C   LIG A   1      -5.898   3.116 130.319  0.00  0.00    -0.028 C 
ATOM     24  C   LIG A   1      -7.082   3.156 129.678  0.00  0.00    -0.080 C 
ATOM     25  C   LIG A   1      -7.495   4.228 128.707  0.00  0.00    +0.038 C 
ATOM     26  C   LIG A   1      -8.106   2.073 129.884  0.00  0.00    +0.038 C 
ENDBRANCH  22  23
ENDBRANCH  21  22
ENDBRANCH   6  21
TORSDOF 7
ENDMDL
MODEL 6
REMARK VINA RESULT:      -7.4      7.075     10.361
REMARK  Name = NuBBE_154
REMARK  13 active torsions:
REMARK  status: ('A' for Active; 'I' for Inactive)
REMARK    1  A    between atoms: C_2  and  O_3
REMARK    2  A    between atoms: C_2  and  C_5
REMARK    3  A    between atoms: O_3  and  C_4
REMARK    4  A    between atoms: C_7  and  C_8
REMARK    5  A    between atoms: C_8  and  C_9
REMARK    6  A    between atoms: C_10  and  C_11
REMARK    7  A    between atoms: C_10  and  C_12
REMARK    8  A    between atoms: C_15  and  C_16
REMARK    9  A    between atoms: C_15  and  C_22
REMARK   10  A    between atoms: C_16  and  C_17
REMARK   11  A    between atoms: C_17  and  C_18
REMARK   12  A    between atoms: C_19  and  C_20
REMARK   13  A    between atoms: C_19  and  C_21
REMARK                            x       y       z     vdW  Elec       q    Type
REMARK                         _______ _______ _______ _____ _____    ______ ____
ROOT
ATOM      1  C   LIG A   1     -10.039   6.544 131.077  0.00  0.00    +0.060 A 
ATOM      2  C   LIG A   1     -10.096   5.515 132.022  0.00  0.00    +0.022 A 
ATOM      3  C   LIG A   1      -8.917   5.005 132.600  0.00  0.00    -0.001 A 
ATOM      4  C   LIG A   1      -7.681   5.574 132.236  0.00  0.00    +0.132 A 
ATOM      5  O   LIG A   1      -6.559   5.052 132.819  0.00  0.00    -0.481 OA
ATOM      6  C   LIG A   1      -5.258   5.536 132.426  0.00  0.00    +0.127 C 
ATOM      7  C   LIG A   1      -4.586   6.019 133.720  0.00  0.00    +0.060 C 
ATOM      8  C   LIG A   1      -5.248   6.686 131.445  0.00  0.00    +0.021 C 
ATOM      9  C   LIG A   1      -6.357   7.202 130.915  0.00  0.00    +0.011 C 
ATOM     10  C   LIG A   1      -7.629   6.618 131.304  0.00  0.00    +0.018 A 
ATOM     11  C   LIG A   1      -8.806   7.102 130.729  0.00  0.00    +0.026 A 
ENDROOT
BRANCH   1  13
ATOM     12  O   LIG A   1     -12.410   6.699 130.809  0.00  0.00    -0.245 OA
ATOM     13  C   LIG A   1     -11.293   7.026 130.447  0.00  0.00    +0.339 C 
BRANCH  13  14
ATOM     14  O   LIG A   1     -10.977   7.821 129.395  0.00  0.00    -0.465 OA
ATOM     15  C   LIG A   1     -12.013   8.681 128.908  0.00  0.00    +0.280 C 
ENDBRANCH  13  14
ENDBRANCH   1  13
BRANCH   3  16
ATOM     16  C   LIG A   1      -9.009   3.859 133.591  0.00  0.00    +0.066 C 
BRANCH  16  17
ATOM     17  C   LIG A   1      -9.432   2.558 132.961  0.00  0.00    -0.023 C 
ATOM     18  C   LIG A   1      -8.625   1.625 132.411  0.00  0.00    -0.079 C 
ATOM     19  C   LIG A   1      -7.131   1.745 132.291  0.00  0.00    +0.038 C 
ATOM     20  C   LIG A   1      -9.190   0.351 131.840  0.00  0.00    +0.038 C 
ENDBRANCH  16  17
ENDBRANCH   3  16
BRANCH   6  21
ATOM     21  C   LIG A   1      -4.473   4.338 131.843  0.00  0.00    +0.056 C 
BRANCH  21  22
ATOM     22  C   LIG A   1      -3.155   4.744 131.166  0.00  0.00    +0.031 C 
BRANCH  22  23
ATOM     23  C   LIG A   1      -3.104   4.272 129.739  0.00  0.00    -0.028 C 
ATOM     24  C   LIG A   1      -2.707   4.985 128.667  0.00  0.00    -0.080 C 
ATOM     25  C   LIG A   1      -2.210   6.403 128.717  0.00  0.00    +0.038 C 
ATOM     26  C   LIG A   1      -2.714   4.374 127.291  0.00  0.00    +0.038 C 
ENDBRANCH  22  23
ENDBRANCH  21  22
ENDBRANCH   6  21
TORSDOF 7
ENDMDL
MODEL 7
REMARK VINA RESULT:      -7.4      6.674      9.732
REMARK  Name = NuBBE_154
REMARK  13 active torsions:
REMARK  status: ('A' for Active; 'I' for Inactive)
REMARK    1  A    between atoms: C_2  and  O_3
REMARK    2  A    between atoms: C_2  and  C_5
REMARK    3  A    between atoms: O_3  and  C_4
REMARK    4  A    between atoms: C_7  and  C_8
REMARK    5  A    between atoms: C_8  and  C_9
REMARK    6  A    between atoms: C_10  and  C_11
REMARK    7  A    between atoms: C_10  and  C_12
REMARK    8  A    between atoms: C_15  and  C_16
REMARK    9  A    between atoms: C_15  and  C_22
REMARK   10  A    between atoms: C_16  and  C_17
REMARK   11  A    between atoms: C_17  and  C_18
REMARK   12  A    between atoms: C_19  and  C_20
REMARK   13  A    between atoms: C_19  and  C_21
REMARK                            x       y       z     vdW  Elec       q    Type
REMARK                         _______ _______ _______ _____ _____    ______ ____
ROOT
ATOM      1  C   LIG A   1     -10.841   6.020 130.667  0.00  0.00    +0.060 A 
ATOM      2  C   LIG A   1      -9.672   6.767 130.851  0.00  0.00    +0.022 A 
ATOM      3  C   LIG A   1      -8.409   6.148 130.791  0.00  0.00    -0.001 A 
ATOM      4  C   LIG A   1      -8.339   4.769 130.510  0.00  0.00    +0.132 A 
ATOM      5  O   LIG A   1      -7.094   4.205 130.461  0.00  0.00    -0.481 OA
ATOM      6  C   LIG A   1      -6.961   2.783 130.259  0.00  0.00    +0.127 C 
ATOM      7  C   LIG A   1      -6.074   2.621 129.016  0.00  0.00    +0.060 C 
ATOM      8  C   LIG A   1      -8.246   2.026 130.010  0.00  0.00    +0.021 C 
ATOM      9  C   LIG A   1      -9.447   2.604 130.029  0.00  0.00    +0.011 C 
ATOM     10  C   LIG A   1      -9.510   4.028 130.308  0.00  0.00    +0.018 A 
ATOM     11  C   LIG A   1     -10.756   4.654 130.384  0.00  0.00    +0.026 A 
ENDROOT
BRANCH   1  13
ATOM     12  O   LIG A   1     -12.693   6.968 131.844  0.00  0.00    -0.245 OA
ATOM     13  C   LIG A   1     -12.160   6.689 130.785  0.00  0.00    +0.339 C 
BRANCH  13  14
ATOM     14  O   LIG A   1     -12.671   6.870 129.542  0.00  0.00    -0.465 OA
ATOM     15  C   LIG A   1     -12.538   8.179 128.979  0.00  0.00    +0.280 C 
ENDBRANCH  13  14
ENDBRANCH   1  13
BRANCH   3  16
ATOM     16  C   LIG A   1      -7.161   6.977 131.036  0.00  0.00    +0.066 C 
BRANCH  16  17
ATOM     17  C   LIG A   1      -6.323   6.470 132.181  0.00  0.00    -0.023 C 
ATOM     18  C   LIG A   1      -4.976   6.379 132.220  0.00  0.00    -0.079 C 
ATOM     19  C   LIG A   1      -4.059   6.736 131.083  0.00  0.00    +0.038 C 
ATOM     20  C   LIG A   1      -4.268   5.876 133.450  0.00  0.00    +0.038 C 
ENDBRANCH  16  17
ENDBRANCH   3  16
BRANCH   6  21
ATOM     21  C   LIG A   1      -6.239   2.203 131.497  0.00  0.00    +0.056 C 
BRANCH  21  22
ATOM     22  C   LIG A   1      -7.167   2.004 132.706  0.00  0.00    +0.031 C 
BRANCH  22  23
ATOM     23  C   LIG A   1      -6.993   3.103 133.718  0.00  0.00    -0.028 C 
ATOM     24  C   LIG A   1      -7.958   3.898 134.219  0.00  0.00    -0.080 C 
ATOM     25  C   LIG A   1      -9.416   3.804 133.864  0.00  0.00    +0.038 C 
ATOM     26  C   LIG A   1      -7.629   4.964 135.229  0.00  0.00    +0.038 C 
ENDBRANCH  22  23
ENDBRANCH  21  22
ENDBRANCH   6  21
TORSDOF 7
ENDMDL
MODEL 8
REMARK VINA RESULT:      -7.4      4.038      6.366
REMARK  Name = NuBBE_154
REMARK  13 active torsions:
REMARK  status: ('A' for Active; 'I' for Inactive)
REMARK    1  A    between atoms: C_2  and  O_3
REMARK    2  A    between atoms: C_2  and  C_5
REMARK    3  A    between atoms: O_3  and  C_4
REMARK    4  A    between atoms: C_7  and  C_8
REMARK    5  A    between atoms: C_8  and  C_9
REMARK    6  A    between atoms: C_10  and  C_11
REMARK    7  A    between atoms: C_10  and  C_12
REMARK    8  A    between atoms: C_15  and  C_16
REMARK    9  A    between atoms: C_15  and  C_22
REMARK   10  A    between atoms: C_16  and  C_17
REMARK   11  A    between atoms: C_17  and  C_18
REMARK   12  A    between atoms: C_19  and  C_20
REMARK   13  A    between atoms: C_19  and  C_21
REMARK                            x       y       z     vdW  Elec       q    Type
REMARK                         _______ _______ _______ _____ _____    ______ ____
ROOT
ATOM      1  C   LIG A   1      -8.683   1.268 125.248  0.00  0.00    +0.060 A 
ATOM      2  C   LIG A   1      -8.723   0.046 124.569  0.00  0.00    +0.022 A 
ATOM      3  C   LIG A   1      -8.423  -1.156 125.238  0.00  0.00    -0.001 A 
ATOM      4  C   LIG A   1      -8.113  -1.111 126.611  0.00  0.00    +0.132 A 
ATOM      5  O   LIG A   1      -7.827  -2.300 127.225  0.00  0.00    -0.481 OA
ATOM      6  C   LIG A   1      -7.422  -2.310 128.610  0.00  0.00    +0.127 C 
ATOM      7  C   LIG A   1      -8.416  -3.237 129.326  0.00  0.00    +0.060 C 
ATOM      8  C   LIG A   1      -7.447  -0.974 129.317  0.00  0.00    +0.021 C 
ATOM      9  C   LIG A   1      -7.763   0.168 128.706  0.00  0.00    +0.011 C 
ATOM     10  C   LIG A   1      -8.092   0.112 127.292  0.00  0.00    +0.018 A 
ATOM     11  C   LIG A   1      -8.379   1.297 126.611  0.00  0.00    +0.026 A 
ENDROOT
BRANCH   1  13
ATOM     12  O   LIG A   1      -8.922   3.634 125.005  0.00  0.00    -0.245 OA
ATOM     13  C   LIG A   1      -8.955   2.524 124.505  0.00  0.00    +0.339 C 
BRANCH  13  14
ATOM     14  O   LIG A   1      -9.296   2.213 123.230  0.00  0.00    -0.465 OA
ATOM     15  C   LIG A   1      -8.661   2.971 122.195  0.00  0.00    +0.280 C 
ENDBRANCH  13  14
ENDBRANCH   1  13
BRANCH   3  16
ATOM     16  C   LIG A   1      -8.434  -2.462 124.464  0.00  0.00    +0.066 C 
BRANCH  16  17
ATOM     17  C   LIG A   1      -7.087  -3.135 124.408  0.00  0.00    -0.023 C 
ATOM     18  C   LIG A   1      -6.078  -2.854 123.555  0.00  0.00    -0.079 C 
ATOM     19  C   LIG A   1      -6.141  -1.827 122.459  0.00  0.00    +0.038 C 
ATOM     20  C   LIG A   1      -4.768  -3.594 123.634  0.00  0.00    +0.038 C 
ENDBRANCH  16  17
ENDBRANCH   3  16
BRANCH   6  21
ATOM     21  C   LIG A   1      -6.001  -2.915 128.674  0.00  0.00    +0.056 C 
BRANCH  21  22
ATOM     22  C   LIG A   1      -5.227  -2.520 129.942  0.00  0.00    +0.031 C 
BRANCH  22  23
ATOM     23  C   LIG A   1      -5.052  -3.694 130.865  0.00  0.00    -0.028 C 
ATOM     24  C   LIG A   1      -5.718  -3.923 132.014  0.00  0.00    -0.080 C 
ATOM     25  C   LIG A   1      -6.796  -3.035 132.571  0.00  0.00    +0.038 C 
ATOM     26  C   LIG A   1      -5.430  -5.148 132.839  0.00  0.00    +0.038 C 
ENDBRANCH  22  23
ENDBRANCH  21  22
ENDBRANCH   6  21
TORSDOF 7
ENDMDL
MODEL 9
REMARK VINA RESULT:      -7.3      2.059      5.493
REMARK  Name = NuBBE_154
REMARK  13 active torsions:
REMARK  status: ('A' for Active; 'I' for Inactive)
REMARK    1  A    between atoms: C_2  and  O_3
REMARK    2  A    between atoms: C_2  and  C_5
REMARK    3  A    between atoms: O_3  and  C_4
REMARK    4  A    between atoms: C_7  and  C_8
REMARK    5  A    between atoms: C_8  and  C_9
REMARK    6  A    between atoms: C_10  and  C_11
REMARK    7  A    between atoms: C_10  and  C_12
REMARK    8  A    between atoms: C_15  and  C_16
REMARK    9  A    between atoms: C_15  and  C_22
REMARK   10  A    between atoms: C_16  and  C_17
REMARK   11  A    between atoms: C_17  and  C_18
REMARK   12  A    between atoms: C_19  and  C_20
REMARK   13  A    between atoms: C_19  and  C_21
REMARK                            x       y       z     vdW  Elec       q    Type
REMARK                         _______ _______ _______ _____ _____    ______ ____
ROOT
ATOM      1  C   LIG A   1      -7.620   3.174 122.140  0.00  0.00    +0.060 A 
ATOM      2  C   LIG A   1      -8.593   2.260 122.559  0.00  0.00    +0.022 A 
ATOM      3  C   LIG A   1      -8.465   1.591 123.791  0.00  0.00    -0.001 A 
ATOM      4  C   LIG A   1      -7.357   1.881 124.611  0.00  0.00    +0.132 A 
ATOM      5  O   LIG A   1      -7.268   1.210 125.800  0.00  0.00    -0.481 OA
ATOM      6  C   LIG A   1      -6.114   1.402 126.645  0.00  0.00    +0.127 C 
ATOM      7  C   LIG A   1      -6.666   1.861 128.002  0.00  0.00    +0.060 C 
ATOM      8  C   LIG A   1      -5.118   2.438 126.179  0.00  0.00    +0.021 C 
ATOM      9  C   LIG A   1      -5.243   3.106 125.031  0.00  0.00    +0.011 C 
ATOM     10  C   LIG A   1      -6.394   2.810 124.197  0.00  0.00    +0.018 A 
ATOM     11  C   LIG A   1      -6.528   3.455 122.966  0.00  0.00    +0.026 A 
ENDROOT
BRANCH   1  13
ATOM     12  O   LIG A   1      -6.817   4.230 120.152  0.00  0.00    -0.245 OA
ATOM     13  C   LIG A   1      -7.756   3.827 120.815  0.00  0.00    +0.339 C 
BRANCH  13  14
ATOM     14  O   LIG A   1      -9.074   3.942 120.517  0.00  0.00    -0.465 OA
ATOM     15  C   LIG A   1      -9.398   4.247 119.156  0.00  0.00    +0.280 C 
ENDBRANCH  13  14
ENDBRANCH   1  13
BRANCH   3  16
ATOM     16  C   LIG A   1      -9.516   0.574 124.199  0.00  0.00    +0.066 C 
BRANCH  16  17
ATOM     17  C   LIG A   1      -9.341  -0.766 123.532  0.00  0.00    -0.023 C 
ATOM     18  C   LIG A   1      -9.341  -1.975 124.134  0.00  0.00    -0.079 C 
ATOM     19  C   LIG A   1      -9.475  -2.197 125.615  0.00  0.00    +0.038 C 
ATOM     20  C   LIG A   1      -9.183  -3.239 123.331  0.00  0.00    +0.038 C 
ENDBRANCH  16  17
ENDBRANCH   3  16
BRANCH   6  21
ATOM     21  C   LIG A   1      -5.417   0.031 126.799  0.00  0.00    +0.056 C 
BRANCH  21  22
ATOM     22  C   LIG A   1      -6.374  -1.161 126.639  0.00  0.00    +0.031 C 
BRANCH  22  23
ATOM     23  C   LIG A   1      -5.712  -2.303 125.920  0.00  0.00    -0.028 C 
ATOM     24  C   LIG A   1      -5.540  -2.428 124.589  0.00  0.00    -0.080 C 
ATOM     25  C   LIG A   1      -5.968  -1.408 123.570  0.00  0.00    +0.038 C 
ATOM     26  C   LIG A   1      -4.857  -3.639 124.012  0.00  0.00    +0.038 C 
ENDBRANCH  22  23
ENDBRANCH  21  22
ENDBRANCH   6  21
TORSDOF 7
ENDMDL
