MODEL 1
REMARK VINA RESULT:      -8.0      0.000      0.000
REMARK  Name = NuBBE_2163
REMARK  8 active torsions:
REMARK  status: ('A' for Active; 'I' for Inactive)
REMARK    1  A    between atoms: C_1  and  O_2
REMARK    2  A    between atoms: O_2  and  C_3
REMARK    3  A    between atoms: C_4  and  O_5
REMARK    4  A    between atoms: O_5  and  C_6
REMARK    5  A    between atoms: C_10  and  O_11
REMARK    6  A    between atoms: C_10  and  C_12
REMARK    7  A    between atoms: C_23  and  C_25
REMARK    8  A    between atoms: C_26  and  C_28
REMARK                            x       y       z     vdW  Elec       q    Type
REMARK                         _______ _______ _______ _____ _____    ______ ____
ROOT
ATOM      1  C   LIG A   1      -7.107  -1.033 123.861  0.00  0.00    +0.162 A 
ATOM      2  C   LIG A   1      -7.851  -1.419 124.983  0.00  0.00    +0.162 A 
ATOM      3  C   LIG A   1      -8.241  -0.443 125.912  0.00  0.00    +0.061 A 
ATOM      4  C   LIG A   1      -6.820   0.324 123.662  0.00  0.00    +0.057 A 
ATOM      5  C   LIG A   1      -7.233   1.320 124.567  0.00  0.00    +0.003 A 
ATOM      6  C   LIG A   1      -6.842   2.777 124.303  0.00  0.00    +0.120 C 
ATOM      7  C   LIG A   1      -7.918   0.913 125.712  0.00  0.00    +0.028 A 
ATOM      8  C   LIG A   1      -8.261   1.891 126.774  0.00  0.00    +0.167 C 
ATOM      9  C   LIG A   1      -7.449   3.183 126.767  0.00  0.00    +0.063 C 
ATOM     10  C   LIG A   1      -7.998   4.147 127.826  0.00  0.00    +0.016 C 
ATOM     11  C   LIG A   1      -7.466   3.777 125.337  0.00  0.00    +0.037 C 
ATOM     12  C   LIG A   1      -6.742   5.136 125.305  0.00  0.00    +0.012 C 
ATOM     13  O   LIG A   1      -9.093   1.611 127.623  0.00  0.00    -0.292 OA
ENDROOT
BRANCH   6  14
ATOM     14  C   LIG A   1      -7.181   3.216 122.853  0.00  0.00    -0.008 A 
ATOM     15  C   LIG A   1      -6.195   3.781 122.014  0.00  0.00    +0.056 A 
ATOM     16  C   LIG A   1      -6.547   4.154 120.726  0.00  0.00    +0.167 A 
ATOM     17  C   LIG A   1      -7.830   4.023 120.254  0.00  0.00    +0.166 A 
ATOM     18  O   LIG A   1      -7.965   4.454 118.972  0.00  0.00    -0.453 OA
ATOM     19  C   LIG A   1      -6.600   4.798 118.659  0.00  0.00    +0.466 C 
ATOM     20  O   LIG A   1      -5.707   4.673 119.788  0.00  0.00    -0.453 OA
ATOM     21  C   LIG A   1      -8.829   3.492 121.034  0.00  0.00    +0.050 A 
ATOM     22  C   LIG A   1      -8.496   3.074 122.330  0.00  0.00    +0.010 A 
ENDBRANCH   6  14
BRANCH   1  24
ATOM     23  C   LIG A   1      -5.486  -2.653 123.251  0.00  0.00    +0.277 C 
ATOM     24  O   LIG A   1      -6.708  -1.982 122.960  0.00  0.00    -0.491 OA
ENDBRANCH   1  24
BRANCH   2  25
ATOM     25  O   LIG A   1      -8.192  -2.698 125.348  0.00  0.00    -0.491 OA
ATOM     26  C   LIG A   1      -9.486  -2.888 125.911  0.00  0.00    +0.277 C 
ENDBRANCH   2  25
BRANCH   6  27
ATOM     27  O   LIG A   1      -5.414   2.830 124.481  0.00  0.00    -0.379 OA
ATOM     28  H   LIG A   1      -4.987   2.302 123.787  0.00  0.00    +0.211 HD
ENDBRANCH   6  27
TORSDOF 4
ENDMDL
MODEL 2
REMARK VINA RESULT:      -7.5      3.297      8.030
REMARK  Name = NuBBE_2163
REMARK  8 active torsions:
REMARK  status: ('A' for Active; 'I' for Inactive)
REMARK    1  A    between atoms: C_1  and  O_2
REMARK    2  A    between atoms: O_2  and  C_3
REMARK    3  A    between atoms: C_4  and  O_5
REMARK    4  A    between atoms: O_5  and  C_6
REMARK    5  A    between atoms: C_10  and  O_11
REMARK    6  A    between atoms: C_10  and  C_12
REMARK    7  A    between atoms: C_23  and  C_25
REMARK    8  A    between atoms: C_26  and  C_28
REMARK                            x       y       z     vdW  Elec       q    Type
REMARK                         _______ _______ _______ _____ _____    ______ ____
ROOT
ATOM      1  C   LIG A   1      -4.942   1.781 126.143  0.00  0.00    +0.162 A 
ATOM      2  C   LIG A   1      -5.723   2.577 125.296  0.00  0.00    +0.162 A 
ATOM      3  C   LIG A   1      -6.737   1.975 124.537  0.00  0.00    +0.061 A 
ATOM      4  C   LIG A   1      -5.228   0.414 126.258  0.00  0.00    +0.057 A 
ATOM      5  C   LIG A   1      -6.265  -0.199 125.529  0.00  0.00    +0.003 A 
ATOM      6  C   LIG A   1      -6.488  -1.707 125.675  0.00  0.00    +0.120 C 
ATOM      7  C   LIG A   1      -6.992   0.594 124.642  0.00  0.00    +0.028 A 
ATOM      8  C   LIG A   1      -8.004  -0.013 123.742  0.00  0.00    +0.167 C 
ATOM      9  C   LIG A   1      -7.866  -1.516 123.513  0.00  0.00    +0.063 C 
ATOM     10  C   LIG A   1      -9.047  -2.025 122.679  0.00  0.00    +0.016 C 
ATOM     11  C   LIG A   1      -7.742  -2.221 124.887  0.00  0.00    +0.037 C 
ATOM     12  C   LIG A   1      -7.701  -3.751 124.710  0.00  0.00    +0.012 C 
ATOM     13  O   LIG A   1      -8.831   0.689 123.182  0.00  0.00    -0.292 OA
ENDROOT
BRANCH   6  14
ATOM     14  C   LIG A   1      -6.568  -2.142 127.163  0.00  0.00    -0.008 A 
ATOM     15  C   LIG A   1      -5.428  -2.626 127.843  0.00  0.00    +0.056 A 
ATOM     16  C   LIG A   1      -5.551  -2.999 129.173  0.00  0.00    +0.167 A 
ATOM     17  C   LIG A   1      -6.752  -2.943 129.837  0.00  0.00    +0.166 A 
ATOM     18  O   LIG A   1      -6.658  -3.360 131.127  0.00  0.00    -0.453 OA
ATOM     19  C   LIG A   1      -5.242  -3.608 131.227  0.00  0.00    +0.466 C 
ATOM     20  O   LIG A   1      -4.544  -3.445 129.972  0.00  0.00    -0.453 OA
ATOM     21  C   LIG A   1      -7.894  -2.493 129.218  0.00  0.00    +0.050 A 
ATOM     22  C   LIG A   1      -7.794  -2.077 127.883  0.00  0.00    +0.010 A 
ENDBRANCH   6  14
BRANCH   1  24
ATOM     23  C   LIG A   1      -4.148   2.439 128.279  0.00  0.00    +0.277 C 
ATOM     24  O   LIG A   1      -3.939   2.359 126.873  0.00  0.00    -0.491 OA
ENDBRANCH   1  24
BRANCH   2  25
ATOM     25  O   LIG A   1      -5.561   3.917 125.040  0.00  0.00    -0.491 OA
ATOM     26  C   LIG A   1      -5.577   4.321 123.675  0.00  0.00    +0.277 C 
ENDBRANCH   2  25
BRANCH   6  27
ATOM     27  O   LIG A   1      -5.335  -2.326 125.073  0.00  0.00    -0.379 OA
ATOM     28  H   LIG A   1      -4.558  -1.764 125.221  0.00  0.00    +0.211 HD
ENDBRANCH   6  27
TORSDOF 4
ENDMDL
MODEL 3
REMARK VINA RESULT:      -7.4      3.255      6.318
REMARK  Name = NuBBE_2163
REMARK  8 active torsions:
REMARK  status: ('A' for Active; 'I' for Inactive)
REMARK    1  A    between atoms: C_1  and  O_2
REMARK    2  A    between atoms: O_2  and  C_3
REMARK    3  A    between atoms: C_4  and  O_5
REMARK    4  A    between atoms: O_5  and  C_6
REMARK    5  A    between atoms: C_10  and  O_11
REMARK    6  A    between atoms: C_10  and  C_12
REMARK    7  A    between atoms: C_23  and  C_25
REMARK    8  A    between atoms: C_26  and  C_28
REMARK                            x       y       z     vdW  Elec       q    Type
REMARK                         _______ _______ _______ _____ _____    ______ ____
ROOT
ATOM      1  C   LIG A   1      -8.146  -0.239 124.509  0.00  0.00    +0.162 A 
ATOM      2  C   LIG A   1      -8.875  -1.435 124.517  0.00  0.00    +0.162 A 
ATOM      3  C   LIG A   1      -8.866  -2.232 125.670  0.00  0.00    +0.061 A 
ATOM      4  C   LIG A   1      -7.472   0.162 125.671  0.00  0.00    +0.057 A 
ATOM      5  C   LIG A   1      -7.480  -0.611 126.848  0.00  0.00    +0.003 A 
ATOM      6  C   LIG A   1      -6.683  -0.127 128.062  0.00  0.00    +0.120 C 
ATOM      7  C   LIG A   1      -8.158  -1.829 126.820  0.00  0.00    +0.028 A 
ATOM      8  C   LIG A   1      -8.092  -2.756 127.977  0.00  0.00    +0.167 C 
ATOM      9  C   LIG A   1      -6.925  -2.533 128.935  0.00  0.00    +0.063 C 
ATOM     10  C   LIG A   1      -7.059  -3.467 130.143  0.00  0.00    +0.016 C 
ATOM     11  C   LIG A   1      -6.879  -1.035 129.326  0.00  0.00    +0.037 C 
ATOM     12  C   LIG A   1      -5.776  -0.780 130.371  0.00  0.00    +0.012 C 
ATOM     13  O   LIG A   1      -8.894  -3.670 128.080  0.00  0.00    -0.292 OA
ENDROOT
BRANCH   6  14
ATOM     14  C   LIG A   1      -6.991   1.355 128.408  0.00  0.00    -0.008 A 
ATOM     15  C   LIG A   1      -8.275   1.749 128.844  0.00  0.00    +0.056 A 
ATOM     16  C   LIG A   1      -8.499   3.084 129.144  0.00  0.00    +0.167 A 
ATOM     17  C   LIG A   1      -7.520   4.037 128.999  0.00  0.00    +0.166 A 
ATOM     18  O   LIG A   1      -7.947   5.283 129.338  0.00  0.00    -0.453 OA
ATOM     19  C   LIG A   1      -9.284   4.995 129.793  0.00  0.00    +0.466 C 
ATOM     20  O   LIG A   1      -9.663   3.613 129.610  0.00  0.00    -0.453 OA
ATOM     21  C   LIG A   1      -6.258   3.709 128.566  0.00  0.00    +0.050 A 
ATOM     22  C   LIG A   1      -5.992   2.361 128.287  0.00  0.00    +0.010 A 
ENDBRANCH   6  14
BRANCH   1  24
ATOM     23  C   LIG A   1      -9.112   1.569 123.317  0.00  0.00    +0.277 C 
ATOM     24  O   LIG A   1      -8.136   0.535 123.381  0.00  0.00    -0.491 OA
ENDBRANCH   1  24
BRANCH   2  25
ATOM     25  O   LIG A   1      -9.561  -1.991 123.466  0.00  0.00    -0.491 OA
ATOM     26  C   LIG A   1      -9.599  -3.413 123.398  0.00  0.00    +0.277 C 
ENDBRANCH   2  25
BRANCH   6  27
ATOM     27  O   LIG A   1      -5.299  -0.235 127.682  0.00  0.00    -0.379 OA
ATOM     28  H   LIG A   1      -4.967  -1.112 127.934  0.00  0.00    +0.211 HD
ENDBRANCH   6  27
TORSDOF 4
ENDMDL
MODEL 4
REMARK VINA RESULT:      -7.3      2.574      7.124
REMARK  Name = NuBBE_2163
REMARK  8 active torsions:
REMARK  status: ('A' for Active; 'I' for Inactive)
REMARK    1  A    between atoms: C_1  and  O_2
REMARK    2  A    between atoms: O_2  and  C_3
REMARK    3  A    between atoms: C_4  and  O_5
REMARK    4  A    between atoms: O_5  and  C_6
REMARK    5  A    between atoms: C_10  and  O_11
REMARK    6  A    between atoms: C_10  and  C_12
REMARK    7  A    between atoms: C_23  and  C_25
REMARK    8  A    between atoms: C_26  and  C_28
REMARK                            x       y       z     vdW  Elec       q    Type
REMARK                         _______ _______ _______ _____ _____    ______ ____
ROOT
ATOM      1  C   LIG A   1      -7.124   2.907 123.634  0.00  0.00    +0.162 A 
ATOM      2  C   LIG A   1      -8.200   2.845 122.739  0.00  0.00    +0.162 A 
ATOM      3  C   LIG A   1      -8.919   1.648 122.618  0.00  0.00    +0.061 A 
ATOM      4  C   LIG A   1      -6.827   1.791 124.428  0.00  0.00    +0.057 A 
ATOM      5  C   LIG A   1      -7.560   0.592 124.343  0.00  0.00    +0.003 A 
ATOM      6  C   LIG A   1      -7.147  -0.598 125.213  0.00  0.00    +0.120 C 
ATOM      7  C   LIG A   1      -8.588   0.526 123.403  0.00  0.00    +0.028 A 
ATOM      8  C   LIG A   1      -9.309  -0.749 123.162  0.00  0.00    +0.167 C 
ATOM      9  C   LIG A   1      -8.587  -2.013 123.620  0.00  0.00    +0.063 C 
ATOM     10  C   LIG A   1      -9.499  -3.230 123.433  0.00  0.00    +0.016 C 
ATOM     11  C   LIG A   1      -8.123  -1.819 125.085  0.00  0.00    +0.037 C 
ATOM     12  C   LIG A   1      -7.475  -3.109 125.624  0.00  0.00    +0.012 C 
ATOM     13  O   LIG A   1     -10.376  -0.750 122.567  0.00  0.00    -0.292 OA
ENDROOT
BRANCH   6  14
ATOM     14  C   LIG A   1      -6.973  -0.198 126.703  0.00  0.00    -0.008 A 
ATOM     15  C   LIG A   1      -5.755  -0.424 127.380  0.00  0.00    +0.056 A 
ATOM     16  C   LIG A   1      -5.649  -0.046 128.710  0.00  0.00    +0.167 A 
ATOM     17  C   LIG A   1      -6.701   0.511 129.395  0.00  0.00    +0.166 A 
ATOM     18  O   LIG A   1      -6.392   0.801 130.687  0.00  0.00    -0.453 OA
ATOM     19  C   LIG A   1      -4.996   0.440 130.716  0.00  0.00    +0.466 C 
ATOM     20  O   LIG A   1      -4.536  -0.160 129.485  0.00  0.00    -0.453 OA
ATOM     21  C   LIG A   1      -7.912   0.740 128.786  0.00  0.00    +0.050 A 
ATOM     22  C   LIG A   1      -8.039   0.399 127.432  0.00  0.00    +0.010 A 
ENDBRANCH   6  14
BRANCH   1  24
ATOM     23  C   LIG A   1      -5.543   4.168 124.872  0.00  0.00    +0.277 C 
ATOM     24  O   LIG A   1      -6.407   4.067 123.745  0.00  0.00    -0.491 OA
ENDBRANCH   1  24
BRANCH   2  25
ATOM     25  O   LIG A   1      -8.606   3.825 121.868  0.00  0.00    -0.491 OA
ATOM     26  C   LIG A   1      -8.007   3.831 120.576  0.00  0.00    +0.277 C 
ENDBRANCH   2  25
BRANCH   6  27
ATOM     27  O   LIG A   1      -5.873  -1.027 124.697  0.00  0.00    -0.379 OA
ATOM     28  H   LIG A   1      -5.858  -0.895 123.735  0.00  0.00    +0.211 HD
ENDBRANCH   6  27
TORSDOF 4
ENDMDL
MODEL 5
REMARK VINA RESULT:      -7.1      4.685      7.816
REMARK  Name = NuBBE_2163
REMARK  8 active torsions:
REMARK  status: ('A' for Active; 'I' for Inactive)
REMARK    1  A    between atoms: C_1  and  O_2
REMARK    2  A    between atoms: O_2  and  C_3
REMARK    3  A    between atoms: C_4  and  O_5
REMARK    4  A    between atoms: O_5  and  C_6
REMARK    5  A    between atoms: C_10  and  O_11
REMARK    6  A    between atoms: C_10  and  C_12
REMARK    7  A    between atoms: C_23  and  C_25
REMARK    8  A    between atoms: C_26  and  C_28
REMARK                            x       y       z     vdW  Elec       q    Type
REMARK                         _______ _______ _______ _____ _____    ______ ____
ROOT
ATOM      1  C   LIG A   1      -9.362   5.842 129.700  0.00  0.00    +0.162 A 
ATOM      2  C   LIG A   1      -9.716   5.763 131.052  0.00  0.00    +0.162 A 
ATOM      3  C   LIG A   1      -9.536   4.552 131.736  0.00  0.00    +0.061 A 
ATOM      4  C   LIG A   1      -8.782   4.728 129.076  0.00  0.00    +0.057 A 
ATOM      5  C   LIG A   1      -8.564   3.516 129.757  0.00  0.00    +0.003 A 
ATOM      6  C   LIG A   1      -7.966   2.330 128.995  0.00  0.00    +0.120 C 
ATOM      7  C   LIG A   1      -8.979   3.434 131.086  0.00  0.00    +0.028 A 
ATOM      8  C   LIG A   1      -8.907   2.147 131.820  0.00  0.00    +0.167 C 
ATOM      9  C   LIG A   1      -8.814   0.895 130.952  0.00  0.00    +0.063 C 
ATOM     10  C   LIG A   1      -8.612  -0.339 131.838  0.00  0.00    +0.016 C 
ATOM     11  C   LIG A   1      -7.682   1.091 129.913  0.00  0.00    +0.037 C 
ATOM     12  C   LIG A   1      -7.485  -0.188 129.077  0.00  0.00    +0.012 C 
ATOM     13  O   LIG A   1      -8.994   2.127 133.038  0.00  0.00    -0.292 OA
ENDROOT
BRANCH   6  14
ATOM     14  C   LIG A   1      -6.685   2.727 128.212  0.00  0.00    -0.008 A 
ATOM     15  C   LIG A   1      -5.498   3.084 128.889  0.00  0.00    +0.056 A 
ATOM     16  C   LIG A   1      -4.381   3.427 128.144  0.00  0.00    +0.167 A 
ATOM     17  C   LIG A   1      -4.403   3.462 126.771  0.00  0.00    +0.166 A 
ATOM     18  O   LIG A   1      -3.209   3.831 126.236  0.00  0.00    -0.453 OA
ATOM     19  C   LIG A   1      -2.404   3.944 127.427  0.00  0.00    +0.466 C 
ATOM     20  O   LIG A   1      -3.158   3.754 128.645  0.00  0.00    -0.453 OA
ATOM     21  C   LIG A   1      -5.536   3.138 126.064  0.00  0.00    +0.050 A 
ATOM     22  C   LIG A   1      -6.672   2.753 126.789  0.00  0.00    +0.010 A 
ENDBRANCH   6  14
BRANCH   1  24
ATOM     23  C   LIG A   1     -10.736   7.106 128.237  0.00  0.00    +0.277 C 
ATOM     24  O   LIG A   1      -9.551   7.015 129.021  0.00  0.00    -0.491 OA
ENDBRANCH   1  24
BRANCH   2  25
ATOM     25  O   LIG A   1     -10.321   6.739 131.806  0.00  0.00    -0.491 OA
ATOM     26  C   LIG A   1     -11.743   6.717 131.872  0.00  0.00    +0.277 C 
ENDBRANCH   2  25
BRANCH   6  27
ATOM     27  O   LIG A   1      -8.978   1.929 128.053  0.00  0.00    -0.379 OA
ATOM     28  H   LIG A   1      -8.699   2.181 127.159  0.00  0.00    +0.211 HD
ENDBRANCH   6  27
TORSDOF 4
ENDMDL
MODEL 6
REMARK VINA RESULT:      -7.1      2.080      5.133
REMARK  Name = NuBBE_2163
REMARK  8 active torsions:
REMARK  status: ('A' for Active; 'I' for Inactive)
REMARK    1  A    between atoms: C_1  and  O_2
REMARK    2  A    between atoms: O_2  and  C_3
REMARK    3  A    between atoms: C_4  and  O_5
REMARK    4  A    between atoms: O_5  and  C_6
REMARK    5  A    between atoms: C_10  and  O_11
REMARK    6  A    between atoms: C_10  and  C_12
REMARK    7  A    between atoms: C_23  and  C_25
REMARK    8  A    between atoms: C_26  and  C_28
REMARK                            x       y       z     vdW  Elec       q    Type
REMARK                         _______ _______ _______ _____ _____    ______ ____
ROOT
ATOM      1  C   LIG A   1      -8.442   2.066 128.488  0.00  0.00    +0.162 A 
ATOM      2  C   LIG A   1      -7.879   1.132 129.367  0.00  0.00    +0.162 A 
ATOM      3  C   LIG A   1      -7.655  -0.178 128.919  0.00  0.00    +0.061 A 
ATOM      4  C   LIG A   1      -8.712   1.688 127.165  0.00  0.00    +0.057 A 
ATOM      5  C   LIG A   1      -8.461   0.386 126.691  0.00  0.00    +0.003 A 
ATOM      6  C   LIG A   1      -8.825   0.037 125.245  0.00  0.00    +0.120 C 
ATOM      7  C   LIG A   1      -7.960  -0.549 127.595  0.00  0.00    +0.028 A 
ATOM      8  C   LIG A   1      -7.803  -1.971 127.201  0.00  0.00    +0.167 C 
ATOM      9  C   LIG A   1      -8.621  -2.414 125.991  0.00  0.00    +0.063 C 
ATOM     10  C   LIG A   1      -8.259  -3.857 125.619  0.00  0.00    +0.016 C 
ATOM     11  C   LIG A   1      -8.386  -1.411 124.834  0.00  0.00    +0.037 C 
ATOM     12  C   LIG A   1      -9.114  -1.874 123.558  0.00  0.00    +0.012 C 
ATOM     13  O   LIG A   1      -7.113  -2.724 127.871  0.00  0.00    -0.292 OA
ENDROOT
BRANCH   6  14
ATOM     14  C   LIG A   1      -8.266   1.078 124.237  0.00  0.00    -0.008 A 
ATOM     15  C   LIG A   1      -9.058   1.554 123.168  0.00  0.00    +0.056 A 
ATOM     16  C   LIG A   1      -8.515   2.485 122.297  0.00  0.00    +0.167 A 
ATOM     17  C   LIG A   1      -7.222   2.932 122.422  0.00  0.00    +0.166 A 
ATOM     18  O   LIG A   1      -6.884   3.835 121.463  0.00  0.00    -0.453 OA
ATOM     19  C   LIG A   1      -8.138   3.969 120.766  0.00  0.00    +0.466 C 
ATOM     20  O   LIG A   1      -9.158   3.066 121.248  0.00  0.00    -0.453 OA
ATOM     21  C   LIG A   1      -6.406   2.491 123.436  0.00  0.00    +0.050 A 
ATOM     22  C   LIG A   1      -6.938   1.574 124.353  0.00  0.00    +0.010 A 
ENDBRANCH   6  14
BRANCH   1  24
ATOM     23  C   LIG A   1      -7.744   4.332 128.515  0.00  0.00    +0.277 C 
ATOM     24  O   LIG A   1      -8.681   3.341 128.923  0.00  0.00    -0.491 OA
ENDBRANCH   1  24
BRANCH   2  25
ATOM     25  O   LIG A   1      -7.584   1.321 130.695  0.00  0.00    -0.491 OA
ATOM     26  C   LIG A   1      -6.251   1.709 131.012  0.00  0.00    +0.277 C 
ENDBRANCH   2  25
BRANCH   6  27
ATOM     27  O   LIG A   1     -10.263   0.068 125.192  0.00  0.00    -0.379 OA
ATOM     28  H   LIG A   1     -10.620  -0.349 125.993  0.00  0.00    +0.211 HD
ENDBRANCH   6  27
TORSDOF 4
ENDMDL
MODEL 7
REMARK VINA RESULT:      -7.1      4.376      6.376
REMARK  Name = NuBBE_2163
REMARK  8 active torsions:
REMARK  status: ('A' for Active; 'I' for Inactive)
REMARK    1  A    between atoms: C_1  and  O_2
REMARK    2  A    between atoms: O_2  and  C_3
REMARK    3  A    between atoms: C_4  and  O_5
REMARK    4  A    between atoms: O_5  and  C_6
REMARK    5  A    between atoms: C_10  and  O_11
REMARK    6  A    between atoms: C_10  and  C_12
REMARK    7  A    between atoms: C_23  and  C_25
REMARK    8  A    between atoms: C_26  and  C_28
REMARK                            x       y       z     vdW  Elec       q    Type
REMARK                         _______ _______ _______ _____ _____    ______ ____
ROOT
ATOM      1  C   LIG A   1      -5.756  -3.085 130.165  0.00  0.00    +0.162 A 
ATOM      2  C   LIG A   1      -6.496  -3.046 131.354  0.00  0.00    +0.162 A 
ATOM      3  C   LIG A   1      -7.406  -1.999 131.558  0.00  0.00    +0.061 A 
ATOM      4  C   LIG A   1      -5.984  -2.111 129.183  0.00  0.00    +0.057 A 
ATOM      5  C   LIG A   1      -6.919  -1.073 129.358  0.00  0.00    +0.003 A 
ATOM      6  C   LIG A   1      -7.079  -0.021 128.257  0.00  0.00    +0.120 C 
ATOM      7  C   LIG A   1      -7.601  -1.012 130.573  0.00  0.00    +0.028 A 
ATOM      8  C   LIG A   1      -8.495   0.132 130.879  0.00  0.00    +0.167 C 
ATOM      9  C   LIG A   1      -8.263   1.392 130.049  0.00  0.00    +0.063 C 
ATOM     10  C   LIG A   1      -9.337   2.435 130.377  0.00  0.00    +0.016 C 
ATOM     11  C   LIG A   1      -8.231   1.003 128.550  0.00  0.00    +0.037 C 
ATOM     12  C   LIG A   1      -8.098   2.258 127.666  0.00  0.00    +0.012 C 
ATOM     13  O   LIG A   1      -9.302   0.056 131.793  0.00  0.00    -0.292 OA
ENDROOT
BRANCH   6  14
ATOM     14  C   LIG A   1      -7.273  -0.667 126.859  0.00  0.00    -0.008 A 
ATOM     15  C   LIG A   1      -8.442  -1.397 126.549  0.00  0.00    +0.056 A 
ATOM     16  C   LIG A   1      -8.569  -1.952 125.285  0.00  0.00    +0.167 A 
ATOM     17  C   LIG A   1      -7.580  -1.841 124.338  0.00  0.00    +0.166 A 
ATOM     18  O   LIG A   1      -7.898  -2.461 123.171  0.00  0.00    -0.453 OA
ATOM     19  C   LIG A   1      -9.238  -2.908 123.461  0.00  0.00    +0.466 C 
ATOM     20  O   LIG A   1      -9.645  -2.646 124.823  0.00  0.00    -0.453 OA
ATOM     21  C   LIG A   1      -6.418  -1.152 124.593  0.00  0.00    +0.050 A 
ATOM     22  C   LIG A   1      -6.275  -0.552 125.851  0.00  0.00    +0.010 A 
ENDBRANCH   6  14
BRANCH   1  24
ATOM     23  C   LIG A   1      -3.598  -3.716 129.412  0.00  0.00    +0.277 C 
ATOM     24  O   LIG A   1      -4.853  -4.093 129.967  0.00  0.00    -0.491 OA
ENDBRANCH   1  24
BRANCH   2  25
ATOM     25  O   LIG A   1      -6.377  -3.894 132.428  0.00  0.00    -0.491 OA
ATOM     26  C   LIG A   1      -7.148  -3.584 133.585  0.00  0.00    +0.277 C 
ENDBRANCH   2  25
BRANCH   6  27
ATOM     27  O   LIG A   1      -5.848   0.725 128.255  0.00  0.00    -0.379 OA
ATOM     28  H   LIG A   1      -5.192   0.258 128.797  0.00  0.00    +0.211 HD
ENDBRANCH   6  27
TORSDOF 4
ENDMDL
MODEL 8
REMARK VINA RESULT:      -7.1      2.231      7.106
REMARK  Name = NuBBE_2163
REMARK  8 active torsions:
REMARK  status: ('A' for Active; 'I' for Inactive)
REMARK    1  A    between atoms: C_1  and  O_2
REMARK    2  A    between atoms: O_2  and  C_3
REMARK    3  A    between atoms: C_4  and  O_5
REMARK    4  A    between atoms: O_5  and  C_6
REMARK    5  A    between atoms: C_10  and  O_11
REMARK    6  A    between atoms: C_10  and  C_12
REMARK    7  A    between atoms: C_23  and  C_25
REMARK    8  A    between atoms: C_26  and  C_28
REMARK                            x       y       z     vdW  Elec       q    Type
REMARK                         _______ _______ _______ _____ _____    ______ ____
ROOT
ATOM      1  C   LIG A   1      -6.348   2.752 124.344  0.00  0.00    +0.162 A 
ATOM      2  C   LIG A   1      -7.106   2.387 123.224  0.00  0.00    +0.162 A 
ATOM      3  C   LIG A   1      -7.867   1.211 123.268  0.00  0.00    +0.061 A 
ATOM      4  C   LIG A   1      -6.414   1.966 125.503  0.00  0.00    +0.057 A 
ATOM      5  C   LIG A   1      -7.200   0.800 125.575  0.00  0.00    +0.003 A 
ATOM      6  C   LIG A   1      -7.186  -0.030 126.862  0.00  0.00    +0.120 C 
ATOM      7  C   LIG A   1      -7.899   0.416 124.431  0.00  0.00    +0.028 A 
ATOM      8  C   LIG A   1      -8.634  -0.872 124.393  0.00  0.00    +0.167 C 
ATOM      9  C   LIG A   1      -8.209  -1.905 125.433  0.00  0.00    +0.063 C 
ATOM     10  C   LIG A   1      -9.136  -3.124 125.363  0.00  0.00    +0.016 C 
ATOM     11  C   LIG A   1      -8.192  -1.232 126.827  0.00  0.00    +0.037 C 
ATOM     12  C   LIG A   1      -7.864  -2.264 127.924  0.00  0.00    +0.012 C 
ATOM     13  O   LIG A   1      -9.466  -1.081 123.524  0.00  0.00    -0.292 OA
ENDROOT
BRANCH   6  14
ATOM     14  C   LIG A   1      -7.431   0.844 128.121  0.00  0.00    -0.008 A 
ATOM     15  C   LIG A   1      -8.594   1.637 128.243  0.00  0.00    +0.056 A 
ATOM     16  C   LIG A   1      -8.768   2.397 129.389  0.00  0.00    +0.167 A 
ATOM     17  C   LIG A   1      -7.831   2.428 130.392  0.00  0.00    +0.166 A 
ATOM     18  O   LIG A   1      -8.190   3.241 131.421  0.00  0.00    -0.453 OA
ATOM     19  C   LIG A   1      -9.502   3.657 130.991  0.00  0.00    +0.466 C 
ATOM     20  O   LIG A   1      -9.847   3.179 129.671  0.00  0.00    -0.453 OA
ATOM     21  C   LIG A   1      -6.677   1.686 130.318  0.00  0.00    +0.050 A 
ATOM     22  C   LIG A   1      -6.488   0.881 129.186  0.00  0.00    +0.010 A 
ENDBRANCH   6  14
BRANCH   1  24
ATOM     23  C   LIG A   1      -6.145   5.042 124.925  0.00  0.00    +0.277 C 
ATOM     24  O   LIG A   1      -5.589   3.890 124.302  0.00  0.00    -0.491 OA
ENDBRANCH   1  24
BRANCH   2  25
ATOM     25  O   LIG A   1      -7.134   3.019 122.005  0.00  0.00    -0.491 OA
ATOM     26  C   LIG A   1      -8.411   3.401 121.503  0.00  0.00    +0.277 C 
ENDBRANCH   2  25
BRANCH   6  27
ATOM     27  O   LIG A   1      -5.864  -0.594 126.941  0.00  0.00    -0.379 OA
ATOM     28  H   LIG A   1      -5.932  -1.561 126.988  0.00  0.00    +0.211 HD
ENDBRANCH   6  27
TORSDOF 4
ENDMDL
MODEL 9
REMARK VINA RESULT:      -7.0      3.801      6.491
REMARK  Name = NuBBE_2163
REMARK  8 active torsions:
REMARK  status: ('A' for Active; 'I' for Inactive)
REMARK    1  A    between atoms: C_1  and  O_2
REMARK    2  A    between atoms: O_2  and  C_3
REMARK    3  A    between atoms: C_4  and  O_5
REMARK    4  A    between atoms: O_5  and  C_6
REMARK    5  A    between atoms: C_10  and  O_11
REMARK    6  A    between atoms: C_10  and  C_12
REMARK    7  A    between atoms: C_23  and  C_25
REMARK    8  A    between atoms: C_26  and  C_28
REMARK                            x       y       z     vdW  Elec       q    Type
REMARK                         _______ _______ _______ _____ _____    ______ ____
ROOT
ATOM      1  C   LIG A   1      -9.374   0.218 125.754  0.00  0.00    +0.162 A 
ATOM      2  C   LIG A   1      -9.126  -1.157 125.846  0.00  0.00    +0.162 A 
ATOM      3  C   LIG A   1      -8.172  -1.619 126.764  0.00  0.00    +0.061 A 
ATOM      4  C   LIG A   1      -8.709   1.096 126.621  0.00  0.00    +0.057 A 
ATOM      5  C   LIG A   1      -7.773   0.645 127.572  0.00  0.00    +0.003 A 
ATOM      6  C   LIG A   1      -7.054   1.669 128.454  0.00  0.00    +0.120 C 
ATOM      7  C   LIG A   1      -7.490  -0.720 127.607  0.00  0.00    +0.028 A 
ATOM      8  C   LIG A   1      -6.415  -1.245 128.486  0.00  0.00    +0.167 C 
ATOM      9  C   LIG A   1      -5.384  -0.220 128.952  0.00  0.00    +0.063 C 
ATOM     10  C   LIG A   1      -4.422  -0.870 129.953  0.00  0.00    +0.016 C 
ATOM     11  C   LIG A   1      -6.128   1.008 129.533  0.00  0.00    +0.037 C 
ATOM     12  C   LIG A   1      -5.125   2.028 130.107  0.00  0.00    +0.012 C 
ATOM     13  O   LIG A   1      -6.353  -2.438 128.737  0.00  0.00    -0.292 OA
ENDROOT
BRANCH   6  14
ATOM     14  C   LIG A   1      -8.046   2.658 129.125  0.00  0.00    -0.008 A 
ATOM     15  C   LIG A   1      -8.040   4.031 128.796  0.00  0.00    +0.056 A 
ATOM     16  C   LIG A   1      -8.948   4.872 129.421  0.00  0.00    +0.167 A 
ATOM     17  C   LIG A   1      -9.828   4.416 130.372  0.00  0.00    +0.166 A 
ATOM     18  O   LIG A   1     -10.624   5.402 130.866  0.00  0.00    -0.453 OA
ATOM     19  C   LIG A   1     -10.202   6.519 130.057  0.00  0.00    +0.466 C 
ATOM     20  O   LIG A   1      -9.093   6.205 129.186  0.00  0.00    -0.453 OA
ATOM     21  C   LIG A   1      -9.866   3.092 130.738  0.00  0.00    +0.050 A 
ATOM     22  C   LIG A   1      -8.982   2.211 130.099  0.00  0.00    +0.010 A 
ENDBRANCH   6  14
BRANCH   1  24
ATOM     23  C   LIG A   1      -9.822   1.641 123.911  0.00  0.00    +0.277 C 
ATOM     24  O   LIG A   1     -10.291   0.677 124.848  0.00  0.00    -0.491 OA
ENDBRANCH   1  24
BRANCH   2  25
ATOM     25  O   LIG A   1      -9.660  -2.147 125.059  0.00  0.00    -0.491 OA
ATOM     26  C   LIG A   1      -8.845  -3.288 124.812  0.00  0.00    +0.277 C 
ENDBRANCH   2  25
BRANCH   6  27
ATOM     27  O   LIG A   1      -6.196   2.408 127.564  0.00  0.00    -0.379 OA
ATOM     28  H   LIG A   1      -5.780   1.793 126.939  0.00  0.00    +0.211 HD
ENDBRANCH   6  27
TORSDOF 4
ENDMDL
