MODEL 1
REMARK VINA RESULT:      -8.4      0.000      0.000
REMARK  Name = NuBBE_678
REMARK  10 active torsions:
REMARK  status: ('A' for Active; 'I' for Inactive)
REMARK    1  A    between atoms: C_3  and  C_5
REMARK    2  A    between atoms: C_5  and  C_6
REMARK    3  A    between atoms: C_6  and  C_7
REMARK    4  A    between atoms: C_8  and  C_9
REMARK    5  A    between atoms: C_12  and  C_30
REMARK    6  A    between atoms: C_18  and  C_19
REMARK    7  A    between atoms: C_20  and  C_21
REMARK    8  A    between atoms: C_21  and  C_23
REMARK    9  A    between atoms: C_21  and  C_24
REMARK   10  A    between atoms: C_24  and  C_25
REMARK                            x       y       z     vdW  Elec       q    Type
REMARK                         _______ _______ _______ _____ _____    ______ ____
ROOT
ATOM      1  O   LIG A   1      -8.976   3.505 121.585  0.00  0.00    -0.250 OA
ATOM      2  C   LIG A   1      -8.762   2.585 122.367  0.00  0.00    +0.320 C 
ATOM      3  C   LIG A   1      -7.577   2.495 123.290  0.00  0.00    +0.180 C 
ATOM      4  O   LIG A   1      -9.567   1.481 122.463  0.00  0.00    -0.449 OA
ATOM      5  C   LIG A   1      -9.188   0.739 123.616  0.00  0.00    +0.181 C 
ATOM      6  C   LIG A   1      -7.693   1.020 123.687  0.00  0.00    +0.095 C 
ATOM      7  C   LIG A   1      -7.018   0.379 124.861  0.00  0.00    +0.005 C 
ATOM      8  C   LIG A   1      -5.920   0.858 125.469  0.00  0.00    +0.200 C 
ATOM      9  O   LIG A   1      -5.281   0.236 126.522  0.00  0.00    -0.463 OA
ATOM     10  C   LIG A   1      -5.794  -0.966 126.986  0.00  0.00    +0.128 C 
ATOM     11  C   LIG A   1      -6.873  -1.562 126.447  0.00  0.00    +0.056 C 
ATOM     12  C   LIG A   1      -7.542  -0.937 125.304  0.00  0.00    +0.007 C 
ATOM     13  C   LIG A   1      -8.584  -1.522 124.666  0.00  0.00    +0.095 C 
ATOM     14 CL   LIG A   1      -9.228  -3.077 125.059  0.00  0.00    -0.079 Cl
ATOM     15  C   LIG A   1     -10.124   1.178 124.752  0.00  0.00    +0.065 C 
ATOM     16  C   LIG A   1      -9.287  -0.791 123.551  0.00  0.00    +0.218 C 
ATOM     17  O   LIG A   1      -9.903  -1.384 122.670  0.00  0.00    -0.287 OA
ENDROOT
BRANCH   3  18
ATOM     18  C   LIG A   1      -7.610   3.510 124.416  0.00  0.00    +0.173 C 
ATOM     19  O   LIG A   1      -8.668   3.794 124.978  0.00  0.00    -0.291 OA
BRANCH  18  20
ATOM     20  C   LIG A   1      -6.330   4.136 124.924  0.00  0.00    -0.011 C 
ATOM     21  C   LIG A   1      -5.296   4.420 123.866  0.00  0.00    +0.047 C 
ATOM     22  C   LIG A   1      -6.131   4.425 126.225  0.00  0.00    -0.024 C 
ATOM     23  C   LIG A   1      -4.879   5.008 126.816  0.00  0.00    +0.035 C 
ENDBRANCH  18  20
ENDBRANCH   3  18
BRANCH  10  24
ATOM     24  C   LIG A   1      -5.082  -1.480 128.126  0.00  0.00    +0.042 C 
ATOM     25  C   LIG A   1      -4.784  -2.777 128.307  0.00  0.00    -0.020 C 
BRANCH  25  26
ATOM     26  C   LIG A   1      -4.047  -3.347 129.498  0.00  0.00    +0.008 C 
ATOM     27  C   LIG A   1      -3.375  -2.204 130.264  0.00  0.00    +0.012 C 
BRANCH  26  28
ATOM     28  C   LIG A   1      -4.912  -4.204 130.446  0.00  0.00    +0.004 C 
ATOM     29  C   LIG A   1      -6.409  -4.063 130.179  0.00  0.00    +0.004 C 
ENDBRANCH  26  28
ENDBRANCH  25  26
ENDBRANCH  10  24
TORSDOF 5
ENDMDL
MODEL 2
REMARK VINA RESULT:      -8.0      3.116      5.341
REMARK  Name = NuBBE_678
REMARK  10 active torsions:
REMARK  status: ('A' for Active; 'I' for Inactive)
REMARK    1  A    between atoms: C_3  and  C_5
REMARK    2  A    between atoms: C_5  and  C_6
REMARK    3  A    between atoms: C_6  and  C_7
REMARK    4  A    between atoms: C_8  and  C_9
REMARK    5  A    between atoms: C_12  and  C_30
REMARK    6  A    between atoms: C_18  and  C_19
REMARK    7  A    between atoms: C_20  and  C_21
REMARK    8  A    between atoms: C_21  and  C_23
REMARK    9  A    between atoms: C_21  and  C_24
REMARK   10  A    between atoms: C_24  and  C_25
REMARK                            x       y       z     vdW  Elec       q    Type
REMARK                         _______ _______ _______ _____ _____    ______ ____
ROOT
ATOM      1  O   LIG A   1      -7.768   0.419 123.394  0.00  0.00    -0.250 OA
ATOM      2  C   LIG A   1      -7.707   0.301 124.613  0.00  0.00    +0.320 C 
ATOM      3  C   LIG A   1      -7.523  -1.001 125.346  0.00  0.00    +0.180 C 
ATOM      4  O   LIG A   1      -7.852   1.355 125.476  0.00  0.00    -0.449 OA
ATOM      5  C   LIG A   1      -7.486   0.928 126.783  0.00  0.00    +0.181 C 
ATOM      6  C   LIG A   1      -7.898  -0.538 126.756  0.00  0.00    +0.095 C 
ATOM      7  C   LIG A   1      -7.586  -1.271 128.025  0.00  0.00    +0.005 C 
ATOM      8  C   LIG A   1      -7.328  -2.587 128.106  0.00  0.00    +0.200 C 
ATOM      9  O   LIG A   1      -7.084  -3.260 129.285  0.00  0.00    -0.463 OA
ATOM     10  C   LIG A   1      -7.112  -2.542 130.472  0.00  0.00    +0.128 C 
ATOM     11  C   LIG A   1      -7.384  -1.225 130.528  0.00  0.00    +0.056 C 
ATOM     12  C   LIG A   1      -7.682  -0.501 129.290  0.00  0.00    +0.007 C 
ATOM     13  C   LIG A   1      -8.040   0.805 129.284  0.00  0.00    +0.095 C 
ATOM     14 CL   LIG A   1      -8.244   1.774 130.701  0.00  0.00    -0.079 Cl
ATOM     15  C   LIG A   1      -6.015   1.325 126.981  0.00  0.00    +0.065 C 
ATOM     16  C   LIG A   1      -8.251   1.520 127.973  0.00  0.00    +0.218 C 
ATOM     17  O   LIG A   1      -8.972   2.509 127.880  0.00  0.00    -0.287 OA
ENDROOT
BRANCH   3  18
ATOM     18  C   LIG A   1      -6.142  -1.602 125.170  0.00  0.00    +0.173 C 
ATOM     19  O   LIG A   1      -5.140  -1.011 125.573  0.00  0.00    -0.291 OA
BRANCH  18  20
ATOM     20  C   LIG A   1      -5.974  -2.978 124.564  0.00  0.00    -0.011 C 
ATOM     21  C   LIG A   1      -7.244  -3.781 124.446  0.00  0.00    +0.047 C 
ATOM     22  C   LIG A   1      -4.780  -3.449 124.155  0.00  0.00    -0.024 C 
ATOM     23  C   LIG A   1      -4.521  -4.814 123.583  0.00  0.00    +0.035 C 
ENDBRANCH  18  20
ENDBRANCH   3  18
BRANCH  10  24
ATOM     24  C   LIG A   1      -6.778  -3.339 131.621  0.00  0.00    +0.042 C 
ATOM     25  C   LIG A   1      -5.703  -4.138 131.699  0.00  0.00    -0.020 C 
BRANCH  25  26
ATOM     26  C   LIG A   1      -5.333  -4.995 132.890  0.00  0.00    +0.008 C 
ATOM     27  C   LIG A   1      -3.810  -4.999 133.050  0.00  0.00    +0.012 C 
BRANCH  26  28
ATOM     28  C   LIG A   1      -6.020  -4.598 134.213  0.00  0.00    +0.004 C 
ATOM     29  C   LIG A   1      -6.734  -5.766 134.889  0.00  0.00    +0.004 C 
ENDBRANCH  26  28
ENDBRANCH  25  26
ENDBRANCH  10  24
TORSDOF 5
ENDMDL
MODEL 3
REMARK VINA RESULT:      -8.0      5.172      8.656
REMARK  Name = NuBBE_678
REMARK  10 active torsions:
REMARK  status: ('A' for Active; 'I' for Inactive)
REMARK    1  A    between atoms: C_3  and  C_5
REMARK    2  A    between atoms: C_5  and  C_6
REMARK    3  A    between atoms: C_6  and  C_7
REMARK    4  A    between atoms: C_8  and  C_9
REMARK    5  A    between atoms: C_12  and  C_30
REMARK    6  A    between atoms: C_18  and  C_19
REMARK    7  A    between atoms: C_20  and  C_21
REMARK    8  A    between atoms: C_21  and  C_23
REMARK    9  A    between atoms: C_21  and  C_24
REMARK   10  A    between atoms: C_24  and  C_25
REMARK                            x       y       z     vdW  Elec       q    Type
REMARK                         _______ _______ _______ _____ _____    ______ ____
ROOT
ATOM      1  O   LIG A   1     -10.208   6.464 132.959  0.00  0.00    -0.250 OA
ATOM      2  C   LIG A   1      -9.387   6.013 132.169  0.00  0.00    +0.320 C 
ATOM      3  C   LIG A   1      -9.632   5.789 130.701  0.00  0.00    +0.180 C 
ATOM      4  O   LIG A   1      -8.135   5.600 132.543  0.00  0.00    -0.449 OA
ATOM      5  C   LIG A   1      -7.361   5.370 131.372  0.00  0.00    +0.181 C 
ATOM      6  C   LIG A   1      -8.424   4.903 130.386  0.00  0.00    +0.095 C 
ATOM      7  C   LIG A   1      -7.887   4.617 129.017  0.00  0.00    +0.005 C 
ATOM      8  C   LIG A   1      -8.592   4.727 127.879  0.00  0.00    +0.200 C 
ATOM      9  O   LIG A   1      -8.101   4.420 126.628  0.00  0.00    -0.463 OA
ATOM     10  C   LIG A   1      -6.796   3.959 126.527  0.00  0.00    +0.128 C 
ATOM     11  C   LIG A   1      -5.995   3.781 127.594  0.00  0.00    +0.056 C 
ATOM     12  C   LIG A   1      -6.511   4.066 128.934  0.00  0.00    +0.007 C 
ATOM     13  C   LIG A   1      -5.785   3.834 130.054  0.00  0.00    +0.095 C 
ATOM     14 CL   LIG A   1      -4.204   3.137 130.072  0.00  0.00    -0.079 Cl
ATOM     15  C   LIG A   1      -6.560   6.654 131.111  0.00  0.00    +0.065 C 
ATOM     16  C   LIG A   1      -6.337   4.228 131.401  0.00  0.00    +0.218 C 
ATOM     17  O   LIG A   1      -5.976   3.679 132.438  0.00  0.00    -0.287 OA
ENDROOT
BRANCH   3  18
ATOM     18  C   LIG A   1      -9.760   7.076 129.908  0.00  0.00    +0.173 C 
ATOM     19  O   LIG A   1      -8.853   7.908 129.906  0.00  0.00    -0.291 OA
BRANCH  18  20
ATOM     20  C   LIG A   1     -10.974   7.328 129.041  0.00  0.00    -0.011 C 
ATOM     21  C   LIG A   1     -10.769   8.329 127.934  0.00  0.00    +0.047 C 
ATOM     22  C   LIG A   1     -12.149   6.700 129.240  0.00  0.00    -0.024 C 
ATOM     23  C   LIG A   1     -13.410   6.922 128.453  0.00  0.00    +0.035 C 
ENDBRANCH  18  20
ENDBRANCH   3  18
BRANCH  10  24
ATOM     24  C   LIG A   1      -6.379   3.736 125.168  0.00  0.00    +0.042 C 
ATOM     25  C   LIG A   1      -7.205   3.364 124.178  0.00  0.00    -0.020 C 
BRANCH  25  26
ATOM     26  C   LIG A   1      -6.794   3.112 122.744  0.00  0.00    +0.008 C 
ATOM     27  C   LIG A   1      -8.009   3.310 121.833  0.00  0.00    +0.012 C 
BRANCH  26  28
ATOM     28  C   LIG A   1      -5.601   3.959 122.253  0.00  0.00    +0.004 C 
ATOM     29  C   LIG A   1      -5.484   4.001 120.732  0.00  0.00    +0.004 C 
ENDBRANCH  26  28
ENDBRANCH  25  26
ENDBRANCH  10  24
TORSDOF 5
ENDMDL
MODEL 4
REMARK VINA RESULT:      -7.9      2.596      6.225
REMARK  Name = NuBBE_678
REMARK  10 active torsions:
REMARK  status: ('A' for Active; 'I' for Inactive)
REMARK    1  A    between atoms: C_3  and  C_5
REMARK    2  A    between atoms: C_5  and  C_6
REMARK    3  A    between atoms: C_6  and  C_7
REMARK    4  A    between atoms: C_8  and  C_9
REMARK    5  A    between atoms: C_12  and  C_30
REMARK    6  A    between atoms: C_18  and  C_19
REMARK    7  A    between atoms: C_20  and  C_21
REMARK    8  A    between atoms: C_21  and  C_23
REMARK    9  A    between atoms: C_21  and  C_24
REMARK   10  A    between atoms: C_24  and  C_25
REMARK                            x       y       z     vdW  Elec       q    Type
REMARK                         _______ _______ _______ _____ _____    ______ ____
ROOT
ATOM      1  O   LIG A   1      -9.821  -2.768 125.446  0.00  0.00    -0.250 OA
ATOM      2  C   LIG A   1      -9.086  -1.793 125.337  0.00  0.00    +0.320 C 
ATOM      3  C   LIG A   1      -8.193  -1.259 126.423  0.00  0.00    +0.180 C 
ATOM      4  O   LIG A   1      -9.025  -1.023 124.204  0.00  0.00    -0.449 OA
ATOM      5  C   LIG A   1      -7.915  -0.141 124.312  0.00  0.00    +0.181 C 
ATOM      6  C   LIG A   1      -7.861   0.106 125.814  0.00  0.00    +0.095 C 
ATOM      7  C   LIG A   1      -6.732   0.997 126.235  0.00  0.00    +0.005 C 
ATOM      8  C   LIG A   1      -6.125   0.950 127.432  0.00  0.00    +0.200 C 
ATOM      9  O   LIG A   1      -5.115   1.804 127.825  0.00  0.00    -0.463 OA
ATOM     10  C   LIG A   1      -4.695   2.782 126.935  0.00  0.00    +0.128 C 
ATOM     11  C   LIG A   1      -5.240   2.948 125.715  0.00  0.00    +0.056 C 
ATOM     12  C   LIG A   1      -6.339   2.076 125.295  0.00  0.00    +0.007 C 
ATOM     13  C   LIG A   1      -6.982   2.241 124.115  0.00  0.00    +0.095 C 
ATOM     14 CL   LIG A   1      -6.647   3.502 122.981  0.00  0.00    -0.079 Cl
ATOM     15  C   LIG A   1      -6.741  -0.814 123.586  0.00  0.00    +0.065 C 
ATOM     16  C   LIG A   1      -8.048   1.259 123.698  0.00  0.00    +0.218 C 
ATOM     17  O   LIG A   1      -8.943   1.563 122.914  0.00  0.00    -0.287 OA
ENDROOT
BRANCH   3  18
ATOM     18  C   LIG A   1      -7.021  -2.167 126.742  0.00  0.00    +0.173 C 
ATOM     19  O   LIG A   1      -6.295  -2.597 125.845  0.00  0.00    -0.291 OA
BRANCH  18  20
ATOM     20  C   LIG A   1      -6.673  -2.500 128.175  0.00  0.00    -0.011 C 
ATOM     21  C   LIG A   1      -5.198  -2.534 128.482  0.00  0.00    +0.047 C 
ATOM     22  C   LIG A   1      -7.611  -2.743 129.111  0.00  0.00    -0.024 C 
ATOM     23  C   LIG A   1      -7.351  -3.119 130.542  0.00  0.00    +0.035 C 
ENDBRANCH  18  20
ENDBRANCH   3  18
BRANCH  10  24
ATOM     24  C   LIG A   1      -3.595   3.563 127.433  0.00  0.00    +0.042 C 
ATOM     25  C   LIG A   1      -3.699   4.471 128.417  0.00  0.00    -0.020 C 
BRANCH  25  26
ATOM     26  C   LIG A   1      -2.563   5.314 128.953  0.00  0.00    +0.008 C 
ATOM     27  C   LIG A   1      -2.515   6.636 128.182  0.00  0.00    +0.012 C 
BRANCH  26  28
ATOM     28  C   LIG A   1      -2.608   5.571 130.474  0.00  0.00    +0.004 C 
ATOM     29  C   LIG A   1      -1.407   6.365 130.981  0.00  0.00    +0.004 C 
ENDBRANCH  26  28
ENDBRANCH  25  26
ENDBRANCH  10  24
TORSDOF 5
ENDMDL
MODEL 5
REMARK VINA RESULT:      -7.8      2.564      4.578
REMARK  Name = NuBBE_678
REMARK  10 active torsions:
REMARK  status: ('A' for Active; 'I' for Inactive)
REMARK    1  A    between atoms: C_3  and  C_5
REMARK    2  A    between atoms: C_5  and  C_6
REMARK    3  A    between atoms: C_6  and  C_7
REMARK    4  A    between atoms: C_8  and  C_9
REMARK    5  A    between atoms: C_12  and  C_30
REMARK    6  A    between atoms: C_18  and  C_19
REMARK    7  A    between atoms: C_20  and  C_21
REMARK    8  A    between atoms: C_21  and  C_23
REMARK    9  A    between atoms: C_21  and  C_24
REMARK   10  A    between atoms: C_24  and  C_25
REMARK                            x       y       z     vdW  Elec       q    Type
REMARK                         _______ _______ _______ _____ _____    ______ ____
ROOT
ATOM      1  O   LIG A   1      -8.994   2.821 121.955  0.00  0.00    -0.250 OA
ATOM      2  C   LIG A   1      -8.691   2.658 123.131  0.00  0.00    +0.320 C 
ATOM      3  C   LIG A   1      -8.734   1.341 123.859  0.00  0.00    +0.180 C 
ATOM      4  O   LIG A   1      -8.316   3.684 123.958  0.00  0.00    -0.449 OA
ATOM      5  C   LIG A   1      -7.800   3.133 125.164  0.00  0.00    +0.181 C 
ATOM      6  C   LIG A   1      -8.619   1.857 125.296  0.00  0.00    +0.095 C 
ATOM      7  C   LIG A   1      -8.253   1.030 126.491  0.00  0.00    +0.005 C 
ATOM      8  C   LIG A   1      -8.381  -0.305 126.568  0.00  0.00    +0.200 C 
ATOM      9  O   LIG A   1      -8.081  -1.051 127.689  0.00  0.00    -0.463 OA
ATOM     10  C   LIG A   1      -7.621  -0.389 128.818  0.00  0.00    +0.128 C 
ATOM     11  C   LIG A   1      -7.473   0.948 128.877  0.00  0.00    +0.056 C 
ATOM     12  C   LIG A   1      -7.823   1.760 127.710  0.00  0.00    +0.007 C 
ATOM     13  C   LIG A   1      -7.771   3.114 127.728  0.00  0.00    +0.095 C 
ATOM     14 CL   LIG A   1      -7.348   4.062 129.111  0.00  0.00    -0.079 Cl
ATOM     15  C   LIG A   1      -6.273   3.071 125.004  0.00  0.00    +0.065 C 
ATOM     16  C   LIG A   1      -8.060   3.893 126.471  0.00  0.00    +0.218 C 
ATOM     17  O   LIG A   1      -8.459   5.054 126.501  0.00  0.00    -0.287 OA
ENDROOT
BRANCH   3  18
ATOM     18  C   LIG A   1      -7.671   0.362 123.399  0.00  0.00    +0.173 C 
ATOM     19  O   LIG A   1      -6.566   0.759 123.027  0.00  0.00    -0.291 OA
BRANCH  18  20
ATOM     20  C   LIG A   1      -7.920  -1.128 123.460  0.00  0.00    -0.011 C 
ATOM     21  C   LIG A   1      -6.695  -1.969 123.717  0.00  0.00    +0.047 C 
ATOM     22  C   LIG A   1      -9.145  -1.666 123.302  0.00  0.00    -0.024 C 
ATOM     23  C   LIG A   1      -9.471  -3.133 123.308  0.00  0.00    +0.035 C 
ENDBRANCH  18  20
ENDBRANCH   3  18
BRANCH  10  24
ATOM     24  C   LIG A   1      -7.281  -1.279 129.895  0.00  0.00    +0.042 C 
ATOM     25  C   LIG A   1      -7.156  -2.609 129.763  0.00  0.00    -0.020 C 
BRANCH  25  26
ATOM     26  C   LIG A   1      -6.810  -3.570 130.879  0.00  0.00    +0.008 C 
ATOM     27  C   LIG A   1      -5.679  -4.491 130.413  0.00  0.00    +0.012 C 
BRANCH  26  28
ATOM     28  C   LIG A   1      -6.451  -2.902 132.223  0.00  0.00    +0.004 C 
ATOM     29  C   LIG A   1      -7.498  -3.142 133.307  0.00  0.00    +0.004 C 
ENDBRANCH  26  28
ENDBRANCH  25  26
ENDBRANCH  10  24
TORSDOF 5
ENDMDL
MODEL 6
REMARK VINA RESULT:      -7.7      7.449     10.802
REMARK  Name = NuBBE_678
REMARK  10 active torsions:
REMARK  status: ('A' for Active; 'I' for Inactive)
REMARK    1  A    between atoms: C_3  and  C_5
REMARK    2  A    between atoms: C_5  and  C_6
REMARK    3  A    between atoms: C_6  and  C_7
REMARK    4  A    between atoms: C_8  and  C_9
REMARK    5  A    between atoms: C_12  and  C_30
REMARK    6  A    between atoms: C_18  and  C_19
REMARK    7  A    between atoms: C_20  and  C_21
REMARK    8  A    between atoms: C_21  and  C_23
REMARK    9  A    between atoms: C_21  and  C_24
REMARK   10  A    between atoms: C_24  and  C_25
REMARK                            x       y       z     vdW  Elec       q    Type
REMARK                         _______ _______ _______ _____ _____    ______ ____
ROOT
ATOM      1  O   LIG A   1      -1.037   4.567 132.833  0.00  0.00    -0.250 OA
ATOM      2  C   LIG A   1      -2.249   4.738 132.898  0.00  0.00    +0.320 C 
ATOM      3  C   LIG A   1      -3.081   5.432 131.854  0.00  0.00    +0.180 C 
ATOM      4  O   LIG A   1      -3.003   4.353 133.975  0.00  0.00    -0.449 OA
ATOM      5  C   LIG A   1      -4.379   4.466 133.633  0.00  0.00    +0.181 C 
ATOM      6  C   LIG A   1      -4.362   5.642 132.666  0.00  0.00    +0.095 C 
ATOM      7  C   LIG A   1      -5.708   5.972 132.099  0.00  0.00    +0.005 C 
ATOM      8  C   LIG A   1      -5.917   6.534 130.897  0.00  0.00    +0.200 C 
ATOM      9  O   LIG A   1      -7.159   6.873 130.402  0.00  0.00    -0.463 OA
ATOM     10  C   LIG A   1      -8.273   6.627 131.192  0.00  0.00    +0.128 C 
ATOM     11  C   LIG A   1      -8.196   6.092 132.425  0.00  0.00    +0.056 C 
ATOM     12  C   LIG A   1      -6.882   5.761 132.982  0.00  0.00    +0.007 C 
ATOM     13  C   LIG A   1      -6.729   5.293 134.244  0.00  0.00    +0.095 C 
ATOM     14 CL   LIG A   1      -8.018   5.073 135.374  0.00  0.00    -0.079 Cl
ATOM     15  C   LIG A   1      -4.835   3.075 133.166  0.00  0.00    +0.065 C 
ATOM     16  C   LIG A   1      -5.361   4.888 134.733  0.00  0.00    +0.218 C 
ATOM     17  O   LIG A   1      -5.070   4.886 135.926  0.00  0.00    -0.287 OA
ENDROOT
BRANCH   3  18
ATOM     18  C   LIG A   1      -3.212   4.645 130.564  0.00  0.00    +0.173 C 
ATOM     19  O   LIG A   1      -3.596   3.475 130.576  0.00  0.00    -0.291 OA
BRANCH  18  20
ATOM     20  C   LIG A   1      -2.948   5.305 129.229  0.00  0.00    -0.011 C 
ATOM     21  C   LIG A   1      -3.305   4.472 128.025  0.00  0.00    +0.047 C 
ATOM     22  C   LIG A   1      -2.438   6.547 129.124  0.00  0.00    -0.024 C 
ATOM     23  C   LIG A   1      -2.109   7.258 127.841  0.00  0.00    +0.035 C 
ENDBRANCH  18  20
ENDBRANCH   3  18
BRANCH  10  24
ATOM     24  C   LIG A   1      -9.511   6.962 130.542  0.00  0.00    +0.042 C 
ATOM     25  C   LIG A   1     -10.724   6.776 131.087  0.00  0.00    -0.020 C 
BRANCH  25  26
ATOM     26  C   LIG A   1     -12.042   7.108 130.423  0.00  0.00    +0.008 C 
ATOM     27  C   LIG A   1     -13.005   7.664 131.475  0.00  0.00    +0.012 C 
BRANCH  26  28
ATOM     28  C   LIG A   1     -11.938   8.065 129.217  0.00  0.00    +0.004 C 
ATOM     29  C   LIG A   1     -12.282   7.394 127.890  0.00  0.00    +0.004 C 
ENDBRANCH  26  28
ENDBRANCH  25  26
ENDBRANCH  10  24
TORSDOF 5
ENDMDL
MODEL 7
REMARK VINA RESULT:      -7.6      3.515      6.283
REMARK  Name = NuBBE_678
REMARK  10 active torsions:
REMARK  status: ('A' for Active; 'I' for Inactive)
REMARK    1  A    between atoms: C_3  and  C_5
REMARK    2  A    between atoms: C_5  and  C_6
REMARK    3  A    between atoms: C_6  and  C_7
REMARK    4  A    between atoms: C_8  and  C_9
REMARK    5  A    between atoms: C_12  and  C_30
REMARK    6  A    between atoms: C_18  and  C_19
REMARK    7  A    between atoms: C_20  and  C_21
REMARK    8  A    between atoms: C_21  and  C_23
REMARK    9  A    between atoms: C_21  and  C_24
REMARK   10  A    between atoms: C_24  and  C_25
REMARK                            x       y       z     vdW  Elec       q    Type
REMARK                         _______ _______ _______ _____ _____    ______ ____
ROOT
ATOM      1  O   LIG A   1      -6.329  -2.341 123.317  0.00  0.00    -0.250 OA
ATOM      2  C   LIG A   1      -6.605  -1.906 124.429  0.00  0.00    +0.320 C 
ATOM      3  C   LIG A   1      -7.154  -0.532 124.707  0.00  0.00    +0.180 C 
ATOM      4  O   LIG A   1      -6.396  -2.614 125.584  0.00  0.00    -0.449 OA
ATOM      5  C   LIG A   1      -7.043  -1.938 126.656  0.00  0.00    +0.181 C 
ATOM      6  C   LIG A   1      -6.925  -0.484 126.221  0.00  0.00    +0.095 C 
ATOM      7  C   LIG A   1      -7.572   0.480 127.168  0.00  0.00    +0.005 C 
ATOM      8  C   LIG A   1      -8.091   1.668 126.817  0.00  0.00    +0.200 C 
ATOM      9  O   LIG A   1      -8.646   2.566 127.705  0.00  0.00    -0.463 OA
ATOM     10  C   LIG A   1      -8.668   2.234 129.052  0.00  0.00    +0.128 C 
ATOM     11  C   LIG A   1      -8.157   1.086 129.534  0.00  0.00    +0.056 C 
ATOM     12  C   LIG A   1      -7.530   0.136 128.612  0.00  0.00    +0.007 C 
ATOM     13  C   LIG A   1      -6.929  -0.999 129.040  0.00  0.00    +0.095 C 
ATOM     14 CL   LIG A   1      -6.768  -1.460 130.698  0.00  0.00    -0.079 Cl
ATOM     15  C   LIG A   1      -8.420  -2.596 126.827  0.00  0.00    +0.065 C 
ATOM     16  C   LIG A   1      -6.376  -1.980 128.037  0.00  0.00    +0.218 C 
ATOM     17  O   LIG A   1      -5.471  -2.760 128.319  0.00  0.00    -0.287 OA
ENDROOT
BRANCH   3  18
ATOM     18  C   LIG A   1      -8.579  -0.343 124.226  0.00  0.00    +0.173 C 
ATOM     19  O   LIG A   1      -9.480  -1.087 124.615  0.00  0.00    -0.291 OA
BRANCH  18  20
ATOM     20  C   LIG A   1      -8.937   0.813 123.318  0.00  0.00    -0.011 C 
ATOM     21  C   LIG A   1     -10.233   0.653 122.565  0.00  0.00    +0.047 C 
ATOM     22  C   LIG A   1      -8.160   1.906 123.195  0.00  0.00    -0.024 C 
ATOM     23  C   LIG A   1      -8.421   3.075 122.289  0.00  0.00    +0.035 C 
ENDBRANCH  18  20
ENDBRANCH   3  18
BRANCH  10  24
ATOM     24  C   LIG A   1      -9.329   3.218 129.866  0.00  0.00    +0.042 C 
ATOM     25  C   LIG A   1      -8.905   4.483 130.012  0.00  0.00    -0.020 C 
BRANCH  25  26
ATOM     26  C   LIG A   1      -9.573   5.536 130.869  0.00  0.00    +0.008 C 
ATOM     27  C   LIG A   1      -9.670   5.022 132.308  0.00  0.00    +0.012 C 
BRANCH  26  28
ATOM     28  C   LIG A   1      -8.903   6.926 130.829  0.00  0.00    +0.004 C 
ATOM     29  C   LIG A   1      -7.401   6.871 131.096  0.00  0.00    +0.004 C 
ENDBRANCH  26  28
ENDBRANCH  25  26
ENDBRANCH  10  24
TORSDOF 5
ENDMDL
MODEL 8
REMARK VINA RESULT:      -7.5      7.611      9.910
REMARK  Name = NuBBE_678
REMARK  10 active torsions:
REMARK  status: ('A' for Active; 'I' for Inactive)
REMARK    1  A    between atoms: C_3  and  C_5
REMARK    2  A    between atoms: C_5  and  C_6
REMARK    3  A    between atoms: C_6  and  C_7
REMARK    4  A    between atoms: C_8  and  C_9
REMARK    5  A    between atoms: C_12  and  C_30
REMARK    6  A    between atoms: C_18  and  C_19
REMARK    7  A    between atoms: C_20  and  C_21
REMARK    8  A    between atoms: C_21  and  C_23
REMARK    9  A    between atoms: C_21  and  C_24
REMARK   10  A    between atoms: C_24  and  C_25
REMARK                            x       y       z     vdW  Elec       q    Type
REMARK                         _______ _______ _______ _____ _____    ______ ____
ROOT
ATOM      1  O   LIG A   1     -11.234   3.562 130.166  0.00  0.00    -0.250 OA
ATOM      2  C   LIG A   1     -10.219   3.639 130.849  0.00  0.00    +0.320 C 
ATOM      3  C   LIG A   1      -9.194   4.737 130.753  0.00  0.00    +0.180 C 
ATOM      4  O   LIG A   1      -9.862   2.690 131.770  0.00  0.00    -0.449 OA
ATOM      5  C   LIG A   1      -8.787   3.195 132.553  0.00  0.00    +0.181 C 
ATOM      6  C   LIG A   1      -8.062   4.080 131.549  0.00  0.00    +0.095 C 
ATOM      7  C   LIG A   1      -6.875   4.791 132.123  0.00  0.00    +0.005 C 
ATOM      8  C   LIG A   1      -6.409   5.975 131.692  0.00  0.00    +0.200 C 
ATOM      9  O   LIG A   1      -5.289   6.600 132.200  0.00  0.00    -0.463 OA
ATOM     10  C   LIG A   1      -4.588   5.971 133.219  0.00  0.00    +0.128 C 
ATOM     11  C   LIG A   1      -4.938   4.773 133.721  0.00  0.00    +0.056 C 
ATOM     12  C   LIG A   1      -6.102   4.076 133.168  0.00  0.00    +0.007 C 
ATOM     13  C   LIG A   1      -6.462   2.835 133.574  0.00  0.00    +0.095 C 
ATOM     14 CL   LIG A   1      -5.595   1.890 134.734  0.00  0.00    -0.079 Cl
ATOM     15  C   LIG A   1      -9.409   3.796 133.823  0.00  0.00    +0.065 C 
ATOM     16  C   LIG A   1      -7.718   2.203 133.031  0.00  0.00    +0.218 C 
ATOM     17  O   LIG A   1      -7.871   0.985 132.993  0.00  0.00    -0.287 OA
ENDROOT
BRANCH   3  18
ATOM     18  C   LIG A   1      -9.694   6.077 131.257  0.00  0.00    +0.173 C 
ATOM     19  O   LIG A   1      -9.401   6.476 132.384  0.00  0.00    -0.291 OA
BRANCH  18  20
ATOM     20  C   LIG A   1     -10.501   6.985 130.356  0.00  0.00    -0.011 C 
ATOM     21  C   LIG A   1     -11.966   7.082 130.696  0.00  0.00    +0.047 C 
ATOM     22  C   LIG A   1      -9.952   7.661 129.328  0.00  0.00    -0.024 C 
ATOM     23  C   LIG A   1     -10.687   8.548 128.364  0.00  0.00    +0.035 C 
ENDBRANCH  18  20
ENDBRANCH   3  18
BRANCH  10  24
ATOM     24  C   LIG A   1      -3.483   6.751 133.708  0.00  0.00    +0.042 C 
ATOM     25  C   LIG A   1      -2.865   7.711 133.001  0.00  0.00    -0.020 C 
BRANCH  25  26
ATOM     26  C   LIG A   1      -1.695   8.538 133.485  0.00  0.00    +0.008 C 
ATOM     27  C   LIG A   1      -0.392   7.859 133.056  0.00  0.00    +0.012 C 
BRANCH  26  28
ATOM     28  C   LIG A   1      -1.715  10.014 133.036  0.00  0.00    +0.004 C 
ATOM     29  C   LIG A   1      -0.426  10.759 133.376  0.00  0.00    +0.004 C 
ENDBRANCH  26  28
ENDBRANCH  25  26
ENDBRANCH  10  24
TORSDOF 5
ENDMDL
MODEL 9
REMARK VINA RESULT:      -7.5      4.387      6.787
REMARK  Name = NuBBE_678
REMARK  10 active torsions:
REMARK  status: ('A' for Active; 'I' for Inactive)
REMARK    1  A    between atoms: C_3  and  C_5
REMARK    2  A    between atoms: C_5  and  C_6
REMARK    3  A    between atoms: C_6  and  C_7
REMARK    4  A    between atoms: C_8  and  C_9
REMARK    5  A    between atoms: C_12  and  C_30
REMARK    6  A    between atoms: C_18  and  C_19
REMARK    7  A    between atoms: C_20  and  C_21
REMARK    8  A    between atoms: C_21  and  C_23
REMARK    9  A    between atoms: C_21  and  C_24
REMARK   10  A    between atoms: C_24  and  C_25
REMARK                            x       y       z     vdW  Elec       q    Type
REMARK                         _______ _______ _______ _____ _____    ______ ____
ROOT
ATOM      1  O   LIG A   1      -9.235   2.605 133.004  0.00  0.00    -0.250 OA
ATOM      2  C   LIG A   1      -8.700   1.708 132.362  0.00  0.00    +0.320 C 
ATOM      3  C   LIG A   1      -8.583   1.672 130.862  0.00  0.00    +0.180 C 
ATOM      4  O   LIG A   1      -8.177   0.581 132.940  0.00  0.00    -0.449 OA
ATOM      5  C   LIG A   1      -7.424  -0.126 131.962  0.00  0.00    +0.181 C 
ATOM      6  C   LIG A   1      -8.188   0.203 130.686  0.00  0.00    +0.095 C 
ATOM      7  C   LIG A   1      -7.581  -0.394 129.454  0.00  0.00    +0.005 C 
ATOM      8  C   LIG A   1      -7.678   0.130 128.221  0.00  0.00    +0.200 C 
ATOM      9  O   LIG A   1      -7.152  -0.451 127.085  0.00  0.00    -0.463 OA
ATOM     10  C   LIG A   1      -6.481  -1.659 127.214  0.00  0.00    +0.128 C 
ATOM     11  C   LIG A   1      -6.338  -2.299 128.389  0.00  0.00    +0.056 C 
ATOM     12  C   LIG A   1      -6.923  -1.717 129.599  0.00  0.00    +0.007 C 
ATOM     13  C   LIG A   1      -6.882  -2.346 130.797  0.00  0.00    +0.095 C 
ATOM     14 CL   LIG A   1      -6.199  -3.912 131.062  0.00  0.00    -0.079 Cl
ATOM     15  C   LIG A   1      -5.960   0.307 132.133  0.00  0.00    +0.065 C 
ATOM     16  C   LIG A   1      -7.425  -1.659 132.025  0.00  0.00    +0.218 C 
ATOM     17  O   LIG A   1      -7.821  -2.288 133.002  0.00  0.00    -0.287 OA
ENDROOT
BRANCH   3  18
ATOM     18  C   LIG A   1      -7.624   2.707 130.306  0.00  0.00    +0.173 C 
ATOM     19  O   LIG A   1      -6.407   2.578 130.443  0.00  0.00    -0.291 OA
BRANCH  18  20
ATOM     20  C   LIG A   1      -8.141   3.882 129.505  0.00  0.00    -0.011 C 
ATOM     21  C   LIG A   1      -7.494   4.066 128.156  0.00  0.00    +0.047 C 
ATOM     22  C   LIG A   1      -9.110   4.699 129.959  0.00  0.00    -0.024 C 
ATOM     23  C   LIG A   1      -9.649   5.907 129.247  0.00  0.00    +0.035 C 
ENDBRANCH  18  20
ENDBRANCH   3  18
BRANCH  10  24
ATOM     24  C   LIG A   1      -5.923  -2.129 125.974  0.00  0.00    +0.042 C 
ATOM     25  C   LIG A   1      -6.644  -2.382 124.870  0.00  0.00    -0.020 C 
BRANCH  25  26
ATOM     26  C   LIG A   1      -6.085  -2.886 123.558  0.00  0.00    +0.008 C 
ATOM     27  C   LIG A   1      -6.336  -1.836 122.471  0.00  0.00    +0.012 C 
BRANCH  26  28
ATOM     28  C   LIG A   1      -4.595  -3.285 123.597  0.00  0.00    +0.004 C 
ATOM     29  C   LIG A   1      -4.381  -4.796 123.551  0.00  0.00    +0.004 C 
ENDBRANCH  26  28
ENDBRANCH  25  26
ENDBRANCH  10  24
TORSDOF 5
ENDMDL
