MODEL 1
REMARK VINA RESULT:      -8.6      0.000      0.000
REMARK  Name = NuBBE_908
REMARK  7 active torsions:
REMARK  status: ('A' for Active; 'I' for Inactive)
REMARK    1  A    between atoms: C_1  and  C_2
REMARK    2  A    between atoms: C_8  and  C_10
REMARK    3  A    between atoms: C_17  and  C_18
REMARK    4  A    between atoms: C_22  and  C_23
REMARK    5  A    between atoms: C_22  and  C_24
REMARK    6  A    between atoms: C_25  and  O_27
REMARK    7  A    between atoms: C_30  and  C_31
REMARK                            x       y       z     vdW  Elec       q    Type
REMARK                         _______ _______ _______ _____ _____    ______ ____
ROOT
ATOM      1  C   LIG A   1      -5.149  -4.339 130.217  0.00  0.00    +0.018 C 
ATOM      2  C   LIG A   1      -5.697  -3.694 131.525  0.00  0.00    +0.042 C 
ATOM      3  C   LIG A   1      -4.822  -2.475 131.914  0.00  0.00    +0.128 C 
ATOM      4  C   LIG A   1      -3.608  -2.823 132.812  0.00  0.00    +0.260 C 
ATOM      5  C   LIG A   1      -3.289  -4.216 133.205  0.00  0.00    +0.340 C 
ATOM      6  O   LIG A   1      -4.242  -5.157 132.967  0.00  0.00    -0.454 OA
ATOM      7  C   LIG A   1      -5.597  -4.758 132.678  0.00  0.00    +0.218 C 
ATOM      8  O   LIG A   1      -2.193  -4.501 133.669  0.00  0.00    -0.248 OA
ATOM      9  O   LIG A   1      -3.456  -2.616 131.420  0.00  0.00    -0.351 OA
ATOM     10  C   LIG A   1      -5.326  -1.002 131.622  0.00  0.00    +0.062 C 
ATOM     11  C   LIG A   1      -4.664  -0.536 130.301  0.00  0.00    +0.022 C 
ATOM     12  C   LIG A   1      -4.957   0.006 132.726  0.00  0.00    +0.143 C 
ATOM     13  C   LIG A   1      -5.445   1.432 132.540  0.00  0.00    +0.079 C 
ATOM     14  C   LIG A   1      -6.978   1.399 132.623  0.00  0.00    +0.010 C 
ATOM     15  C   LIG A   1      -7.669   2.793 132.846  0.00  0.00    -0.005 C 
ATOM     16  C   LIG A   1      -7.115   3.449 134.142  0.00  0.00    +0.014 C 
ATOM     17  C   LIG A   1      -7.408   3.805 131.713  0.00  0.00    +0.014 C 
ATOM     18  C   LIG A   1      -9.195   2.553 133.056  0.00  0.00    +0.120 C 
ATOM     19  C   LIG A   1      -9.833   1.685 131.976  0.00  0.00    +0.032 C 
ATOM     20  C   LIG A   1      -9.113   0.353 131.779  0.00  0.00    +0.010 C 
ATOM     21  C   LIG A   1      -7.586   0.488 131.485  0.00  0.00    -0.024 C 
ATOM     22  C   LIG A   1      -7.432   1.067 130.060  0.00  0.00    +0.012 C 
ATOM     23  C   LIG A   1      -6.898  -0.951 131.608  0.00  0.00    +0.011 C 
ATOM     24  C   LIG A   1      -7.438  -2.010 130.639  0.00  0.00    +0.006 C 
ATOM     25  C   LIG A   1      -7.190  -3.374 131.260  0.00  0.00    +0.014 C 
ATOM     26  O   LIG A   1      -4.432  -0.314 133.792  0.00  0.00    -0.297 OA
ENDROOT
BRANCH   7  27
ATOM     27  C   LIG A   1      -6.340  -4.455 133.959  0.00  0.00    +0.031 A 
ATOM     28  C   LIG A   1      -6.624  -3.235 134.544  0.00  0.00    +0.202 A 
ATOM     29  O   LIG A   1      -7.327  -3.398 135.694  0.00  0.00    -0.471 OA
ATOM     30  C   LIG A   1      -7.481  -4.731 135.881  0.00  0.00    +0.195 A 
ATOM     31  C   LIG A   1      -6.895  -5.426 134.851  0.00  0.00    +0.048 A 
ENDBRANCH   7  27
BRANCH  18  32
ATOM     32  O   LIG A   1      -9.921   3.781 133.091  0.00  0.00    -0.391 OA
ATOM     33  H   LIG A   1     -10.736   3.663 132.574  0.00  0.00    +0.210 HD
ENDBRANCH  18  32
TORSDOF 2
ENDMDL
MODEL 2
REMARK VINA RESULT:      -8.5      5.265      7.094
REMARK  Name = NuBBE_908
REMARK  7 active torsions:
REMARK  status: ('A' for Active; 'I' for Inactive)
REMARK    1  A    between atoms: C_1  and  C_2
REMARK    2  A    between atoms: C_8  and  C_10
REMARK    3  A    between atoms: C_17  and  C_18
REMARK    4  A    between atoms: C_22  and  C_23
REMARK    5  A    between atoms: C_22  and  C_24
REMARK    6  A    between atoms: C_25  and  O_27
REMARK    7  A    between atoms: C_30  and  C_31
REMARK                            x       y       z     vdW  Elec       q    Type
REMARK                         _______ _______ _______ _____ _____    ______ ____
ROOT
ATOM      1  C   LIG A   1      -9.285  -1.306 123.431  0.00  0.00    +0.018 C 
ATOM      2  C   LIG A   1      -8.622  -1.225 124.839  0.00  0.00    +0.042 C 
ATOM      3  C   LIG A   1      -7.143  -0.780 124.697  0.00  0.00    +0.128 C 
ATOM      4  C   LIG A   1      -6.145  -1.948 124.496  0.00  0.00    +0.260 C 
ATOM      5  C   LIG A   1      -6.588  -3.358 124.389  0.00  0.00    +0.340 C 
ATOM      6  O   LIG A   1      -7.876  -3.626 124.730  0.00  0.00    -0.454 OA
ATOM      7  C   LIG A   1      -8.644  -2.662 125.477  0.00  0.00    +0.218 C 
ATOM      8  O   LIG A   1      -5.834  -4.221 123.957  0.00  0.00    -0.248 OA
ATOM      9  O   LIG A   1      -6.590  -1.166 123.403  0.00  0.00    -0.351 OA
ATOM     10  C   LIG A   1      -6.723   0.714 125.012  0.00  0.00    +0.062 C 
ATOM     11  C   LIG A   1      -6.653   1.473 123.663  0.00  0.00    +0.022 C 
ATOM     12  C   LIG A   1      -5.353   0.835 125.704  0.00  0.00    +0.143 C 
ATOM     13  C   LIG A   1      -4.900   2.235 126.080  0.00  0.00    +0.079 C 
ATOM     14  C   LIG A   1      -5.862   2.746 127.163  0.00  0.00    +0.010 C 
ATOM     15  C   LIG A   1      -5.362   3.998 127.969  0.00  0.00    -0.005 C 
ATOM     16  C   LIG A   1      -3.992   3.679 128.632  0.00  0.00    +0.014 C 
ATOM     17  C   LIG A   1      -5.130   5.248 127.097  0.00  0.00    +0.014 C 
ATOM     18  C   LIG A   1      -6.383   4.282 129.113  0.00  0.00    +0.120 C 
ATOM     19  C   LIG A   1      -7.829   4.361 128.636  0.00  0.00    +0.032 C 
ATOM     20  C   LIG A   1      -8.262   3.133 127.837  0.00  0.00    +0.010 C 
ATOM     21  C   LIG A   1      -7.343   2.807 126.618  0.00  0.00    -0.024 C 
ATOM     22  C   LIG A   1      -7.580   3.897 125.547  0.00  0.00    +0.012 C 
ATOM     23  C   LIG A   1      -7.707   1.352 126.060  0.00  0.00    +0.011 C 
ATOM     24  C   LIG A   1      -9.152   1.190 125.574  0.00  0.00    +0.006 C 
ATOM     25  C   LIG A   1      -9.514  -0.281 125.685  0.00  0.00    +0.014 C 
ATOM     26  O   LIG A   1      -4.698  -0.132 126.090  0.00  0.00    -0.297 OA
ENDROOT
BRANCH   7  27
ATOM     27  C   LIG A   1      -8.324  -2.763 126.950  0.00  0.00    +0.031 A 
ATOM     28  C   LIG A   1      -7.511  -1.964 127.732  0.00  0.00    +0.202 A 
ATOM     29  O   LIG A   1      -7.502  -2.391 129.021  0.00  0.00    -0.471 OA
ATOM     30  C   LIG A   1      -8.289  -3.491 129.082  0.00  0.00    +0.195 A 
ATOM     31  C   LIG A   1      -8.816  -3.767 127.843  0.00  0.00    +0.048 A 
ENDBRANCH   7  27
BRANCH  18  32
ATOM     32  O   LIG A   1      -6.094   5.507 129.784  0.00  0.00    -0.391 OA
ATOM     33  H   LIG A   1      -5.384   5.338 130.426  0.00  0.00    +0.210 HD
ENDBRANCH  18  32
TORSDOF 2
ENDMDL
MODEL 3
REMARK VINA RESULT:      -8.3      6.541      9.001
REMARK  Name = NuBBE_908
REMARK  7 active torsions:
REMARK  status: ('A' for Active; 'I' for Inactive)
REMARK    1  A    between atoms: C_1  and  C_2
REMARK    2  A    between atoms: C_8  and  C_10
REMARK    3  A    between atoms: C_17  and  C_18
REMARK    4  A    between atoms: C_22  and  C_23
REMARK    5  A    between atoms: C_22  and  C_24
REMARK    6  A    between atoms: C_25  and  O_27
REMARK    7  A    between atoms: C_30  and  C_31
REMARK                            x       y       z     vdW  Elec       q    Type
REMARK                         _______ _______ _______ _____ _____    ______ ____
ROOT
ATOM      1  C   LIG A   1      -3.009   3.933 130.342  0.00  0.00    +0.018 C 
ATOM      2  C   LIG A   1      -4.434   4.269 129.810  0.00  0.00    +0.042 C 
ATOM      3  C   LIG A   1      -4.352   4.684 128.319  0.00  0.00    +0.128 C 
ATOM      4  C   LIG A   1      -4.111   6.198 128.092  0.00  0.00    +0.260 C 
ATOM      5  C   LIG A   1      -3.914   7.144 129.215  0.00  0.00    +0.340 C 
ATOM      6  O   LIG A   1      -4.209   6.690 130.463  0.00  0.00    -0.454 OA
ATOM      7  C   LIG A   1      -4.990   5.491 130.631  0.00  0.00    +0.218 C 
ATOM      8  O   LIG A   1      -3.454   8.262 129.021  0.00  0.00    -0.248 OA
ATOM      9  O   LIG A   1      -3.053   5.262 127.994  0.00  0.00    -0.351 OA
ATOM     10  C   LIG A   1      -4.761   3.663 127.180  0.00  0.00    +0.062 C 
ATOM     11  C   LIG A   1      -3.459   3.014 126.647  0.00  0.00    +0.022 C 
ATOM     12  C   LIG A   1      -5.491   4.320 125.995  0.00  0.00    +0.143 C 
ATOM     13  C   LIG A   1      -5.955   3.397 124.882  0.00  0.00    +0.079 C 
ATOM     14  C   LIG A   1      -7.042   2.486 125.474  0.00  0.00    +0.010 C 
ATOM     15  C   LIG A   1      -7.929   1.728 124.422  0.00  0.00    -0.005 C 
ATOM     16  C   LIG A   1      -8.606   2.755 123.472  0.00  0.00    +0.014 C 
ATOM     17  C   LIG A   1      -7.134   0.769 123.514  0.00  0.00    +0.014 C 
ATOM     18  C   LIG A   1      -9.062   0.979 125.188  0.00  0.00    +0.120 C 
ATOM     19  C   LIG A   1      -8.556   0.119 126.342  0.00  0.00    +0.032 C 
ATOM     20  C   LIG A   1      -7.679   0.894 127.324  0.00  0.00    +0.010 C 
ATOM     21  C   LIG A   1      -6.466   1.620 126.663  0.00  0.00    -0.024 C 
ATOM     22  C   LIG A   1      -5.453   0.538 126.225  0.00  0.00    +0.012 C 
ATOM     23  C   LIG A   1      -5.819   2.631 127.720  0.00  0.00    +0.011 C 
ATOM     24  C   LIG A   1      -5.291   1.975 129.002  0.00  0.00    +0.006 C 
ATOM     25  C   LIG A   1      -5.311   3.024 130.100  0.00  0.00    +0.014 C 
ATOM     26  O   LIG A   1      -5.839   5.500 125.980  0.00  0.00    -0.297 OA
ENDROOT
BRANCH   7  27
ATOM     27  C   LIG A   1      -6.463   5.798 130.490  0.00  0.00    +0.031 A 
ATOM     28  C   LIG A   1      -7.425   5.168 129.723  0.00  0.00    +0.202 A 
ATOM     29  O   LIG A   1      -8.640   5.750 129.888  0.00  0.00    -0.471 OA
ATOM     30  C   LIG A   1      -8.471   6.786 130.745  0.00  0.00    +0.195 A 
ATOM     31  C   LIG A   1      -7.158   6.864 131.143  0.00  0.00    +0.048 A 
ENDBRANCH   7  27
BRANCH  18  32
ATOM     32  O   LIG A   1      -9.807   0.125 124.323  0.00  0.00    -0.391 OA
ATOM     33  H   LIG A   1      -9.268  -0.664 124.142  0.00  0.00    +0.210 HD
ENDBRANCH  18  32
TORSDOF 2
ENDMDL
MODEL 4
REMARK VINA RESULT:      -8.3      5.044      8.275
REMARK  Name = NuBBE_908
REMARK  7 active torsions:
REMARK  status: ('A' for Active; 'I' for Inactive)
REMARK    1  A    between atoms: C_1  and  C_2
REMARK    2  A    between atoms: C_8  and  C_10
REMARK    3  A    between atoms: C_17  and  C_18
REMARK    4  A    between atoms: C_22  and  C_23
REMARK    5  A    between atoms: C_22  and  C_24
REMARK    6  A    between atoms: C_25  and  O_27
REMARK    7  A    between atoms: C_30  and  C_31
REMARK                            x       y       z     vdW  Elec       q    Type
REMARK                         _______ _______ _______ _____ _____    ______ ____
ROOT
ATOM      1  C   LIG A   1      -9.906   0.518 125.290  0.00  0.00    +0.018 C 
ATOM      2  C   LIG A   1      -8.534  -0.216 125.340  0.00  0.00    +0.042 C 
ATOM      3  C   LIG A   1      -7.518   0.625 126.155  0.00  0.00    +0.128 C 
ATOM      4  C   LIG A   1      -6.728   1.659 125.313  0.00  0.00    +0.260 C 
ATOM      5  C   LIG A   1      -6.977   1.856 123.866  0.00  0.00    +0.340 C 
ATOM      6  O   LIG A   1      -7.742   0.923 123.239  0.00  0.00    -0.454 OA
ATOM      7  C   LIG A   1      -7.993  -0.349 123.869  0.00  0.00    +0.218 C 
ATOM      8  O   LIG A   1      -6.555   2.849 123.286  0.00  0.00    -0.248 OA
ATOM      9  O   LIG A   1      -7.837   2.048 126.102  0.00  0.00    -0.351 OA
ATOM     10  C   LIG A   1      -7.168   0.231 127.648  0.00  0.00    +0.062 C 
ATOM     11  C   LIG A   1      -8.030   1.121 128.579  0.00  0.00    +0.022 C 
ATOM     12  C   LIG A   1      -5.688   0.447 128.012  0.00  0.00    +0.143 C 
ATOM     13  C   LIG A   1      -5.264   0.050 129.414  0.00  0.00    +0.079 C 
ATOM     14  C   LIG A   1      -5.408  -1.476 129.515  0.00  0.00    +0.010 C 
ATOM     15  C   LIG A   1      -4.666  -2.143 130.729  0.00  0.00    -0.005 C 
ATOM     16  C   LIG A   1      -3.153  -1.790 130.673  0.00  0.00    +0.014 C 
ATOM     17  C   LIG A   1      -5.165  -1.660 132.105  0.00  0.00    +0.014 C 
ATOM     18  C   LIG A   1      -4.792  -3.690 130.588  0.00  0.00    +0.120 C 
ATOM     19  C   LIG A   1      -6.223  -4.170 130.367  0.00  0.00    +0.032 C 
ATOM     20  C   LIG A   1      -6.911  -3.477 129.193  0.00  0.00    +0.010 C 
ATOM     21  C   LIG A   1      -6.906  -1.918 129.278  0.00  0.00    -0.024 C 
ATOM     22  C   LIG A   1      -7.874  -1.507 130.411  0.00  0.00    +0.012 C 
ATOM     23  C   LIG A   1      -7.365  -1.314 127.870  0.00  0.00    +0.011 C 
ATOM     24  C   LIG A   1      -8.773  -1.722 127.420  0.00  0.00    +0.006 C 
ATOM     25  C   LIG A   1      -8.818  -1.632 125.905  0.00  0.00    +0.014 C 
ATOM     26  O   LIG A   1      -4.827   0.775 127.195  0.00  0.00    -0.297 OA
ENDROOT
BRANCH   7  27
ATOM     27  C   LIG A   1      -6.827  -1.284 123.649  0.00  0.00    +0.031 A 
ATOM     28  C   LIG A   1      -6.407  -1.912 122.491  0.00  0.00    +0.202 A 
ATOM     29  O   LIG A   1      -5.301  -2.666 122.718  0.00  0.00    -0.471 OA
ATOM     30  C   LIG A   1      -5.008  -2.556 124.035  0.00  0.00    +0.195 A 
ATOM     31  C   LIG A   1      -5.910  -1.724 124.655  0.00  0.00    +0.048 A 
ENDBRANCH   7  27
BRANCH  18  32
ATOM     32  O   LIG A   1      -4.296  -4.367 131.742  0.00  0.00    -0.391 OA
ATOM     33  H   LIG A   1      -4.953  -4.272 132.452  0.00  0.00    +0.210 HD
ENDBRANCH  18  32
TORSDOF 2
ENDMDL
MODEL 5
REMARK VINA RESULT:      -8.3      4.725      8.518
REMARK  Name = NuBBE_908
REMARK  7 active torsions:
REMARK  status: ('A' for Active; 'I' for Inactive)
REMARK    1  A    between atoms: C_1  and  C_2
REMARK    2  A    between atoms: C_8  and  C_10
REMARK    3  A    between atoms: C_17  and  C_18
REMARK    4  A    between atoms: C_22  and  C_23
REMARK    5  A    between atoms: C_22  and  C_24
REMARK    6  A    between atoms: C_25  and  O_27
REMARK    7  A    between atoms: C_30  and  C_31
REMARK                            x       y       z     vdW  Elec       q    Type
REMARK                         _______ _______ _______ _____ _____    ______ ____
ROOT
ATOM      1  C   LIG A   1      -4.900   5.025 127.109  0.00  0.00    +0.018 C 
ATOM      2  C   LIG A   1      -5.293   3.669 127.767  0.00  0.00    +0.042 C 
ATOM      3  C   LIG A   1      -6.808   3.407 127.563  0.00  0.00    +0.128 C 
ATOM      4  C   LIG A   1      -7.710   3.998 128.675  0.00  0.00    +0.260 C 
ATOM      5  C   LIG A   1      -7.163   4.796 129.797  0.00  0.00    +0.340 C 
ATOM      6  O   LIG A   1      -5.814   4.778 129.965  0.00  0.00    -0.454 OA
ATOM      7  C   LIG A   1      -5.015   3.772 129.311  0.00  0.00    +0.218 C 
ATOM      8  O   LIG A   1      -7.898   5.480 130.498  0.00  0.00    -0.248 OA
ATOM      9  O   LIG A   1      -7.554   4.654 127.431  0.00  0.00    -0.351 OA
ATOM     10  C   LIG A   1      -7.303   2.390 126.454  0.00  0.00    +0.062 C 
ATOM     11  C   LIG A   1      -7.695   3.218 125.205  0.00  0.00    +0.022 C 
ATOM     12  C   LIG A   1      -8.524   1.558 126.883  0.00  0.00    +0.143 C 
ATOM     13  C   LIG A   1      -9.031   0.527 125.889  0.00  0.00    +0.079 C 
ATOM     14  C   LIG A   1      -7.936  -0.542 125.749  0.00  0.00    +0.010 C 
ATOM     15  C   LIG A   1      -8.394  -1.889 125.083  0.00  0.00    -0.005 C 
ATOM     16  C   LIG A   1      -9.579  -2.493 125.887  0.00  0.00    +0.014 C 
ATOM     17  C   LIG A   1      -8.902  -1.726 123.636  0.00  0.00    +0.014 C 
ATOM     18  C   LIG A   1      -7.209  -2.899 125.160  0.00  0.00    +0.120 C 
ATOM     19  C   LIG A   1      -5.891  -2.339 124.636  0.00  0.00    +0.032 C 
ATOM     20  C   LIG A   1      -5.501  -1.018 125.296  0.00  0.00    +0.010 C 
ATOM     21  C   LIG A   1      -6.596   0.091 125.205  0.00  0.00    -0.024 C 
ATOM     22  C   LIG A   1      -6.668   0.560 123.733  0.00  0.00    +0.012 C 
ATOM     23  C   LIG A   1      -6.205   1.296 126.183  0.00  0.00    +0.011 C 
ATOM     24  C   LIG A   1      -4.867   1.976 125.868  0.00  0.00    +0.006 C 
ATOM     25  C   LIG A   1      -4.353   2.600 127.154  0.00  0.00    +0.014 C 
ATOM     26  O   LIG A   1      -9.000   1.582 128.017  0.00  0.00    -0.297 OA
ENDROOT
BRANCH   7  27
ATOM     27  C   LIG A   1      -5.043   2.484 130.101  0.00  0.00    +0.031 A 
ATOM     28  C   LIG A   1      -5.908   1.410 130.005  0.00  0.00    +0.202 A 
ATOM     29  O   LIG A   1      -5.581   0.438 130.894  0.00  0.00    -0.471 OA
ATOM     30  C   LIG A   1      -4.514   0.886 131.598  0.00  0.00    +0.195 A 
ATOM     31  C   LIG A   1      -4.144   2.134 131.156  0.00  0.00    +0.048 A 
ENDBRANCH   7  27
BRANCH  18  32
ATOM     32  O   LIG A   1      -7.482  -4.089 124.422  0.00  0.00    -0.391 OA
ATOM     33  H   LIG A   1      -6.861  -4.129 123.675  0.00  0.00    +0.210 HD
ENDBRANCH  18  32
TORSDOF 2
ENDMDL
MODEL 6
REMARK VINA RESULT:      -8.2      3.925      5.623
REMARK  Name = NuBBE_908
REMARK  7 active torsions:
REMARK  status: ('A' for Active; 'I' for Inactive)
REMARK    1  A    between atoms: C_1  and  C_2
REMARK    2  A    between atoms: C_8  and  C_10
REMARK    3  A    between atoms: C_17  and  C_18
REMARK    4  A    between atoms: C_22  and  C_23
REMARK    5  A    between atoms: C_22  and  C_24
REMARK    6  A    between atoms: C_25  and  O_27
REMARK    7  A    between atoms: C_30  and  C_31
REMARK                            x       y       z     vdW  Elec       q    Type
REMARK                         _______ _______ _______ _____ _____    ______ ____
ROOT
ATOM      1  C   LIG A   1      -6.512  -4.011 129.975  0.00  0.00    +0.018 C 
ATOM      2  C   LIG A   1      -6.855  -2.492 129.947  0.00  0.00    +0.042 C 
ATOM      3  C   LIG A   1      -5.735  -1.715 129.208  0.00  0.00    +0.128 C 
ATOM      4  C   LIG A   1      -4.573  -1.250 130.122  0.00  0.00    +0.260 C 
ATOM      5  C   LIG A   1      -4.522  -1.580 131.565  0.00  0.00    +0.340 C 
ATOM      6  O   LIG A   1      -5.654  -2.086 132.122  0.00  0.00    -0.454 OA
ATOM      7  C   LIG A   1      -6.914  -1.974 131.431  0.00  0.00    +0.218 C 
ATOM      8  O   LIG A   1      -3.484  -1.452 132.201  0.00  0.00    -0.248 OA
ATOM      9  O   LIG A   1      -4.451  -2.401 129.308  0.00  0.00    -0.351 OA
ATOM     10  C   LIG A   1      -5.946  -1.234 127.714  0.00  0.00    +0.062 C 
ATOM     11  C   LIG A   1      -5.270  -2.276 126.788  0.00  0.00    +0.022 C 
ATOM     12  C   LIG A   1      -5.330   0.145 127.417  0.00  0.00    +0.143 C 
ATOM     13  C   LIG A   1      -5.530   0.695 126.017  0.00  0.00    +0.079 C 
ATOM     14  C   LIG A   1      -7.033   0.964 125.847  0.00  0.00    +0.010 C 
ATOM     15  C   LIG A   1      -7.418   1.888 124.636  0.00  0.00    -0.005 C 
ATOM     16  C   LIG A   1      -6.682   3.251 124.764  0.00  0.00    +0.014 C 
ATOM     17  C   LIG A   1      -7.015   1.315 123.263  0.00  0.00    +0.014 C 
ATOM     18  C   LIG A   1      -8.949   2.173 124.707  0.00  0.00    +0.120 C 
ATOM     19  C   LIG A   1      -9.800   0.915 124.852  0.00  0.00    +0.032 C 
ATOM     20  C   LIG A   1      -9.373   0.038 126.027  0.00  0.00    +0.010 C 
ATOM     21  C   LIG A   1      -7.866  -0.369 126.007  0.00  0.00    -0.024 C 
ATOM     22  C   LIG A   1      -7.668  -1.381 124.856  0.00  0.00    +0.012 C 
ATOM     23  C   LIG A   1      -7.476  -1.008 127.420  0.00  0.00    +0.011 C 
ATOM     24  C   LIG A   1      -8.263  -2.269 127.798  0.00  0.00    +0.006 C 
ATOM     25  C   LIG A   1      -8.264  -2.376 129.313  0.00  0.00    +0.014 C 
ATOM     26  O   LIG A   1      -4.828   0.866 128.280  0.00  0.00    -0.297 OA
ENDROOT
BRANCH   7  27
ATOM     27  C   LIG A   1      -7.518  -0.608 131.657  0.00  0.00    +0.031 A 
ATOM     28  C   LIG A   1      -6.895   0.600 131.911  0.00  0.00    +0.202 A 
ATOM     29  O   LIG A   1      -7.803   1.600 132.043  0.00  0.00    -0.471 OA
ATOM     30  C   LIG A   1      -9.030   1.044 131.902  0.00  0.00    +0.195 A 
ATOM     31  C   LIG A   1      -8.916  -0.305 131.667  0.00  0.00    +0.048 A 
ENDBRANCH   7  27
BRANCH  18  32
ATOM     32  O   LIG A   1      -9.411   2.861 123.546  0.00  0.00    -0.391 OA
ATOM     33  H   LIG A   1     -10.376   2.958 123.618  0.00  0.00    +0.210 HD
ENDBRANCH  18  32
TORSDOF 2
ENDMDL
MODEL 7
REMARK VINA RESULT:      -8.0      5.249      7.921
REMARK  Name = NuBBE_908
REMARK  7 active torsions:
REMARK  status: ('A' for Active; 'I' for Inactive)
REMARK    1  A    between atoms: C_1  and  C_2
REMARK    2  A    between atoms: C_8  and  C_10
REMARK    3  A    between atoms: C_17  and  C_18
REMARK    4  A    between atoms: C_22  and  C_23
REMARK    5  A    between atoms: C_22  and  C_24
REMARK    6  A    between atoms: C_25  and  O_27
REMARK    7  A    between atoms: C_30  and  C_31
REMARK                            x       y       z     vdW  Elec       q    Type
REMARK                         _______ _______ _______ _____ _____    ______ ____
ROOT
ATOM      1  C   LIG A   1      -5.240   0.721 126.762  0.00  0.00    +0.018 C 
ATOM      2  C   LIG A   1      -5.162   2.118 127.449  0.00  0.00    +0.042 C 
ATOM      3  C   LIG A   1      -6.587   2.714 127.587  0.00  0.00    +0.128 C 
ATOM      4  C   LIG A   1      -7.050   3.544 126.363  0.00  0.00    +0.260 C 
ATOM      5  C   LIG A   1      -6.215   3.695 125.148  0.00  0.00    +0.340 C 
ATOM      6  O   LIG A   1      -4.919   3.296 125.238  0.00  0.00    -0.454 OA
ATOM      7  C   LIG A   1      -4.317   3.072 126.528  0.00  0.00    +0.218 C 
ATOM      8  O   LIG A   1      -6.699   4.109 124.102  0.00  0.00    -0.248 OA
ATOM      9  O   LIG A   1      -7.481   2.209 126.550  0.00  0.00    -0.351 OA
ATOM     10  C   LIG A   1      -7.339   2.676 128.979  0.00  0.00    +0.062 C 
ATOM     11  C   LIG A   1      -8.295   1.456 128.960  0.00  0.00    +0.022 C 
ATOM     12  C   LIG A   1      -8.174   3.937 129.264  0.00  0.00    +0.143 C 
ATOM     13  C   LIG A   1      -8.891   3.995 130.601  0.00  0.00    +0.079 C 
ATOM     14  C   LIG A   1      -7.809   4.064 131.691  0.00  0.00    +0.010 C 
ATOM     15  C   LIG A   1      -8.311   4.518 133.108  0.00  0.00    -0.005 C 
ATOM     16  C   LIG A   1      -8.995   5.910 132.999  0.00  0.00    +0.014 C 
ATOM     17  C   LIG A   1      -9.363   3.576 133.727  0.00  0.00    +0.014 C 
ATOM     18  C   LIG A   1      -7.070   4.676 134.038  0.00  0.00    +0.120 C 
ATOM     19  C   LIG A   1      -6.149   3.461 134.042  0.00  0.00    +0.032 C 
ATOM     20  C   LIG A   1      -5.707   3.043 132.641  0.00  0.00    +0.010 C 
ATOM     21  C   LIG A   1      -6.885   2.784 131.649  0.00  0.00    -0.024 C 
ATOM     22  C   LIG A   1      -7.589   1.479 132.088  0.00  0.00    +0.012 C 
ATOM     23  C   LIG A   1      -6.304   2.662 130.164  0.00  0.00    +0.011 C 
ATOM     24  C   LIG A   1      -5.298   1.523 129.955  0.00  0.00    +0.006 C 
ATOM     25  C   LIG A   1      -4.407   1.903 128.785  0.00  0.00    +0.014 C 
ATOM     26  O   LIG A   1      -8.166   4.935 128.544  0.00  0.00    -0.297 OA
ENDROOT
BRANCH   7  27
ATOM     27  C   LIG A   1      -3.864   4.382 127.131  0.00  0.00    +0.031 A 
ATOM     28  C   LIG A   1      -4.559   5.567 127.288  0.00  0.00    +0.202 A 
ATOM     29  O   LIG A   1      -3.788   6.508 127.890  0.00  0.00    -0.471 OA
ATOM     30  C   LIG A   1      -2.573   5.950 128.105  0.00  0.00    +0.195 A 
ATOM     31  C   LIG A   1      -2.561   4.651 127.658  0.00  0.00    +0.048 A 
ENDBRANCH   7  27
BRANCH  18  32
ATOM     32  O   LIG A   1      -7.453   4.917 135.391  0.00  0.00    -0.391 OA
ATOM     33  H   LIG A   1      -8.060   5.677 135.401  0.00  0.00    +0.210 HD
ENDBRANCH  18  32
TORSDOF 2
ENDMDL
MODEL 8
REMARK VINA RESULT:      -8.0      1.495      2.304
REMARK  Name = NuBBE_908
REMARK  7 active torsions:
REMARK  status: ('A' for Active; 'I' for Inactive)
REMARK    1  A    between atoms: C_1  and  C_2
REMARK    2  A    between atoms: C_8  and  C_10
REMARK    3  A    between atoms: C_17  and  C_18
REMARK    4  A    between atoms: C_22  and  C_23
REMARK    5  A    between atoms: C_22  and  C_24
REMARK    6  A    between atoms: C_25  and  O_27
REMARK    7  A    between atoms: C_30  and  C_31
REMARK                            x       y       z     vdW  Elec       q    Type
REMARK                         _______ _______ _______ _____ _____    ______ ____
ROOT
ATOM      1  C   LIG A   1      -7.003  -1.992 129.546  0.00  0.00    +0.018 C 
ATOM      2  C   LIG A   1      -7.021  -1.642 131.064  0.00  0.00    +0.042 C 
ATOM      3  C   LIG A   1      -5.764  -0.810 131.425  0.00  0.00    +0.128 C 
ATOM      4  C   LIG A   1      -4.531  -1.659 131.823  0.00  0.00    +0.260 C 
ATOM      5  C   LIG A   1      -4.549  -3.141 131.795  0.00  0.00    +0.340 C 
ATOM      6  O   LIG A   1      -5.762  -3.740 131.658  0.00  0.00    -0.454 OA
ATOM      7  C   LIG A   1      -6.971  -2.987 131.879  0.00  0.00    +0.218 C 
ATOM      8  O   LIG A   1      -3.507  -3.781 131.838  0.00  0.00    -0.248 OA
ATOM      9  O   LIG A   1      -4.652  -1.102 130.527  0.00  0.00    -0.351 OA
ATOM     10  C   LIG A   1      -5.872   0.758 131.619  0.00  0.00    +0.062 C 
ATOM     11  C   LIG A   1      -5.428   1.424 130.291  0.00  0.00    +0.022 C 
ATOM     12  C   LIG A   1      -4.981   1.302 132.750  0.00  0.00    +0.143 C 
ATOM     13  C   LIG A   1      -5.063   2.792 133.027  0.00  0.00    +0.079 C 
ATOM     14  C   LIG A   1      -6.477   3.077 133.557  0.00  0.00    +0.010 C 
ATOM     15  C   LIG A   1      -6.661   4.466 134.268  0.00  0.00    -0.005 C 
ATOM     16  C   LIG A   1      -5.656   4.586 135.448  0.00  0.00    +0.014 C 
ATOM     17  C   LIG A   1      -6.387   5.675 133.352  0.00  0.00    +0.014 C 
ATOM     18  C   LIG A   1      -8.099   4.520 134.867  0.00  0.00    +0.120 C 
ATOM     19  C   LIG A   1      -9.193   4.160 133.868  0.00  0.00    +0.032 C 
ATOM     20  C   LIG A   1      -8.958   2.814 133.185  0.00  0.00    +0.010 C 
ATOM     21  C   LIG A   1      -7.569   2.686 132.484  0.00  0.00    -0.024 C 
ATOM     22  C   LIG A   1      -7.587   3.599 131.237  0.00  0.00    +0.012 C 
ATOM     23  C   LIG A   1      -7.320   1.157 132.086  0.00  0.00    +0.011 C 
ATOM     24  C   LIG A   1      -8.354   0.565 131.119  0.00  0.00    +0.006 C 
ATOM     25  C   LIG A   1      -8.376  -0.939 131.332  0.00  0.00    +0.014 C 
ATOM     26  O   LIG A   1      -4.340   0.583 133.516  0.00  0.00    -0.297 OA
ENDROOT
BRANCH   7  27
ATOM     27  C   LIG A   1      -7.276  -2.904 133.357  0.00  0.00    +0.031 A 
ATOM     28  C   LIG A   1      -6.739  -2.074 134.323  0.00  0.00    +0.202 A 
ATOM     29  O   LIG A   1      -7.297  -2.313 135.537  0.00  0.00    -0.471 OA
ATOM     30  C   LIG A   1      -8.185  -3.323 135.375  0.00  0.00    +0.195 A 
ATOM     31  C   LIG A   1      -8.212  -3.725 134.062  0.00  0.00    +0.048 A 
ENDBRANCH   7  27
BRANCH  18  32
ATOM     32  O   LIG A   1      -8.408   5.815 135.379  0.00  0.00    -0.391 OA
ATOM     33  H   LIG A   1      -8.759   6.352 134.648  0.00  0.00    +0.210 HD
ENDBRANCH  18  32
TORSDOF 2
ENDMDL
MODEL 9
REMARK VINA RESULT:      -7.9      5.193      8.042
REMARK  Name = NuBBE_908
REMARK  7 active torsions:
REMARK  status: ('A' for Active; 'I' for Inactive)
REMARK    1  A    between atoms: C_1  and  C_2
REMARK    2  A    between atoms: C_8  and  C_10
REMARK    3  A    between atoms: C_17  and  C_18
REMARK    4  A    between atoms: C_22  and  C_23
REMARK    5  A    between atoms: C_22  and  C_24
REMARK    6  A    between atoms: C_25  and  O_27
REMARK    7  A    between atoms: C_30  and  C_31
REMARK                            x       y       z     vdW  Elec       q    Type
REMARK                         _______ _______ _______ _____ _____    ______ ____
ROOT
ATOM      1  C   LIG A   1      -4.143   2.272 130.651  0.00  0.00    +0.018 C 
ATOM      2  C   LIG A   1      -5.583   2.328 130.060  0.00  0.00    +0.042 C 
ATOM      3  C   LIG A   1      -5.552   3.008 128.667  0.00  0.00    +0.128 C 
ATOM      4  C   LIG A   1      -5.705   4.549 128.707  0.00  0.00    +0.260 C 
ATOM      5  C   LIG A   1      -5.810   5.300 129.980  0.00  0.00    +0.340 C 
ATOM      6  O   LIG A   1      -6.026   4.573 131.109  0.00  0.00    -0.454 OA
ATOM      7  C   LIG A   1      -6.472   3.206 131.015  0.00  0.00    +0.218 C 
ATOM      8  O   LIG A   1      -5.650   6.514 130.007  0.00  0.00    -0.248 OA
ATOM      9  O   LIG A   1      -4.437   3.941 128.551  0.00  0.00    -0.351 OA
ATOM     10  C   LIG A   1      -5.632   2.134 127.348  0.00  0.00    +0.062 C 
ATOM     11  C   LIG A   1      -4.185   1.937 126.831  0.00  0.00    +0.022 C 
ATOM     12  C   LIG A   1      -6.460   2.786 126.227  0.00  0.00    +0.143 C 
ATOM     13  C   LIG A   1      -6.621   1.989 124.945  0.00  0.00    +0.079 C 
ATOM     14  C   LIG A   1      -7.455   0.745 125.288  0.00  0.00    +0.010 C 
ATOM     15  C   LIG A   1      -8.069  -0.014 124.056  0.00  0.00    -0.005 C 
ATOM     16  C   LIG A   1      -8.951   0.963 123.229  0.00  0.00    +0.014 C 
ATOM     17  C   LIG A   1      -7.014  -0.566 123.077  0.00  0.00    +0.014 C 
ATOM     18  C   LIG A   1      -8.996  -1.146 124.593  0.00  0.00    +0.120 C 
ATOM     19  C   LIG A   1      -8.331  -2.041 125.633  0.00  0.00    +0.032 C 
ATOM     20  C   LIG A   1      -7.728  -1.258 126.797  0.00  0.00    +0.010 C 
ATOM     21  C   LIG A   1      -6.721  -0.146 126.367  0.00  0.00    -0.024 C 
ATOM     22  C   LIG A   1      -5.443  -0.845 125.849  0.00  0.00    +0.012 C 
ATOM     23  C   LIG A   1      -6.405   0.792 127.624  0.00  0.00    +0.011 C 
ATOM     24  C   LIG A   1      -5.776   0.073 128.824  0.00  0.00    +0.006 C 
ATOM     25  C   LIG A   1      -6.114   0.872 130.070  0.00  0.00    +0.014 C 
ATOM     26  O   LIG A   1      -7.103   3.825 126.372  0.00  0.00    -0.297 OA
ENDROOT
BRANCH   7  27
ATOM     27  C   LIG A   1      -7.967   3.154 130.801  0.00  0.00    +0.031 A 
ATOM     28  C   LIG A   1      -8.708   3.485 129.681  0.00  0.00    +0.202 A 
ATOM     29  O   LIG A   1     -10.034   3.284 129.897  0.00  0.00    -0.471 OA
ATOM     30  C   LIG A   1     -10.167   2.847 131.172  0.00  0.00    +0.195 A 
ATOM     31  C   LIG A   1      -8.936   2.751 131.773  0.00  0.00    +0.048 A 
ENDBRANCH   7  27
BRANCH  18  32
ATOM     32  O   LIG A   1      -9.456  -1.993 123.542  0.00  0.00    -0.391 OA
ATOM     33  H   LIG A   1      -9.833  -1.429 122.845  0.00  0.00    +0.210 HD
ENDBRANCH  18  32
TORSDOF 2
ENDMDL
