MODEL 1
REMARK VINA RESULT:      -7.6      0.000      0.000
REMARK  Name = NuBBE_2446
REMARK  10 active torsions:
REMARK  status: ('A' for Active; 'I' for Inactive)
REMARK    1  A    between atoms: O_1  and  C_2
REMARK    2  A    between atoms: O_1  and  C_3
REMARK    3  A    between atoms: C_7  and  O_11
REMARK    4  A    between atoms: C_9  and  C_10
REMARK    5  A    between atoms: O_11  and  C_12
REMARK    6  A    between atoms: C_15  and  C_17
REMARK    7  A    between atoms: C_17  and  O_18
REMARK    8  A    between atoms: C_19  and  O_27
REMARK    9  A    between atoms: C_21  and  O_26
REMARK   10  A    between atoms: C_23  and  O_25
REMARK                            x       y       z     vdW  Elec       q    Type
REMARK                         _______ _______ _______ _____ _____    ______ ____
ROOT
ATOM      1  O   LIG A   1      -8.529   6.877 131.412  0.00  0.00    -0.461 OA
ENDROOT
BRANCH   1   6
ATOM      2  C   LIG A   1      -3.495   4.979 129.535  0.00  0.00    +0.138 A 
ATOM      3  C   LIG A   1      -4.743   5.542 130.100  0.00  0.00    +0.062 A 
ATOM      4  C   LIG A   1      -5.885   4.736 129.998  0.00  0.00    +0.146 A 
ATOM      5  C   LIG A   1      -7.151   5.138 130.415  0.00  0.00    +0.092 A 
ATOM      6  C   LIG A   1      -7.329   6.397 130.959  0.00  0.00    +0.128 A 
ATOM      7  C   LIG A   1      -6.209   7.216 131.123  0.00  0.00    +0.050 A 
ATOM      8  C   LIG A   1      -4.909   6.794 130.737  0.00  0.00    -0.033 A 
ATOM      9  C   LIG A   1      -3.769   7.728 131.054  0.00  0.00    +0.045 C 
ATOM     10  O   LIG A   1      -5.848   3.420 129.503  0.00  0.00    -0.422 OA
ATOM     11  C   LIG A   1      -4.659   2.831 129.143  0.00  0.00    +0.341 A 
ATOM     12  O   LIG A   1      -4.580   1.661 128.815  0.00  0.00    -0.245 OA
ATOM     13  C   LIG A   1      -3.484   3.705 129.113  0.00  0.00    +0.138 A 
BRANCH   2  14
ATOM     14  O   LIG A   1      -2.424   5.844 129.440  0.00  0.00    -0.494 OA
ATOM     15  C   LIG A   1      -2.218   6.503 128.193  0.00  0.00    +0.277 C 
ENDBRANCH   2  14
ENDBRANCH   1   6
BRANCH   1  16
ATOM     16  C   LIG A   1      -9.696   6.432 130.689  0.00  0.00    +0.339 C 
ATOM     17  O   LIG A   1      -9.745   7.116 129.430  0.00  0.00    -0.331 OA
ATOM     18  C   LIG A   1     -10.921   6.843 128.677  0.00  0.00    +0.179 C 
ATOM     19  C   LIG A   1     -12.129   7.401 129.439  0.00  0.00    +0.177 C 
ATOM     20  C   LIG A   1     -12.238   6.636 130.758  0.00  0.00    +0.180 C 
ATOM     21  C   LIG A   1     -10.941   6.691 131.570  0.00  0.00    +0.214 C 
BRANCH  21  22
ATOM     22  O   LIG A   1     -11.026   5.689 132.607  0.00  0.00    -0.383 OA
ATOM     23  H   LIG A   1     -10.683   4.867 132.207  0.00  0.00    +0.210 HD
ENDBRANCH  21  22
BRANCH  20  24
ATOM     24  O   LIG A   1     -13.315   7.171 131.547  0.00  0.00    -0.386 OA
ATOM     25  H   LIG A   1     -12.998   8.049 131.843  0.00  0.00    +0.210 HD
ENDBRANCH  20  24
BRANCH  19  26
ATOM     26  O   LIG A   1     -13.367   7.242 128.739  0.00  0.00    -0.387 OA
ATOM     27  H   LIG A   1     -13.178   6.684 127.952  0.00  0.00    +0.210 HD
ENDBRANCH  19  26
BRANCH  18  28
ATOM     28  C   LIG A   1     -10.764   7.471 127.288  0.00  0.00    +0.190 C 
BRANCH  28  29
ATOM     29  O   LIG A   1     -11.466   6.718 126.302  0.00  0.00    -0.392 OA
ATOM     30  H   LIG A   1     -12.410   6.953 126.379  0.00  0.00    +0.209 HD
ENDBRANCH  28  29
ENDBRANCH  18  28
ENDBRANCH   1  16
TORSDOF 8
ENDMDL
MODEL 2
REMARK VINA RESULT:      -7.4      1.529      2.709
REMARK  Name = NuBBE_2446
REMARK  10 active torsions:
REMARK  status: ('A' for Active; 'I' for Inactive)
REMARK    1  A    between atoms: O_1  and  C_2
REMARK    2  A    between atoms: O_1  and  C_3
REMARK    3  A    between atoms: C_7  and  O_11
REMARK    4  A    between atoms: C_9  and  C_10
REMARK    5  A    between atoms: O_11  and  C_12
REMARK    6  A    between atoms: C_15  and  C_17
REMARK    7  A    between atoms: C_17  and  O_18
REMARK    8  A    between atoms: C_19  and  O_27
REMARK    9  A    between atoms: C_21  and  O_26
REMARK   10  A    between atoms: C_23  and  O_25
REMARK                            x       y       z     vdW  Elec       q    Type
REMARK                         _______ _______ _______ _____ _____    ______ ____
ROOT
ATOM      1  O   LIG A   1      -8.526   7.122 131.462  0.00  0.00    -0.461 OA
ENDROOT
BRANCH   1   6
ATOM      2  C   LIG A   1      -3.727   4.051 131.387  0.00  0.00    +0.138 A 
ATOM      3  C   LIG A   1      -5.035   4.747 131.392  0.00  0.00    +0.062 A 
ATOM      4  C   LIG A   1      -5.022   6.089 130.990  0.00  0.00    +0.146 A 
ATOM      5  C   LIG A   1      -6.147   6.908 130.999  0.00  0.00    +0.092 A 
ATOM      6  C   LIG A   1      -7.361   6.403 131.429  0.00  0.00    +0.128 A 
ATOM      7  C   LIG A   1      -7.431   5.056 131.795  0.00  0.00    +0.050 A 
ATOM      8  C   LIG A   1      -6.293   4.207 131.747  0.00  0.00    -0.033 A 
ATOM      9  C   LIG A   1      -6.516   2.752 132.072  0.00  0.00    +0.045 C 
ATOM     10  O   LIG A   1      -3.870   6.725 130.492  0.00  0.00    -0.422 OA
ATOM     11  C   LIG A   1      -2.695   6.031 130.319  0.00  0.00    +0.341 A 
ATOM     12  O   LIG A   1      -1.715   6.523 129.790  0.00  0.00    -0.245 OA
ATOM     13  C   LIG A   1      -2.659   4.671 130.863  0.00  0.00    +0.138 A 
BRANCH   2  14
ATOM     14  O   LIG A   1      -3.697   2.806 131.979  0.00  0.00    -0.494 OA
ATOM     15  C   LIG A   1      -2.901   2.652 133.152  0.00  0.00    +0.277 C 
ENDBRANCH   2  14
ENDBRANCH   1   6
BRANCH   1  16
ATOM     16  C   LIG A   1      -9.631   6.560 130.722  0.00  0.00    +0.339 C 
ATOM     17  O   LIG A   1      -9.702   7.203 129.443  0.00  0.00    -0.331 OA
ATOM     18  C   LIG A   1     -10.829   6.812 128.668  0.00  0.00    +0.179 C 
ATOM     19  C   LIG A   1     -12.101   7.286 129.382  0.00  0.00    +0.177 C 
ATOM     20  C   LIG A   1     -12.182   6.551 130.720  0.00  0.00    +0.180 C 
ATOM     21  C   LIG A   1     -10.918   6.737 131.563  0.00  0.00    +0.214 C 
BRANCH  21  22
ATOM     22  O   LIG A   1     -10.948   5.761 132.626  0.00  0.00    -0.383 OA
ATOM     23  H   LIG A   1     -11.789   5.276 132.515  0.00  0.00    +0.210 HD
ENDBRANCH  21  22
BRANCH  20  24
ATOM     24  O   LIG A   1     -13.321   7.014 131.464  0.00  0.00    -0.386 OA
ATOM     25  H   LIG A   1     -13.418   7.957 131.217  0.00  0.00    +0.210 HD
ENDBRANCH  20  24
BRANCH  19  26
ATOM     26  O   LIG A   1     -13.300   7.003 128.655  0.00  0.00    -0.387 OA
ATOM     27  H   LIG A   1     -13.240   7.495 127.806  0.00  0.00    +0.210 HD
ENDBRANCH  19  26
BRANCH  18  28
ATOM     28  C   LIG A   1     -10.685   7.412 127.265  0.00  0.00    +0.190 C 
BRANCH  28  29
ATOM     29  O   LIG A   1     -11.412   6.650 126.305  0.00  0.00    -0.392 OA
ATOM     30  H   LIG A   1     -12.207   6.305 126.754  0.00  0.00    +0.209 HD
ENDBRANCH  28  29
ENDBRANCH  18  28
ENDBRANCH   1  16
TORSDOF 8
ENDMDL
MODEL 3
REMARK VINA RESULT:      -6.9      1.940      2.343
REMARK  Name = NuBBE_2446
REMARK  10 active torsions:
REMARK  status: ('A' for Active; 'I' for Inactive)
REMARK    1  A    between atoms: O_1  and  C_2
REMARK    2  A    between atoms: O_1  and  C_3
REMARK    3  A    between atoms: C_7  and  O_11
REMARK    4  A    between atoms: C_9  and  C_10
REMARK    5  A    between atoms: O_11  and  C_12
REMARK    6  A    between atoms: C_15  and  C_17
REMARK    7  A    between atoms: C_17  and  O_18
REMARK    8  A    between atoms: C_19  and  O_27
REMARK    9  A    between atoms: C_21  and  O_26
REMARK   10  A    between atoms: C_23  and  O_25
REMARK                            x       y       z     vdW  Elec       q    Type
REMARK                         _______ _______ _______ _____ _____    ______ ____
ROOT
ATOM      1  O   LIG A   1      -7.774   5.481 130.599  0.00  0.00    -0.461 OA
ENDROOT
BRANCH   1   6
ATOM      2  C   LIG A   1      -3.786   3.221 127.214  0.00  0.00    +0.138 A 
ATOM      3  C   LIG A   1      -4.739   3.820 128.179  0.00  0.00    +0.062 A 
ATOM      4  C   LIG A   1      -6.088   3.483 128.005  0.00  0.00    +0.146 A 
ATOM      5  C   LIG A   1      -7.119   4.008 128.777  0.00  0.00    +0.092 A 
ATOM      6  C   LIG A   1      -6.833   4.920 129.777  0.00  0.00    +0.128 A 
ATOM      7  C   LIG A   1      -5.496   5.250 130.016  0.00  0.00    +0.050 A 
ATOM      8  C   LIG A   1      -4.438   4.684 129.257  0.00  0.00    -0.033 A 
ATOM      9  C   LIG A   1      -3.035   5.042 129.675  0.00  0.00    +0.045 C 
ATOM     10  O   LIG A   1      -6.522   2.540 127.055  0.00  0.00    -0.422 OA
ATOM     11  C   LIG A   1      -5.621   1.849 126.278  0.00  0.00    +0.341 A 
ATOM     12  O   LIG A   1      -5.957   0.951 125.527  0.00  0.00    -0.245 OA
ATOM     13  C   LIG A   1      -4.227   2.291 126.352  0.00  0.00    +0.138 A 
BRANCH   2  14
ATOM     14  O   LIG A   1      -2.498   3.710 127.246  0.00  0.00    -0.494 OA
ATOM     15  C   LIG A   1      -1.481   2.932 126.619  0.00  0.00    +0.277 C 
ENDBRANCH   2  14
ENDBRANCH   1   6
BRANCH   1  16
ATOM     16  C   LIG A   1      -9.124   5.493 130.090  0.00  0.00    +0.339 C 
ATOM     17  O   LIG A   1      -9.285   6.635 129.239  0.00  0.00    -0.331 OA
ATOM     18  C   LIG A   1     -10.616   6.817 128.771  0.00  0.00    +0.179 C 
ATOM     19  C   LIG A   1     -11.517   7.131 129.971  0.00  0.00    +0.177 C 
ATOM     20  C   LIG A   1     -11.512   5.907 130.886  0.00  0.00    +0.180 C 
ATOM     21  C   LIG A   1     -10.097   5.492 131.294  0.00  0.00    +0.214 C 
BRANCH  21  22
ATOM     22  O   LIG A   1     -10.172   4.167 131.864  0.00  0.00    -0.383 OA
ATOM     23  H   LIG A   1      -9.814   3.566 131.182  0.00  0.00    +0.210 HD
ENDBRANCH  21  22
BRANCH  20  24
ATOM     24  O   LIG A   1     -12.287   6.177 132.068  0.00  0.00    -0.386 OA
ATOM     25  H   LIG A   1     -12.758   5.339 132.256  0.00  0.00    +0.210 HD
ENDBRANCH  20  24
BRANCH  19  26
ATOM     26  O   LIG A   1     -12.875   7.399 129.608  0.00  0.00    -0.387 OA
ATOM     27  H   LIG A   1     -12.852   7.844 128.732  0.00  0.00    +0.210 HD
ENDBRANCH  19  26
BRANCH  18  28
ATOM     28  C   LIG A   1     -10.614   7.940 127.728  0.00  0.00    +0.190 C 
BRANCH  28  29
ATOM     29  O   LIG A   1     -11.257   9.108 128.233  0.00  0.00    -0.392 OA
ATOM     30  H   LIG A   1     -11.020   9.182 129.177  0.00  0.00    +0.209 HD
ENDBRANCH  28  29
ENDBRANCH  18  28
ENDBRANCH   1  16
TORSDOF 8
ENDMDL
MODEL 4
REMARK VINA RESULT:      -6.9      3.869      5.473
REMARK  Name = NuBBE_2446
REMARK  10 active torsions:
REMARK  status: ('A' for Active; 'I' for Inactive)
REMARK    1  A    between atoms: O_1  and  C_2
REMARK    2  A    between atoms: O_1  and  C_3
REMARK    3  A    between atoms: C_7  and  O_11
REMARK    4  A    between atoms: C_9  and  C_10
REMARK    5  A    between atoms: O_11  and  C_12
REMARK    6  A    between atoms: C_15  and  C_17
REMARK    7  A    between atoms: C_17  and  O_18
REMARK    8  A    between atoms: C_19  and  O_27
REMARK    9  A    between atoms: C_21  and  O_26
REMARK   10  A    between atoms: C_23  and  O_25
REMARK                            x       y       z     vdW  Elec       q    Type
REMARK                         _______ _______ _______ _____ _____    ______ ____
ROOT
ATOM      1  O   LIG A   1      -8.170   5.093 128.885  0.00  0.00    -0.461 OA
ENDROOT
BRANCH   1   6
ATOM      2  C   LIG A   1      -7.645   1.196 124.762  0.00  0.00    +0.138 A 
ATOM      3  C   LIG A   1      -7.816   2.120 125.907  0.00  0.00    +0.062 A 
ATOM      4  C   LIG A   1      -8.085   3.458 125.586  0.00  0.00    +0.146 A 
ATOM      5  C   LIG A   1      -8.207   4.469 126.535  0.00  0.00    +0.092 A 
ATOM      6  C   LIG A   1      -8.054   4.173 127.877  0.00  0.00    +0.128 A 
ATOM      7  C   LIG A   1      -7.832   2.844 128.246  0.00  0.00    +0.050 A 
ATOM      8  C   LIG A   1      -7.748   1.803 127.284  0.00  0.00    -0.033 A 
ATOM      9  C   LIG A   1      -7.605   0.399 127.811  0.00  0.00    +0.045 C 
ATOM     10  O   LIG A   1      -8.303   3.896 124.267  0.00  0.00    -0.422 OA
ATOM     11  C   LIG A   1      -8.320   3.008 123.218  0.00  0.00    +0.341 A 
ATOM     12  O   LIG A   1      -8.614   3.339 122.083  0.00  0.00    -0.245 OA
ATOM     13  C   LIG A   1      -7.905   1.637 123.521  0.00  0.00    +0.138 A 
BRANCH   2  14
ATOM     14  O   LIG A   1      -7.174  -0.065 125.062  0.00  0.00    -0.494 OA
ATOM     15  C   LIG A   1      -7.753  -1.167 124.366  0.00  0.00    +0.277 C 
ENDBRANCH   2  14
ENDBRANCH   1   6
BRANCH   1  16
ATOM     16  C   LIG A   1      -9.351   4.978 129.706  0.00  0.00    +0.339 C 
ATOM     17  O   LIG A   1     -10.405   5.741 129.105  0.00  0.00    -0.331 OA
ATOM     18  C   LIG A   1     -11.590   5.798 129.891  0.00  0.00    +0.179 C 
ATOM     19  C   LIG A   1     -11.282   6.562 131.184  0.00  0.00    +0.177 C 
ATOM     20  C   LIG A   1     -10.248   5.752 131.966  0.00  0.00    +0.180 C 
ATOM     21  C   LIG A   1      -8.997   5.452 131.137  0.00  0.00    +0.214 C 
BRANCH  21  22
ATOM     22  O   LIG A   1      -8.247   4.426 131.822  0.00  0.00    -0.383 OA
ATOM     23  H   LIG A   1      -8.329   4.632 132.774  0.00  0.00    +0.210 HD
ENDBRANCH  21  22
BRANCH  20  24
ATOM     24  O   LIG A   1      -9.869   6.462 133.157  0.00  0.00    -0.386 OA
ATOM     25  H   LIG A   1     -10.687   6.511 133.693  0.00  0.00    +0.210 HD
ENDBRANCH  20  24
BRANCH  19  26
ATOM     26  O   LIG A   1     -12.425   6.739 132.026  0.00  0.00    -0.387 OA
ATOM     27  H   LIG A   1     -12.213   6.313 132.886  0.00  0.00    +0.210 HD
ENDBRANCH  19  26
BRANCH  18  28
ATOM     28  C   LIG A   1     -12.690   6.469 129.061  0.00  0.00    +0.190 C 
BRANCH  28  29
ATOM     29  O   LIG A   1     -12.796   7.855 129.376  0.00  0.00    -0.392 OA
ATOM     30  H   LIG A   1     -13.193   8.296 128.601  0.00  0.00    +0.209 HD
ENDBRANCH  28  29
ENDBRANCH  18  28
ENDBRANCH   1  16
TORSDOF 8
ENDMDL
MODEL 5
REMARK VINA RESULT:      -6.8      5.030      7.709
REMARK  Name = NuBBE_2446
REMARK  10 active torsions:
REMARK  status: ('A' for Active; 'I' for Inactive)
REMARK    1  A    between atoms: O_1  and  C_2
REMARK    2  A    between atoms: O_1  and  C_3
REMARK    3  A    between atoms: C_7  and  O_11
REMARK    4  A    between atoms: C_9  and  C_10
REMARK    5  A    between atoms: O_11  and  C_12
REMARK    6  A    between atoms: C_15  and  C_17
REMARK    7  A    between atoms: C_17  and  O_18
REMARK    8  A    between atoms: C_19  and  O_27
REMARK    9  A    between atoms: C_21  and  O_26
REMARK   10  A    between atoms: C_23  and  O_25
REMARK                            x       y       z     vdW  Elec       q    Type
REMARK                         _______ _______ _______ _____ _____    ______ ____
ROOT
ATOM      1  O   LIG A   1      -7.422   1.712 126.649  0.00  0.00    -0.461 OA
ENDROOT
BRANCH   1   6
ATOM      2  C   LIG A   1      -8.880   4.160 131.583  0.00  0.00    +0.138 A 
ATOM      3  C   LIG A   1      -8.473   3.425 130.362  0.00  0.00    +0.062 A 
ATOM      4  C   LIG A   1      -8.038   4.209 129.286  0.00  0.00    +0.146 A 
ATOM      5  C   LIG A   1      -7.684   3.686 128.045  0.00  0.00    +0.092 A 
ATOM      6  C   LIG A   1      -7.761   2.323 127.827  0.00  0.00    +0.128 A 
ATOM      7  C   LIG A   1      -8.146   1.498 128.887  0.00  0.00    +0.050 A 
ATOM      8  C   LIG A   1      -8.467   2.024 130.166  0.00  0.00    -0.033 A 
ATOM      9  C   LIG A   1      -8.772   1.027 131.255  0.00  0.00    +0.045 C 
ATOM     10  O   LIG A   1      -7.872   5.603 129.375  0.00  0.00    -0.422 OA
ATOM     11  C   LIG A   1      -8.080   6.267 130.561  0.00  0.00    +0.341 A 
ATOM     12  O   LIG A   1      -7.840   7.453 130.699  0.00  0.00    -0.245 OA
ATOM     13  C   LIG A   1      -8.666   5.483 131.650  0.00  0.00    +0.138 A 
BRANCH   2  14
ATOM     14  O   LIG A   1      -9.505   3.417 132.562  0.00  0.00    -0.494 OA
ATOM     15  C   LIG A   1      -9.206   3.731 133.920  0.00  0.00    +0.277 C 
ENDBRANCH   2  14
ENDBRANCH   1   6
BRANCH   1  16
ATOM     16  C   LIG A   1      -8.517   1.155 125.893  0.00  0.00    +0.339 C 
ATOM     17  O   LIG A   1      -8.215  -0.212 125.584  0.00  0.00    -0.331 OA
ATOM     18  C   LIG A   1      -9.174  -0.833 124.737  0.00  0.00    +0.179 C 
ATOM     19  C   LIG A   1      -9.141  -0.139 123.370  0.00  0.00    +0.177 C 
ATOM     20  C   LIG A   1      -9.577   1.311 123.578  0.00  0.00    +0.180 C 
ATOM     21  C   LIG A   1      -8.732   2.028 124.633  0.00  0.00    +0.214 C 
BRANCH  21  22
ATOM     22  O   LIG A   1      -9.414   3.249 124.992  0.00  0.00    -0.383 OA
ATOM     23  H   LIG A   1      -8.712   3.915 125.124  0.00  0.00    +0.210 HD
ENDBRANCH  21  22
BRANCH  20  24
ATOM     24  O   LIG A   1      -9.494   2.030 122.335  0.00  0.00    -0.386 OA
ATOM     25  H   LIG A   1      -8.648   2.521 122.384  0.00  0.00    +0.210 HD
ENDBRANCH  20  24
BRANCH  19  26
ATOM     26  O   LIG A   1     -10.024  -0.728 122.412  0.00  0.00    -0.387 OA
ATOM     27  H   LIG A   1     -10.287  -0.012 121.791  0.00  0.00    +0.210 HD
ENDBRANCH  19  26
BRANCH  18  28
ATOM     28  C   LIG A   1      -8.844  -2.327 124.644  0.00  0.00    +0.190 C 
BRANCH  28  29
ATOM     29  O   LIG A   1      -9.952  -3.066 124.137  0.00  0.00    -0.392 OA
ATOM     30  H   LIG A   1     -10.421  -3.444 124.904  0.00  0.00    +0.209 HD
ENDBRANCH  28  29
ENDBRANCH  18  28
ENDBRANCH   1  16
TORSDOF 8
ENDMDL
MODEL 6
REMARK VINA RESULT:      -6.8      6.838      9.019
REMARK  Name = NuBBE_2446
REMARK  10 active torsions:
REMARK  status: ('A' for Active; 'I' for Inactive)
REMARK    1  A    between atoms: O_1  and  C_2
REMARK    2  A    between atoms: O_1  and  C_3
REMARK    3  A    between atoms: C_7  and  O_11
REMARK    4  A    between atoms: C_9  and  C_10
REMARK    5  A    between atoms: O_11  and  C_12
REMARK    6  A    between atoms: C_15  and  C_17
REMARK    7  A    between atoms: C_17  and  O_18
REMARK    8  A    between atoms: C_19  and  O_27
REMARK    9  A    between atoms: C_21  and  O_26
REMARK   10  A    between atoms: C_23  and  O_25
REMARK                            x       y       z     vdW  Elec       q    Type
REMARK                         _______ _______ _______ _____ _____    ______ ____
ROOT
ATOM      1  O   LIG A   1      -7.079   0.050 127.039  0.00  0.00    -0.461 OA
ENDROOT
BRANCH   1   6
ATOM      2  C   LIG A   1      -7.080  -2.681 132.040  0.00  0.00    +0.138 A 
ATOM      3  C   LIG A   1      -7.186  -1.924 130.771  0.00  0.00    +0.062 A 
ATOM      4  C   LIG A   1      -6.487  -2.452 129.677  0.00  0.00    +0.146 A 
ATOM      5  C   LIG A   1      -6.424  -1.834 128.432  0.00  0.00    +0.092 A 
ATOM      6  C   LIG A   1      -7.069  -0.628 128.229  0.00  0.00    +0.128 A 
ATOM      7  C   LIG A   1      -7.817  -0.087 129.279  0.00  0.00    +0.050 A 
ATOM      8  C   LIG A   1      -7.918  -0.736 130.538  0.00  0.00    -0.033 A 
ATOM      9  C   LIG A   1      -8.832  -0.105 131.557  0.00  0.00    +0.045 C 
ATOM     10  O   LIG A   1      -5.819  -3.689 129.724  0.00  0.00    -0.422 OA
ATOM     11  C   LIG A   1      -5.868  -4.479 130.848  0.00  0.00    +0.341 A 
ATOM     12  O   LIG A   1      -5.393  -5.600 130.883  0.00  0.00    -0.245 OA
ATOM     13  C   LIG A   1      -6.474  -3.878 132.038  0.00  0.00    +0.138 A 
BRANCH   2  14
ATOM     14  O   LIG A   1      -7.584  -2.060 133.164  0.00  0.00    -0.494 OA
ATOM     15  C   LIG A   1      -8.199  -2.884 134.152  0.00  0.00    +0.277 C 
ENDBRANCH   2  14
ENDBRANCH   1   6
BRANCH   1  16
ATOM     16  C   LIG A   1      -8.252  -0.138 126.220  0.00  0.00    +0.339 C 
ATOM     17  O   LIG A   1      -8.077  -1.322 125.431  0.00  0.00    -0.331 OA
ATOM     18  C   LIG A   1      -9.124  -1.545 124.495  0.00  0.00    +0.179 C 
ATOM     19  C   LIG A   1      -9.102  -0.415 123.458  0.00  0.00    +0.177 C 
ATOM     20  C   LIG A   1      -9.409   0.891 124.192  0.00  0.00    +0.180 C 
ATOM     21  C   LIG A   1      -8.457   1.136 125.365  0.00  0.00    +0.214 C 
BRANCH  21  22
ATOM     22  O   LIG A   1      -9.020   2.188 126.179  0.00  0.00    -0.383 OA
ATOM     23  H   LIG A   1      -9.895   1.861 126.464  0.00  0.00    +0.210 HD
ENDBRANCH  21  22
BRANCH  20  24
ATOM     24  O   LIG A   1      -9.329   1.997 123.277  0.00  0.00    -0.386 OA
ATOM     25  H   LIG A   1     -10.164   1.961 122.765  0.00  0.00    +0.210 HD
ENDBRANCH  20  24
BRANCH  19  26
ATOM     26  O   LIG A   1     -10.076  -0.573 122.423  0.00  0.00    -0.387 OA
ATOM     27  H   LIG A   1     -10.542   0.288 122.337  0.00  0.00    +0.210 HD
ENDBRANCH  19  26
BRANCH  18  28
ATOM     28  C   LIG A   1      -8.920  -2.926 123.860  0.00  0.00    +0.190 C 
BRANCH  28  29
ATOM     29  O   LIG A   1     -10.147  -3.441 123.349  0.00  0.00    -0.392 OA
ATOM     30  H   LIG A   1      -9.956  -4.322 122.977  0.00  0.00    +0.209 HD
ENDBRANCH  28  29
ENDBRANCH  18  28
ENDBRANCH   1  16
TORSDOF 8
ENDMDL
MODEL 7
REMARK VINA RESULT:      -6.7      4.334      6.477
REMARK  Name = NuBBE_2446
REMARK  10 active torsions:
REMARK  status: ('A' for Active; 'I' for Inactive)
REMARK    1  A    between atoms: O_1  and  C_2
REMARK    2  A    between atoms: O_1  and  C_3
REMARK    3  A    between atoms: C_7  and  O_11
REMARK    4  A    between atoms: C_9  and  C_10
REMARK    5  A    between atoms: O_11  and  C_12
REMARK    6  A    between atoms: C_15  and  C_17
REMARK    7  A    between atoms: C_17  and  O_18
REMARK    8  A    between atoms: C_19  and  O_27
REMARK    9  A    between atoms: C_21  and  O_26
REMARK   10  A    between atoms: C_23  and  O_25
REMARK                            x       y       z     vdW  Elec       q    Type
REMARK                         _______ _______ _______ _____ _____    ______ ____
ROOT
ATOM      1  O   LIG A   1      -7.240   2.681 130.546  0.00  0.00    -0.461 OA
ENDROOT
BRANCH   1   6
ATOM      2  C   LIG A   1      -8.354  -1.128 126.457  0.00  0.00    +0.138 A 
ATOM      3  C   LIG A   1      -8.065  -0.228 127.598  0.00  0.00    +0.062 A 
ATOM      4  C   LIG A   1      -8.472   1.105 127.453  0.00  0.00    +0.146 A 
ATOM      5  C   LIG A   1      -8.219   2.095 128.398  0.00  0.00    +0.092 A 
ATOM      6  C   LIG A   1      -7.525   1.783 129.552  0.00  0.00    +0.128 A 
ATOM      7  C   LIG A   1      -7.140   0.456 129.761  0.00  0.00    +0.050 A 
ATOM      8  C   LIG A   1      -7.433  -0.566 128.818  0.00  0.00    -0.033 A 
ATOM      9  C   LIG A   1      -7.053  -1.973 129.201  0.00  0.00    +0.045 C 
ATOM     10  O   LIG A   1      -9.220   1.558 126.352  0.00  0.00    -0.422 OA
ATOM     11  C   LIG A   1      -9.644   0.686 125.375  0.00  0.00    +0.341 A 
ATOM     12  O   LIG A   1     -10.383   1.027 124.469  0.00  0.00    -0.245 OA
ATOM     13  C   LIG A   1      -9.109  -0.675 125.444  0.00  0.00    +0.138 A 
BRANCH   2  14
ATOM     14  O   LIG A   1      -7.773  -2.377 126.503  0.00  0.00    -0.494 OA
ATOM     15  C   LIG A   1      -8.577  -3.492 126.124  0.00  0.00    +0.277 C 
ENDBRANCH   2  14
ENDBRANCH   1   6
BRANCH   1  16
ATOM     16  C   LIG A   1      -8.375   3.373 131.110  0.00  0.00    +0.339 C 
ATOM     17  O   LIG A   1      -8.358   4.730 130.653  0.00  0.00    -0.331 OA
ATOM     18  C   LIG A   1      -9.368   5.544 131.239  0.00  0.00    +0.179 C 
ATOM     19  C   LIG A   1      -9.085   5.665 132.742  0.00  0.00    +0.177 C 
ATOM     20  C   LIG A   1      -9.206   4.268 133.350  0.00  0.00    +0.180 C 
ATOM     21  C   LIG A   1      -8.301   3.250 132.651  0.00  0.00    +0.214 C 
BRANCH  21  22
ATOM     22  O   LIG A   1      -8.722   1.930 133.059  0.00  0.00    -0.383 OA
ATOM     23  H   LIG A   1      -8.113   1.669 133.776  0.00  0.00    +0.210 HD
ENDBRANCH  21  22
BRANCH  20  24
ATOM     24  O   LIG A   1      -8.878   4.313 134.749  0.00  0.00    -0.386 OA
ATOM     25  H   LIG A   1      -8.049   4.833 134.797  0.00  0.00    +0.210 HD
ENDBRANCH  20  24
BRANCH  19  26
ATOM     26  O   LIG A   1     -10.005   6.520 133.427  0.00  0.00    -0.387 OA
ATOM     27  H   LIG A   1     -10.845   6.017 133.519  0.00  0.00    +0.210 HD
ENDBRANCH  19  26
BRANCH  18  28
ATOM     28  C   LIG A   1      -9.368   6.903 130.532  0.00  0.00    +0.190 C 
BRANCH  28  29
ATOM     29  O   LIG A   1      -8.053   7.448 130.467  0.00  0.00    -0.392 OA
ATOM     30  H   LIG A   1      -7.858   7.618 129.526  0.00  0.00    +0.209 HD
ENDBRANCH  28  29
ENDBRANCH  18  28
ENDBRANCH   1  16
TORSDOF 8
ENDMDL
MODEL 8
REMARK VINA RESULT:      -6.7      7.039      9.006
REMARK  Name = NuBBE_2446
REMARK  10 active torsions:
REMARK  status: ('A' for Active; 'I' for Inactive)
REMARK    1  A    between atoms: O_1  and  C_2
REMARK    2  A    between atoms: O_1  and  C_3
REMARK    3  A    between atoms: C_7  and  O_11
REMARK    4  A    between atoms: C_9  and  C_10
REMARK    5  A    between atoms: O_11  and  C_12
REMARK    6  A    between atoms: C_15  and  C_17
REMARK    7  A    between atoms: C_17  and  O_18
REMARK    8  A    between atoms: C_19  and  O_27
REMARK    9  A    between atoms: C_21  and  O_26
REMARK   10  A    between atoms: C_23  and  O_25
REMARK                            x       y       z     vdW  Elec       q    Type
REMARK                         _______ _______ _______ _____ _____    ______ ____
ROOT
ATOM      1  O   LIG A   1      -6.640  -0.316 127.117  0.00  0.00    -0.461 OA
ENDROOT
BRANCH   1   6
ATOM      2  C   LIG A   1      -5.788  -3.638 131.666  0.00  0.00    +0.138 A 
ATOM      3  C   LIG A   1      -5.892  -2.783 130.461  0.00  0.00    +0.062 A 
ATOM      4  C   LIG A   1      -6.961  -1.877 130.438  0.00  0.00    +0.146 A 
ATOM      5  C   LIG A   1      -7.245  -1.048 129.356  0.00  0.00    +0.092 A 
ATOM      6  C   LIG A   1      -6.452  -1.100 128.224  0.00  0.00    +0.128 A 
ATOM      7  C   LIG A   1      -5.347  -1.954 128.222  0.00  0.00    +0.050 A 
ATOM      8  C   LIG A   1      -5.030  -2.771 129.339  0.00  0.00    -0.033 A 
ATOM      9  C   LIG A   1      -3.759  -3.577 129.255  0.00  0.00    +0.045 C 
ATOM     10  O   LIG A   1      -7.825  -1.688 131.531  0.00  0.00    -0.422 OA
ATOM     11  C   LIG A   1      -7.623  -2.354 132.718  0.00  0.00    +0.341 A 
ATOM     12  O   LIG A   1      -8.286  -2.132 133.715  0.00  0.00    -0.245 OA
ATOM     13  C   LIG A   1      -6.599  -3.401 132.709  0.00  0.00    +0.138 A 
BRANCH   2  14
ATOM     14  O   LIG A   1      -4.874  -4.669 131.605  0.00  0.00    -0.494 OA
ATOM     15  C   LIG A   1      -4.054  -4.893 132.750  0.00  0.00    +0.277 C 
ENDBRANCH   2  14
ENDBRANCH   1   6
BRANCH   1  16
ATOM     16  C   LIG A   1      -7.934  -0.422 126.485  0.00  0.00    +0.339 C 
ATOM     17  O   LIG A   1      -7.820  -1.287 125.349  0.00  0.00    -0.331 OA
ATOM     18  C   LIG A   1      -9.012  -1.375 124.576  0.00  0.00    +0.179 C 
ATOM     19  C   LIG A   1      -9.294  -0.001 123.956  0.00  0.00    +0.177 C 
ATOM     20  C   LIG A   1      -9.557   0.977 125.101  0.00  0.00    +0.180 C 
ATOM     21  C   LIG A   1      -8.413   1.003 126.118  0.00  0.00    +0.214 C 
BRANCH  21  22
ATOM     22  O   LIG A   1      -8.888   1.682 127.301  0.00  0.00    -0.383 OA
ATOM     23  H   LIG A   1      -9.581   2.297 126.991  0.00  0.00    +0.210 HD
ENDBRANCH  21  22
BRANCH  20  24
ATOM     24  O   LIG A   1      -9.756   2.301 124.577  0.00  0.00    -0.386 OA
ATOM     25  H   LIG A   1     -10.223   2.786 125.289  0.00  0.00    +0.210 HD
ENDBRANCH  20  24
BRANCH  19  26
ATOM     26  O   LIG A   1     -10.439   0.012 123.099  0.00  0.00    -0.387 OA
ATOM     27  H   LIG A   1     -11.181  -0.380 123.611  0.00  0.00    +0.210 HD
ENDBRANCH  19  26
BRANCH  18  28
ATOM     28  C   LIG A   1      -8.824  -2.468 123.517  0.00  0.00    +0.190 C 
BRANCH  28  29
ATOM     29  O   LIG A   1     -10.059  -3.116 123.224  0.00  0.00    -0.392 OA
ATOM     30  H   LIG A   1     -10.553  -2.532 122.617  0.00  0.00    +0.209 HD
ENDBRANCH  28  29
ENDBRANCH  18  28
ENDBRANCH   1  16
TORSDOF 8
ENDMDL
MODEL 9
REMARK VINA RESULT:      -6.7      3.708      5.217
REMARK  Name = NuBBE_2446
REMARK  10 active torsions:
REMARK  status: ('A' for Active; 'I' for Inactive)
REMARK    1  A    between atoms: O_1  and  C_2
REMARK    2  A    between atoms: O_1  and  C_3
REMARK    3  A    between atoms: C_7  and  O_11
REMARK    4  A    between atoms: C_9  and  C_10
REMARK    5  A    between atoms: O_11  and  C_12
REMARK    6  A    between atoms: C_15  and  C_17
REMARK    7  A    between atoms: C_17  and  O_18
REMARK    8  A    between atoms: C_19  and  O_27
REMARK    9  A    between atoms: C_21  and  O_26
REMARK   10  A    between atoms: C_23  and  O_25
REMARK                            x       y       z     vdW  Elec       q    Type
REMARK                         _______ _______ _______ _____ _____    ______ ____
ROOT
ATOM      1  O   LIG A   1      -8.306   4.363 129.655  0.00  0.00    -0.461 OA
ENDROOT
BRANCH   1   6
ATOM      2  C   LIG A   1      -7.670  -0.949 127.694  0.00  0.00    +0.138 A 
ATOM      3  C   LIG A   1      -7.885   0.385 128.303  0.00  0.00    +0.062 A 
ATOM      4  C   LIG A   1      -8.004   1.458 127.410  0.00  0.00    +0.146 A 
ATOM      5  C   LIG A   1      -8.142   2.783 127.813  0.00  0.00    +0.092 A 
ATOM      6  C   LIG A   1      -8.160   3.094 129.160  0.00  0.00    +0.128 A 
ATOM      7  C   LIG A   1      -8.091   2.050 130.086  0.00  0.00    +0.050 A 
ATOM      8  C   LIG A   1      -7.993   0.693 129.679  0.00  0.00    -0.033 A 
ATOM      9  C   LIG A   1      -8.025  -0.348 130.768  0.00  0.00    +0.045 C 
ATOM     10  O   LIG A   1      -8.042   1.289 126.014  0.00  0.00    -0.422 OA
ATOM     11  C   LIG A   1      -8.021   0.034 125.451  0.00  0.00    +0.341 A 
ATOM     12  O   LIG A   1      -8.162  -0.150 124.255  0.00  0.00    -0.245 OA
ATOM     13  C   LIG A   1      -7.757  -1.082 126.362  0.00  0.00    +0.138 A 
BRANCH   2  14
ATOM     14  O   LIG A   1      -7.342  -1.969 128.563  0.00  0.00    -0.494 OA
ATOM     15  C   LIG A   1      -8.039  -3.205 128.421  0.00  0.00    +0.277 C 
ENDBRANCH   2  14
ENDBRANCH   1   6
BRANCH   1  16
ATOM     16  C   LIG A   1      -9.612   4.954 129.490  0.00  0.00    +0.339 C 
ATOM     17  O   LIG A   1      -9.453   6.282 128.976  0.00  0.00    -0.331 OA
ATOM     18  C   LIG A   1     -10.672   7.009 128.882  0.00  0.00    +0.179 C 
ATOM     19  C   LIG A   1     -11.218   7.233 130.298  0.00  0.00    +0.177 C 
ATOM     20  C   LIG A   1     -11.541   5.861 130.891  0.00  0.00    +0.180 C 
ATOM     21  C   LIG A   1     -10.340   4.914 130.856  0.00  0.00    +0.214 C 
BRANCH  21  22
ATOM     22  O   LIG A   1     -10.821   3.578 131.116  0.00  0.00    -0.383 OA
ATOM     23  H   LIG A   1     -10.034   3.002 131.078  0.00  0.00    +0.210 HD
ENDBRANCH  21  22
BRANCH  20  24
ATOM     24  O   LIG A   1     -11.990   6.008 132.249  0.00  0.00    -0.386 OA
ATOM     25  H   LIG A   1     -12.529   6.826 132.249  0.00  0.00    +0.210 HD
ENDBRANCH  20  24
BRANCH  19  26
ATOM     26  O   LIG A   1     -12.415   8.015 130.330  0.00  0.00    -0.387 OA
ATOM     27  H   LIG A   1     -12.154   8.942 130.131  0.00  0.00    +0.210 HD
ENDBRANCH  19  26
BRANCH  18  28
ATOM     28  C   LIG A   1     -10.397   8.325 128.146  0.00  0.00    +0.190 C 
BRANCH  28  29
ATOM     29  O   LIG A   1     -11.594   9.082 127.985  0.00  0.00    -0.392 OA
ATOM     30  H   LIG A   1     -11.487   9.621 127.178  0.00  0.00    +0.209 HD
ENDBRANCH  28  29
ENDBRANCH  18  28
ENDBRANCH   1  16
TORSDOF 8
ENDMDL
