MODEL 1
REMARK VINA RESULT:      -8.9      0.000      0.000
REMARK  Name = NuBBE_479
REMARK  12 active torsions:
REMARK  status: ('A' for Active; 'I' for Inactive)
REMARK    1  A    between atoms: C_1  and  C_2
REMARK    2  A    between atoms: C_2  and  C_39
REMARK    3  A    between atoms: C_3  and  O_38
REMARK    4  A    between atoms: C_7  and  C_37
REMARK    5  A    between atoms: C_11  and  C_36
REMARK    6  A    between atoms: C_17  and  C_35
REMARK    7  A    between atoms: C_20  and  C_31
REMARK    8  A    between atoms: C_23  and  C_30
REMARK    9  A    between atoms: C_25  and  C_29
REMARK   10  A    between atoms: C_31  and  O_32
REMARK   11  A    between atoms: O_32  and  C_33
REMARK   12  A    between atoms: C_39  and  O_40
REMARK                            x       y       z     vdW  Elec       q    Type
REMARK                         _______ _______ _______ _____ _____    ______ ____
ROOT
ATOM      1  C   LIG A   1      -4.447   6.519 132.050  0.00  0.00    +0.016 C 
ATOM      2  C   LIG A   1      -4.059   6.562 130.546  0.00  0.00    +0.020 C 
ATOM      3  C   LIG A   1      -2.497   6.616 130.445  0.00  0.00    +0.123 C 
ATOM      4  C   LIG A   1      -1.957   6.335 129.043  0.00  0.00    +0.032 C 
ATOM      5  C   LIG A   1      -2.472   5.014 128.469  0.00  0.00    +0.010 C 
ATOM      6  C   LIG A   1      -4.028   4.901 128.430  0.00  0.00    -0.025 C 
ATOM      7  C   LIG A   1      -4.595   5.241 129.851  0.00  0.00    +0.006 C 
ATOM      8  C   LIG A   1      -6.111   4.956 129.998  0.00  0.00    +0.005 C 
ATOM      9  C   LIG A   1      -6.790   4.202 128.846  0.00  0.00    +0.008 C 
ATOM     10  C   LIG A   1      -5.978   3.035 128.226  0.00  0.00    -0.019 C 
ATOM     11  C   LIG A   1      -4.430   3.383 128.153  0.00  0.00    +0.006 C 
ATOM     12  C   LIG A   1      -3.676   2.716 126.984  0.00  0.00    +0.031 C 
ATOM     13  C   LIG A   1      -4.365   1.545 126.356  0.00  0.00    -0.026 C 
ATOM     14  C   LIG A   1      -5.706   1.422 126.250  0.00  0.00    -0.063 C 
ATOM     15  C   LIG A   1      -6.572   2.564 126.793  0.00  0.00    -0.005 C 
ATOM     16  C   LIG A   1      -8.066   2.136 126.877  0.00  0.00    +0.012 C 
ATOM     17  C   LIG A   1      -8.604   1.509 125.579  0.00  0.00    +0.019 C 
ATOM     18  C   LIG A   1      -7.864   0.197 125.229  0.00  0.00    +0.074 C 
ATOM     19  C   LIG A   1      -6.318   0.352 125.338  0.00  0.00    +0.035 C 
ATOM     20  C   LIG A   1      -5.565  -1.017 125.206  0.00  0.00    -0.003 C 
ATOM     21  C   LIG A   1      -6.314  -1.997 124.262  0.00  0.00    -0.011 C 
ATOM     22  C   LIG A   1      -7.157  -1.271 123.198  0.00  0.00    +0.004 C 
ATOM     23  C   LIG A   1      -8.120  -0.186 123.734  0.00  0.00    +0.019 C 
ATOM     24  C   LIG A   1      -5.345  -2.976 123.588  0.00  0.00    +0.008 C 
ATOM     25  C   LIG A   1      -5.224  -1.701 126.542  0.00  0.00    +0.008 C 
ATOM     26  C   LIG A   1      -6.511   3.705 125.735  0.00  0.00    +0.016 C 
ATOM     27  C   LIG A   1      -6.103   1.850 129.251  0.00  0.00    +0.012 C 
ATOM     28  C   LIG A   1      -4.508   5.855 127.318  0.00  0.00    +0.012 C 
ENDROOT
BRANCH  18  29
ATOM     29  C   LIG A   1      -8.511  -0.885 126.142  0.00  0.00    +0.314 C 
ATOM     30  O   LIG A   1      -8.231  -1.116 127.298  0.00  0.00    -0.250 OA
BRANCH  29  31
ATOM     31  O   LIG A   1      -9.514  -1.534 125.465  0.00  0.00    -0.468 OA
ATOM     32  C   LIG A   1      -9.629  -2.933 125.720  0.00  0.00    +0.280 C 
ENDBRANCH  29  31
ENDBRANCH  18  29
BRANCH   3  33
ATOM     33  O   LIG A   1      -1.873   5.707 131.356  0.00  0.00    -0.391 OA
ATOM     34  H   LIG A   1      -2.448   5.587 132.128  0.00  0.00    +0.210 HD
ENDBRANCH   3  33
BRANCH   2  35
ATOM     35  C   LIG A   1      -4.594   7.906 129.973  0.00  0.00    +0.165 C 
BRANCH  35  36
ATOM     36  O   LIG A   1      -3.774   9.030 130.244  0.00  0.00    -0.394 OA
ATOM     37  H   LIG A   1      -4.243   9.594 130.883  0.00  0.00    +0.209 HD
ENDBRANCH  35  36
ENDBRANCH   2  35
TORSDOF 5
ENDMDL
MODEL 2
REMARK VINA RESULT:      -8.7      2.127      2.611
REMARK  Name = NuBBE_479
REMARK  12 active torsions:
REMARK  status: ('A' for Active; 'I' for Inactive)
REMARK    1  A    between atoms: C_1  and  C_2
REMARK    2  A    between atoms: C_2  and  C_39
REMARK    3  A    between atoms: C_3  and  O_38
REMARK    4  A    between atoms: C_7  and  C_37
REMARK    5  A    between atoms: C_11  and  C_36
REMARK    6  A    between atoms: C_17  and  C_35
REMARK    7  A    between atoms: C_20  and  C_31
REMARK    8  A    between atoms: C_23  and  C_30
REMARK    9  A    between atoms: C_25  and  C_29
REMARK   10  A    between atoms: C_31  and  O_32
REMARK   11  A    between atoms: O_32  and  C_33
REMARK   12  A    between atoms: C_39  and  O_40
REMARK                            x       y       z     vdW  Elec       q    Type
REMARK                         _______ _______ _______ _____ _____    ______ ____
ROOT
ATOM      1  C   LIG A   1      -7.897   4.261 133.482  0.00  0.00    +0.016 C 
ATOM      2  C   LIG A   1      -7.003   4.655 132.274  0.00  0.00    +0.020 C 
ATOM      3  C   LIG A   1      -5.522   4.754 132.774  0.00  0.00    +0.123 C 
ATOM      4  C   LIG A   1      -4.490   4.811 131.648  0.00  0.00    +0.032 C 
ATOM      5  C   LIG A   1      -4.632   3.650 130.662  0.00  0.00    +0.010 C 
ATOM      6  C   LIG A   1      -6.051   3.526 130.026  0.00  0.00    -0.025 C 
ATOM      7  C   LIG A   1      -7.120   3.521 131.172  0.00  0.00    +0.006 C 
ATOM      8  C   LIG A   1      -8.552   3.187 130.682  0.00  0.00    +0.005 C 
ATOM      9  C   LIG A   1      -8.695   2.708 129.230  0.00  0.00    +0.008 C 
ATOM     10  C   LIG A   1      -7.603   1.727 128.728  0.00  0.00    -0.019 C 
ATOM     11  C   LIG A   1      -6.175   2.106 129.309  0.00  0.00    +0.006 C 
ATOM     12  C   LIG A   1      -4.990   1.737 128.393  0.00  0.00    +0.031 C 
ATOM     13  C   LIG A   1      -5.288   0.732 127.325  0.00  0.00    -0.026 C 
ATOM     14  C   LIG A   1      -6.482   0.616 126.705  0.00  0.00    -0.063 C 
ATOM     15  C   LIG A   1      -7.594   1.590 127.113  0.00  0.00    -0.005 C 
ATOM     16  C   LIG A   1      -8.969   1.132 126.544  0.00  0.00    +0.012 C 
ATOM     17  C   LIG A   1      -8.942   0.812 125.040  0.00  0.00    +0.019 C 
ATOM     18  C   LIG A   1      -7.999  -0.373 124.725  0.00  0.00    +0.074 C 
ATOM     19  C   LIG A   1      -6.618  -0.225 125.430  0.00  0.00    +0.035 C 
ATOM     20  C   LIG A   1      -5.736  -1.515 125.305  0.00  0.00    -0.003 C 
ATOM     21  C   LIG A   1      -5.996  -2.263 123.969  0.00  0.00    -0.011 C 
ATOM     22  C   LIG A   1      -6.470  -1.324 122.844  0.00  0.00    +0.004 C 
ATOM     23  C   LIG A   1      -7.662  -0.406 123.198  0.00  0.00    +0.019 C 
ATOM     24  C   LIG A   1      -4.758  -3.045 123.516  0.00  0.00    +0.008 C 
ATOM     25  C   LIG A   1      -5.831  -2.482 126.499  0.00  0.00    +0.008 C 
ATOM     26  C   LIG A   1      -7.271   2.945 126.415  0.00  0.00    +0.016 C 
ATOM     27  C   LIG A   1      -7.970   0.337 129.362  0.00  0.00    +0.012 C 
ATOM     28  C   LIG A   1      -6.193   4.703 129.039  0.00  0.00    +0.012 C 
ENDROOT
BRANCH  18  29
ATOM     29  C   LIG A   1      -8.819  -1.646 125.086  0.00  0.00    +0.314 C 
ATOM     30  O   LIG A   1      -8.888  -2.177 126.173  0.00  0.00    -0.250 OA
BRANCH  29  31
ATOM     31  O   LIG A   1      -9.526  -2.076 123.990  0.00  0.00    -0.468 OA
ATOM     32  C   LIG A   1      -9.485  -3.480 123.739  0.00  0.00    +0.280 C 
ENDBRANCH  29  31
ENDBRANCH  18  29
BRANCH   3  33
ATOM     33  O   LIG A   1      -5.179   3.669 133.641  0.00  0.00    -0.391 OA
ATOM     34  H   LIG A   1      -4.297   3.341 133.403  0.00  0.00    +0.210 HD
ENDBRANCH   3  33
BRANCH   2  35
ATOM     35  C   LIG A   1      -7.427   6.087 131.837  0.00  0.00    +0.165 C 
BRANCH  35  36
ATOM     36  O   LIG A   1      -8.723   6.473 132.259  0.00  0.00    -0.394 OA
ATOM     37  H   LIG A   1      -9.001   7.229 131.714  0.00  0.00    +0.209 HD
ENDBRANCH  35  36
ENDBRANCH   2  35
TORSDOF 5
ENDMDL
MODEL 3
REMARK VINA RESULT:      -8.4      4.690      6.655
REMARK  Name = NuBBE_479
REMARK  12 active torsions:
REMARK  status: ('A' for Active; 'I' for Inactive)
REMARK    1  A    between atoms: C_1  and  C_2
REMARK    2  A    between atoms: C_2  and  C_39
REMARK    3  A    between atoms: C_3  and  O_38
REMARK    4  A    between atoms: C_7  and  C_37
REMARK    5  A    between atoms: C_11  and  C_36
REMARK    6  A    between atoms: C_17  and  C_35
REMARK    7  A    between atoms: C_20  and  C_31
REMARK    8  A    between atoms: C_23  and  C_30
REMARK    9  A    between atoms: C_25  and  C_29
REMARK   10  A    between atoms: C_31  and  O_32
REMARK   11  A    between atoms: O_32  and  C_33
REMARK   12  A    between atoms: C_39  and  O_40
REMARK                            x       y       z     vdW  Elec       q    Type
REMARK                         _______ _______ _______ _____ _____    ______ ____
ROOT
ATOM      1  C   LIG A   1      -7.164  -3.908 134.622  0.00  0.00    +0.016 C 
ATOM      2  C   LIG A   1      -5.982  -3.216 133.888  0.00  0.00    +0.020 C 
ATOM      3  C   LIG A   1      -4.743  -4.174 133.946  0.00  0.00    +0.123 C 
ATOM      4  C   LIG A   1      -3.612  -3.781 132.996  0.00  0.00    +0.032 C 
ATOM      5  C   LIG A   1      -4.086  -3.630 131.550  0.00  0.00    +0.010 C 
ATOM      6  C   LIG A   1      -5.257  -2.616 131.368  0.00  0.00    -0.025 C 
ATOM      7  C   LIG A   1      -6.401  -2.977 132.377  0.00  0.00    +0.006 C 
ATOM      8  C   LIG A   1      -7.706  -2.175 132.147  0.00  0.00    +0.005 C 
ATOM      9  C   LIG A   1      -7.782  -1.321 130.873  0.00  0.00    +0.008 C 
ATOM     10  C   LIG A   1      -7.192  -1.962 129.590  0.00  0.00    -0.019 C 
ATOM     11  C   LIG A   1      -5.885  -2.804 129.914  0.00  0.00    +0.006 C 
ATOM     12  C   LIG A   1      -4.856  -2.859 128.766  0.00  0.00    +0.031 C 
ATOM     13  C   LIG A   1      -5.379  -2.497 127.412  0.00  0.00    -0.026 C 
ATOM     14  C   LIG A   1      -6.354  -1.588 127.194  0.00  0.00    -0.063 C 
ATOM     15  C   LIG A   1      -6.947  -0.873 128.414  0.00  0.00    -0.005 C 
ATOM     16  C   LIG A   1      -8.246  -0.107 128.031  0.00  0.00    +0.012 C 
ATOM     17  C   LIG A   1      -8.091   0.796 126.795  0.00  0.00    +0.019 C 
ATOM     18  C   LIG A   1      -7.759  -0.024 125.527  0.00  0.00    +0.074 C 
ATOM     19  C   LIG A   1      -6.622  -1.058 125.780  0.00  0.00    +0.035 C 
ATOM     20  C   LIG A   1      -6.426  -2.046 124.578  0.00  0.00    -0.003 C 
ATOM     21  C   LIG A   1      -6.748  -1.367 123.218  0.00  0.00    -0.011 C 
ATOM     22  C   LIG A   1      -6.519   0.155 123.244  0.00  0.00    +0.004 C 
ATOM     23  C   LIG A   1      -7.198   0.914 124.407  0.00  0.00    +0.019 C 
ATOM     24  C   LIG A   1      -5.949  -2.002 122.074  0.00  0.00    +0.008 C 
ATOM     25  C   LIG A   1      -7.175  -3.384 124.711  0.00  0.00    +0.008 C 
ATOM     26  C   LIG A   1      -5.915   0.214 128.834  0.00  0.00    +0.016 C 
ATOM     27  C   LIG A   1      -8.267  -3.004 129.113  0.00  0.00    +0.012 C 
ATOM     28  C   LIG A   1      -4.656  -1.211 131.577  0.00  0.00    +0.012 C 
ENDROOT
BRANCH  18  29
ATOM     29  C   LIG A   1      -9.123  -0.607 125.056  0.00  0.00    +0.314 C 
ATOM     30  O   LIG A   1      -9.632  -1.643 125.426  0.00  0.00    -0.250 OA
BRANCH  29  31
ATOM     31  O   LIG A   1      -9.727   0.259 124.178  0.00  0.00    -0.468 OA
ATOM     32  C   LIG A   1     -10.100  -0.297 122.918  0.00  0.00    +0.280 C 
ENDBRANCH  29  31
ENDBRANCH  18  29
BRANCH   3  33
ATOM     33  O   LIG A   1      -5.105  -5.531 133.676  0.00  0.00    -0.391 OA
ATOM     34  H   LIG A   1      -5.692  -5.848 134.381  0.00  0.00    +0.210 HD
ENDBRANCH   3  33
BRANCH   2  35
ATOM     35  C   LIG A   1      -5.610  -1.949 134.709  0.00  0.00    +0.165 C 
BRANCH  35  36
ATOM     36  O   LIG A   1      -6.667  -1.424 135.494  0.00  0.00    -0.394 OA
ATOM     37  H   LIG A   1      -6.286  -0.778 136.113  0.00  0.00    +0.209 HD
ENDBRANCH  35  36
ENDBRANCH   2  35
TORSDOF 5
ENDMDL
MODEL 4
REMARK VINA RESULT:      -8.4      4.856      9.010
REMARK  Name = NuBBE_479
REMARK  12 active torsions:
REMARK  status: ('A' for Active; 'I' for Inactive)
REMARK    1  A    between atoms: C_1  and  C_2
REMARK    2  A    between atoms: C_2  and  C_39
REMARK    3  A    between atoms: C_3  and  O_38
REMARK    4  A    between atoms: C_7  and  C_37
REMARK    5  A    between atoms: C_11  and  C_36
REMARK    6  A    between atoms: C_17  and  C_35
REMARK    7  A    between atoms: C_20  and  C_31
REMARK    8  A    between atoms: C_23  and  C_30
REMARK    9  A    between atoms: C_25  and  C_29
REMARK   10  A    between atoms: C_31  and  O_32
REMARK   11  A    between atoms: O_32  and  C_33
REMARK   12  A    between atoms: C_39  and  O_40
REMARK                            x       y       z     vdW  Elec       q    Type
REMARK                         _______ _______ _______ _____ _____    ______ ____
ROOT
ATOM      1  C   LIG A   1      -6.340  -1.329 122.862  0.00  0.00    +0.016 C 
ATOM      2  C   LIG A   1      -7.472  -1.124 123.907  0.00  0.00    +0.020 C 
ATOM      3  C   LIG A   1      -8.665  -2.064 123.525  0.00  0.00    +0.123 C 
ATOM      4  C   LIG A   1      -9.711  -2.217 124.629  0.00  0.00    +0.032 C 
ATOM      5  C   LIG A   1      -9.100  -2.663 125.959  0.00  0.00    +0.010 C 
ATOM      6  C   LIG A   1      -7.964  -1.730 126.481  0.00  0.00    -0.025 C 
ATOM      7  C   LIG A   1      -6.913  -1.523 125.337  0.00  0.00    +0.006 C 
ATOM      8  C   LIG A   1      -5.629  -0.790 125.800  0.00  0.00    +0.005 C 
ATOM      9  C   LIG A   1      -5.464  -0.565 127.309  0.00  0.00    +0.008 C 
ATOM     10  C   LIG A   1      -5.891  -1.744 128.222  0.00  0.00    -0.019 C 
ATOM     11  C   LIG A   1      -7.184  -2.472 127.658  0.00  0.00    +0.006 C 
ATOM     12  C   LIG A   1      -8.088  -3.103 128.737  0.00  0.00    +0.031 C 
ATOM     13  C   LIG A   1      -7.448  -3.316 130.073  0.00  0.00    -0.026 C 
ATOM     14  C   LIG A   1      -6.498  -2.510 130.595  0.00  0.00    -0.063 C 
ATOM     15  C   LIG A   1      -6.064  -1.292 129.770  0.00  0.00    -0.005 C 
ATOM     16  C   LIG A   1      -4.770  -0.658 130.356  0.00  0.00    +0.012 C 
ATOM     17  C   LIG A   1      -4.840  -0.391 131.869  0.00  0.00    +0.019 C 
ATOM     18  C   LIG A   1      -5.004  -1.702 132.673  0.00  0.00    +0.074 C 
ATOM     19  C   LIG A   1      -6.113  -2.620 132.075  0.00  0.00    +0.035 C 
ATOM     20  C   LIG A   1      -6.140  -4.041 132.736  0.00  0.00    -0.003 C 
ATOM     21  C   LIG A   1      -5.713  -3.989 134.229  0.00  0.00    -0.011 C 
ATOM     22  C   LIG A   1      -6.013  -2.630 134.887  0.00  0.00    +0.004 C 
ATOM     23  C   LIG A   1      -5.491  -1.390 134.126  0.00  0.00    +0.019 C 
ATOM     24  C   LIG A   1      -6.363  -5.120 135.035  0.00  0.00    +0.008 C 
ATOM     25  C   LIG A   1      -5.348  -5.123 131.980  0.00  0.00    +0.008 C 
ATOM     26  C   LIG A   1      -7.183  -0.222 129.942  0.00  0.00    +0.016 C 
ATOM     27  C   LIG A   1      -4.727  -2.794 128.119  0.00  0.00    +0.012 C 
ATOM     28  C   LIG A   1      -8.646  -0.429 126.950  0.00  0.00    +0.012 C 
ENDROOT
BRANCH  18  29
ATOM     29  C   LIG A   1      -3.574  -2.313 132.743  0.00  0.00    +0.314 C 
ATOM     30  O   LIG A   1      -3.029  -2.975 131.887  0.00  0.00    -0.250 OA
BRANCH  29  31
ATOM     31  O   LIG A   1      -2.963  -1.947 133.917  0.00  0.00    -0.468 OA
ATOM     32  C   LIG A   1      -1.721  -1.258 133.779  0.00  0.00    +0.280 C 
ENDBRANCH  29  31
ENDBRANCH  18  29
BRANCH   3  33
ATOM     33  O   LIG A   1      -8.216  -3.369 123.149  0.00  0.00    -0.391 OA
ATOM     34  H   LIG A   1      -7.818  -3.325 122.265  0.00  0.00    +0.210 HD
ENDBRANCH   3  33
BRANCH   2  35
ATOM     35  C   LIG A   1      -7.982   0.337 123.751  0.00  0.00    +0.165 C 
BRANCH  35  36
ATOM     36  O   LIG A   1      -7.043   1.232 123.180  0.00  0.00    -0.394 OA
ATOM     37  H   LIG A   1      -7.370   2.137 123.320  0.00  0.00    +0.209 HD
ENDBRANCH  35  36
ENDBRANCH   2  35
TORSDOF 5
ENDMDL
MODEL 5
REMARK VINA RESULT:      -8.4      3.548      8.861
REMARK  Name = NuBBE_479
REMARK  12 active torsions:
REMARK  status: ('A' for Active; 'I' for Inactive)
REMARK    1  A    between atoms: C_1  and  C_2
REMARK    2  A    between atoms: C_2  and  C_39
REMARK    3  A    between atoms: C_3  and  O_38
REMARK    4  A    between atoms: C_7  and  C_37
REMARK    5  A    between atoms: C_11  and  C_36
REMARK    6  A    between atoms: C_17  and  C_35
REMARK    7  A    between atoms: C_20  and  C_31
REMARK    8  A    between atoms: C_23  and  C_30
REMARK    9  A    between atoms: C_25  and  C_29
REMARK   10  A    between atoms: C_31  and  O_32
REMARK   11  A    between atoms: O_32  and  C_33
REMARK   12  A    between atoms: C_39  and  O_40
REMARK                            x       y       z     vdW  Elec       q    Type
REMARK                         _______ _______ _______ _____ _____    ______ ____
ROOT
ATOM      1  C   LIG A   1      -7.506  -4.026 124.351  0.00  0.00    +0.016 C 
ATOM      2  C   LIG A   1      -7.298  -2.487 124.293  0.00  0.00    +0.020 C 
ATOM      3  C   LIG A   1      -8.449  -1.871 123.427  0.00  0.00    +0.123 C 
ATOM      4  C   LIG A   1      -8.569  -0.351 123.547  0.00  0.00    +0.032 C 
ATOM      5  C   LIG A   1      -8.701   0.115 124.997  0.00  0.00    +0.010 C 
ATOM      6  C   LIG A   1      -7.543  -0.363 125.927  0.00  0.00    -0.025 C 
ATOM      7  C   LIG A   1      -7.376  -1.914 125.770  0.00  0.00    +0.006 C 
ATOM      8  C   LIG A   1      -6.402  -2.540 126.800  0.00  0.00    +0.005 C 
ATOM      9  C   LIG A   1      -5.913  -1.630 127.935  0.00  0.00    +0.008 C 
ATOM     10  C   LIG A   1      -6.976  -0.686 128.555  0.00  0.00    -0.019 C 
ATOM     11  C   LIG A   1      -7.964  -0.122 127.446  0.00  0.00    +0.006 C 
ATOM     12  C   LIG A   1      -8.534   1.279 127.746  0.00  0.00    +0.031 C 
ATOM     13  C   LIG A   1      -8.433   1.726 129.170  0.00  0.00    -0.026 C 
ATOM     14  C   LIG A   1      -7.426   1.384 130.002  0.00  0.00    -0.063 C 
ATOM     15  C   LIG A   1      -6.309   0.496 129.442  0.00  0.00    -0.005 C 
ATOM     16  C   LIG A   1      -5.409  -0.053 130.587  0.00  0.00    +0.012 C 
ATOM     17  C   LIG A   1      -4.913   1.032 131.559  0.00  0.00    +0.019 C 
ATOM     18  C   LIG A   1      -6.086   1.710 132.305  0.00  0.00    +0.074 C 
ATOM     19  C   LIG A   1      -7.237   2.116 131.337  0.00  0.00    +0.035 C 
ATOM     20  C   LIG A   1      -8.522   2.598 132.096  0.00  0.00    -0.003 C 
ATOM     21  C   LIG A   1      -8.168   3.306 133.433  0.00  0.00    -0.011 C 
ATOM     22  C   LIG A   1      -6.777   3.966 133.406  0.00  0.00    +0.004 C 
ATOM     23  C   LIG A   1      -5.615   3.056 132.946  0.00  0.00    +0.019 C 
ATOM     24  C   LIG A   1      -9.233   4.340 133.817  0.00  0.00    +0.008 C 
ATOM     25  C   LIG A   1      -9.587   1.510 132.322  0.00  0.00    +0.008 C 
ATOM     26  C   LIG A   1      -5.396   1.423 128.585  0.00  0.00    +0.016 C 
ATOM     27  C   LIG A   1      -7.852  -1.599 129.486  0.00  0.00    +0.012 C 
ATOM     28  C   LIG A   1      -6.294   0.446 125.523  0.00  0.00    +0.012 C 
ENDROOT
BRANCH  18  29
ATOM     29  C   LIG A   1      -6.466   0.718 133.443  0.00  0.00    +0.314 C 
ATOM     30  O   LIG A   1      -7.231  -0.219 133.360  0.00  0.00    -0.250 OA
BRANCH  29  31
ATOM     31  O   LIG A   1      -5.758   1.014 134.581  0.00  0.00    -0.468 OA
ATOM     32  C   LIG A   1      -5.420  -0.099 135.408  0.00  0.00    +0.280 C 
ENDBRANCH  29  31
ENDBRANCH  18  29
BRANCH   3  33
ATOM     33  O   LIG A   1      -9.720  -2.446 123.742  0.00  0.00    -0.391 OA
ATOM     34  H   LIG A   1     -10.354  -2.215 123.044  0.00  0.00    +0.210 HD
ENDBRANCH   3  33
BRANCH   2  35
ATOM     35  C   LIG A   1      -5.970  -2.231 123.525  0.00  0.00    +0.165 C 
BRANCH  35  36
ATOM     36  O   LIG A   1      -5.059  -3.317 123.544  0.00  0.00    -0.394 OA
ATOM     37  H   LIG A   1      -4.878  -3.570 122.623  0.00  0.00    +0.209 HD
ENDBRANCH  35  36
ENDBRANCH   2  35
TORSDOF 5
ENDMDL
MODEL 6
REMARK VINA RESULT:      -8.3      4.583      6.681
REMARK  Name = NuBBE_479
REMARK  12 active torsions:
REMARK  status: ('A' for Active; 'I' for Inactive)
REMARK    1  A    between atoms: C_1  and  C_2
REMARK    2  A    between atoms: C_2  and  C_39
REMARK    3  A    between atoms: C_3  and  O_38
REMARK    4  A    between atoms: C_7  and  C_37
REMARK    5  A    between atoms: C_11  and  C_36
REMARK    6  A    between atoms: C_17  and  C_35
REMARK    7  A    between atoms: C_20  and  C_31
REMARK    8  A    between atoms: C_23  and  C_30
REMARK    9  A    between atoms: C_25  and  C_29
REMARK   10  A    between atoms: C_31  and  O_32
REMARK   11  A    between atoms: O_32  and  C_33
REMARK   12  A    between atoms: C_39  and  O_40
REMARK                            x       y       z     vdW  Elec       q    Type
REMARK                         _______ _______ _______ _____ _____    ______ ____
ROOT
ATOM      1  C   LIG A   1      -5.864  -0.243 134.919  0.00  0.00    +0.016 C 
ATOM      2  C   LIG A   1      -5.536  -1.545 134.138  0.00  0.00    +0.020 C 
ATOM      3  C   LIG A   1      -6.326  -2.724 134.801  0.00  0.00    +0.123 C 
ATOM      4  C   LIG A   1      -6.363  -3.998 133.956  0.00  0.00    +0.032 C 
ATOM      5  C   LIG A   1      -6.889  -3.747 132.541  0.00  0.00    +0.010 C 
ATOM      6  C   LIG A   1      -6.100  -2.656 131.754  0.00  0.00    -0.025 C 
ATOM      7  C   LIG A   1      -6.009  -1.363 132.636  0.00  0.00    +0.006 C 
ATOM      8  C   LIG A   1      -5.436  -0.137 131.881  0.00  0.00    +0.005 C 
ATOM      9  C   LIG A   1      -5.243  -0.283 130.365  0.00  0.00    +0.008 C 
ATOM     10  C   LIG A   1      -6.370  -1.030 129.606  0.00  0.00    -0.019 C 
ATOM     11  C   LIG A   1      -6.937  -2.242 130.461  0.00  0.00    +0.006 C 
ATOM     12  C   LIG A   1      -7.466  -3.426 129.626  0.00  0.00    +0.031 C 
ATOM     13  C   LIG A   1      -7.763  -3.122 128.191  0.00  0.00    -0.026 C 
ATOM     14  C   LIG A   1      -7.078  -2.225 127.448  0.00  0.00    -0.063 C 
ATOM     15  C   LIG A   1      -5.913  -1.486 128.119  0.00  0.00    -0.005 C 
ATOM     16  C   LIG A   1      -5.440  -0.289 127.245  0.00  0.00    +0.012 C 
ATOM     17  C   LIG A   1      -5.180  -0.659 125.775  0.00  0.00    +0.019 C 
ATOM     18  C   LIG A   1      -6.468  -1.142 125.070  0.00  0.00    +0.074 C 
ATOM     19  C   LIG A   1      -7.244  -2.189 125.925  0.00  0.00    +0.035 C 
ATOM     20  C   LIG A   1      -8.658  -2.521 125.333  0.00  0.00    -0.003 C 
ATOM     21  C   LIG A   1      -8.668  -2.429 123.782  0.00  0.00    -0.011 C 
ATOM     22  C   LIG A   1      -7.288  -2.710 123.160  0.00  0.00    +0.004 C 
ATOM     23  C   LIG A   1      -6.112  -1.897 123.747  0.00  0.00    +0.019 C 
ATOM     24  C   LIG A   1      -9.721  -3.363 123.174  0.00  0.00    +0.008 C 
ATOM     25  C   LIG A   1      -9.819  -1.710 125.935  0.00  0.00    +0.008 C 
ATOM     26  C   LIG A   1      -4.721  -2.487 128.158  0.00  0.00    +0.016 C 
ATOM     27  C   LIG A   1      -7.549   0.002 129.490  0.00  0.00    +0.012 C 
ATOM     28  C   LIG A   1      -4.731  -3.273 131.401  0.00  0.00    +0.012 C 
ENDROOT
BRANCH  18  29
ATOM     29  C   LIG A   1      -7.243   0.160 124.712  0.00  0.00    +0.314 C 
ATOM     30  O   LIG A   1      -7.999   0.772 125.434  0.00  0.00    -0.250 OA
BRANCH  29  31
ATOM     31  O   LIG A   1      -6.908   0.574 123.447  0.00  0.00    -0.468 OA
ATOM     32  C   LIG A   1      -6.974   1.981 123.218  0.00  0.00    +0.280 C 
ENDBRANCH  29  31
ENDBRANCH  18  29
BRANCH   3  33
ATOM     33  O   LIG A   1      -7.672  -2.355 135.114  0.00  0.00    -0.391 OA
ATOM     34  H   LIG A   1      -7.769  -2.300 136.078  0.00  0.00    +0.210 HD
ENDBRANCH   3  33
BRANCH   2  35
ATOM     35  C   LIG A   1      -4.023  -1.840 134.353  0.00  0.00    +0.165 C 
BRANCH  35  36
ATOM     36  O   LIG A   1      -3.239  -0.703 134.667  0.00  0.00    -0.394 OA
ATOM     37  H   LIG A   1      -3.841   0.055 134.770  0.00  0.00    +0.209 HD
ENDBRANCH  35  36
ENDBRANCH   2  35
TORSDOF 5
ENDMDL
MODEL 7
REMARK VINA RESULT:      -8.2      3.218      4.817
REMARK  Name = NuBBE_479
REMARK  12 active torsions:
REMARK  status: ('A' for Active; 'I' for Inactive)
REMARK    1  A    between atoms: C_1  and  C_2
REMARK    2  A    between atoms: C_2  and  C_39
REMARK    3  A    between atoms: C_3  and  O_38
REMARK    4  A    between atoms: C_7  and  C_37
REMARK    5  A    between atoms: C_11  and  C_36
REMARK    6  A    between atoms: C_17  and  C_35
REMARK    7  A    between atoms: C_20  and  C_31
REMARK    8  A    between atoms: C_23  and  C_30
REMARK    9  A    between atoms: C_25  and  C_29
REMARK   10  A    between atoms: C_31  and  O_32
REMARK   11  A    between atoms: O_32  and  C_33
REMARK   12  A    between atoms: C_39  and  O_40
REMARK                            x       y       z     vdW  Elec       q    Type
REMARK                         _______ _______ _______ _____ _____    ______ ____
ROOT
ATOM      1  C   LIG A   1      -5.194   6.227 133.091  0.00  0.00    +0.016 C 
ATOM      2  C   LIG A   1      -6.615   5.844 132.592  0.00  0.00    +0.020 C 
ATOM      3  C   LIG A   1      -7.083   6.935 131.570  0.00  0.00    +0.123 C 
ATOM      4  C   LIG A   1      -8.310   6.532 130.753  0.00  0.00    +0.032 C 
ATOM      5  C   LIG A   1      -8.125   5.192 130.038  0.00  0.00    +0.010 C 
ATOM      6  C   LIG A   1      -7.755   4.011 130.987  0.00  0.00    -0.025 C 
ATOM      7  C   LIG A   1      -6.530   4.435 131.869  0.00  0.00    +0.006 C 
ATOM      8  C   LIG A   1      -5.933   3.273 132.701  0.00  0.00    +0.005 C 
ATOM      9  C   LIG A   1      -6.459   1.862 132.401  0.00  0.00    +0.008 C 
ATOM     10  C   LIG A   1      -6.683   1.526 130.904  0.00  0.00    -0.019 C 
ATOM     11  C   LIG A   1      -7.252   2.778 130.109  0.00  0.00    +0.006 C 
ATOM     12  C   LIG A   1      -8.158   2.423 128.913  0.00  0.00    +0.031 C 
ATOM     13  C   LIG A   1      -8.045   1.017 128.412  0.00  0.00    -0.026 C 
ATOM     14  C   LIG A   1      -7.778  -0.049 129.199  0.00  0.00    -0.063 C 
ATOM     15  C   LIG A   1      -7.597   0.202 130.701  0.00  0.00    -0.005 C 
ATOM     16  C   LIG A   1      -6.998  -1.051 131.403  0.00  0.00    +0.012 C 
ATOM     17  C   LIG A   1      -7.737  -2.359 131.075  0.00  0.00    +0.019 C 
ATOM     18  C   LIG A   1      -7.649  -2.703 129.570  0.00  0.00    +0.074 C 
ATOM     19  C   LIG A   1      -7.974  -1.474 128.669  0.00  0.00    +0.035 C 
ATOM     20  C   LIG A   1      -7.673  -1.741 127.154  0.00  0.00    -0.003 C 
ATOM     21  C   LIG A   1      -7.904  -3.230 126.775  0.00  0.00    -0.011 C 
ATOM     22  C   LIG A   1      -8.953  -3.915 127.670  0.00  0.00    +0.004 C 
ATOM     23  C   LIG A   1      -8.731  -3.768 129.192  0.00  0.00    +0.019 C 
ATOM     24  C   LIG A   1      -8.293  -3.377 125.299  0.00  0.00    +0.008 C 
ATOM     25  C   LIG A   1      -6.290  -1.265 126.674  0.00  0.00    +0.008 C 
ATOM     26  C   LIG A   1      -9.026   0.384 131.293  0.00  0.00    +0.016 C 
ATOM     27  C   LIG A   1      -5.250   1.259 130.317  0.00  0.00    +0.012 C 
ATOM     28  C   LIG A   1      -9.027   3.683 131.796  0.00  0.00    +0.012 C 
ENDROOT
BRANCH  18  29
ATOM     29  C   LIG A   1      -6.237  -3.334 129.384  0.00  0.00    +0.314 C 
ATOM     30  O   LIG A   1      -5.251  -2.782 128.948  0.00  0.00    -0.250 OA
BRANCH  29  31
ATOM     31  O   LIG A   1      -6.236  -4.627 129.846  0.00  0.00    -0.468 OA
ATOM     32  C   LIG A   1      -5.306  -4.910 130.891  0.00  0.00    +0.280 C 
ENDBRANCH  29  31
ENDBRANCH  18  29
BRANCH   3  33
ATOM     33  O   LIG A   1      -6.039   7.298 130.661  0.00  0.00    -0.391 OA
ATOM     34  H   LIG A   1      -6.421   7.436 129.780  0.00  0.00    +0.210 HD
ENDBRANCH   3  33
BRANCH   2  35
ATOM     35  C   LIG A   1      -7.571   5.934 133.816  0.00  0.00    +0.165 C 
BRANCH  35  36
ATOM     36  O   LIG A   1      -6.931   5.807 135.074  0.00  0.00    -0.394 OA
ATOM     37  H   LIG A   1      -7.121   6.611 135.587  0.00  0.00    +0.209 HD
ENDBRANCH  35  36
ENDBRANCH   2  35
TORSDOF 5
ENDMDL
MODEL 8
REMARK VINA RESULT:      -8.1      4.777      7.333
REMARK  Name = NuBBE_479
REMARK  12 active torsions:
REMARK  status: ('A' for Active; 'I' for Inactive)
REMARK    1  A    between atoms: C_1  and  C_2
REMARK    2  A    between atoms: C_2  and  C_39
REMARK    3  A    between atoms: C_3  and  O_38
REMARK    4  A    between atoms: C_7  and  C_37
REMARK    5  A    between atoms: C_11  and  C_36
REMARK    6  A    between atoms: C_17  and  C_35
REMARK    7  A    between atoms: C_20  and  C_31
REMARK    8  A    between atoms: C_23  and  C_30
REMARK    9  A    between atoms: C_25  and  C_29
REMARK   10  A    between atoms: C_31  and  O_32
REMARK   11  A    between atoms: O_32  and  C_33
REMARK   12  A    between atoms: C_39  and  O_40
REMARK                            x       y       z     vdW  Elec       q    Type
REMARK                         _______ _______ _______ _____ _____    ______ ____
ROOT
ATOM      1  C   LIG A   1      -2.749  -5.354 133.723  0.00  0.00    +0.016 C 
ATOM      2  C   LIG A   1      -3.740  -4.170 133.897  0.00  0.00    +0.020 C 
ATOM      3  C   LIG A   1      -2.993  -3.015 134.647  0.00  0.00    +0.123 C 
ATOM      4  C   LIG A   1      -3.725  -1.673 134.604  0.00  0.00    +0.032 C 
ATOM      5  C   LIG A   1      -4.064  -1.236 133.178  0.00  0.00    +0.010 C 
ATOM      6  C   LIG A   1      -4.900  -2.280 132.374  0.00  0.00    -0.025 C 
ATOM      7  C   LIG A   1      -4.185  -3.673 132.459  0.00  0.00    +0.006 C 
ATOM      8  C   LIG A   1      -4.802  -4.743 131.524  0.00  0.00    +0.005 C 
ATOM      9  C   LIG A   1      -5.853  -4.261 130.515  0.00  0.00    +0.008 C 
ATOM     10  C   LIG A   1      -5.559  -2.904 129.824  0.00  0.00    -0.019 C 
ATOM     11  C   LIG A   1      -4.887  -1.877 130.831  0.00  0.00    +0.006 C 
ATOM     12  C   LIG A   1      -5.205  -0.395 130.546  0.00  0.00    +0.031 C 
ATOM     13  C   LIG A   1      -5.725  -0.099 129.174  0.00  0.00    -0.026 C 
ATOM     14  C   LIG A   1      -6.495  -0.945 128.456  0.00  0.00    -0.063 C 
ATOM     15  C   LIG A   1      -6.871  -2.286 129.098  0.00  0.00    -0.005 C 
ATOM     16  C   LIG A   1      -7.483  -3.253 128.045  0.00  0.00    +0.012 C 
ATOM     17  C   LIG A   1      -8.611  -2.625 127.208  0.00  0.00    +0.019 C 
ATOM     18  C   LIG A   1      -8.100  -1.435 126.363  0.00  0.00    +0.074 C 
ATOM     19  C   LIG A   1      -7.227  -0.455 127.201  0.00  0.00    +0.035 C 
ATOM     20  C   LIG A   1      -6.521   0.630 126.317  0.00  0.00    -0.003 C 
ATOM     21  C   LIG A   1      -7.379   1.012 125.080  0.00  0.00    -0.011 C 
ATOM     22  C   LIG A   1      -8.887   0.817 125.319  0.00  0.00    +0.004 C 
ATOM     23  C   LIG A   1      -9.303  -0.568 125.866  0.00  0.00    +0.019 C 
ATOM     24  C   LIG A   1      -7.099   2.450 124.627  0.00  0.00    +0.008 C 
ATOM     25  C   LIG A   1      -5.081   0.286 125.896  0.00  0.00    +0.008 C 
ATOM     26  C   LIG A   1      -8.010  -1.982 130.116  0.00  0.00    +0.016 C 
ATOM     27  C   LIG A   1      -4.468  -3.217 128.737  0.00  0.00    +0.012 C 
ATOM     28  C   LIG A   1      -6.319  -2.265 132.979  0.00  0.00    +0.012 C 
ENDROOT
BRANCH  18  29
ATOM     29  C   LIG A   1      -7.408  -2.086 125.129  0.00  0.00    +0.314 C 
ATOM     30  O   LIG A   1      -6.264  -2.480 125.068  0.00  0.00    -0.250 OA
BRANCH  29  31
ATOM     31  O   LIG A   1      -8.306  -2.213 124.098  0.00  0.00    -0.468 OA
ATOM     32  C   LIG A   1      -7.785  -1.976 122.791  0.00  0.00    +0.280 C 
ENDBRANCH  29  31
ENDBRANCH  18  29
BRANCH   3  33
ATOM     33  O   LIG A   1      -1.669  -2.819 134.142  0.00  0.00    -0.391 OA
ATOM     34  H   LIG A   1      -1.587  -1.909 133.816  0.00  0.00    +0.210 HD
ENDBRANCH   3  33
BRANCH   2  35
ATOM     35  C   LIG A   1      -4.877  -4.658 134.840  0.00  0.00    +0.165 C 
BRANCH  35  36
ATOM     36  O   LIG A   1      -5.094  -6.058 134.826  0.00  0.00    -0.394 OA
ATOM     37  H   LIG A   1      -6.023  -6.218 135.064  0.00  0.00    +0.209 HD
ENDBRANCH  35  36
ENDBRANCH   2  35
TORSDOF 5
ENDMDL
MODEL 9
REMARK VINA RESULT:      -8.1      1.867      2.597
REMARK  Name = NuBBE_479
REMARK  12 active torsions:
REMARK  status: ('A' for Active; 'I' for Inactive)
REMARK    1  A    between atoms: C_1  and  C_2
REMARK    2  A    between atoms: C_2  and  C_39
REMARK    3  A    between atoms: C_3  and  O_38
REMARK    4  A    between atoms: C_7  and  C_37
REMARK    5  A    between atoms: C_11  and  C_36
REMARK    6  A    between atoms: C_17  and  C_35
REMARK    7  A    between atoms: C_20  and  C_31
REMARK    8  A    between atoms: C_23  and  C_30
REMARK    9  A    between atoms: C_25  and  C_29
REMARK   10  A    between atoms: C_31  and  O_32
REMARK   11  A    between atoms: O_32  and  C_33
REMARK   12  A    between atoms: C_39  and  O_40
REMARK                            x       y       z     vdW  Elec       q    Type
REMARK                         _______ _______ _______ _____ _____    ______ ____
ROOT
ATOM      1  C   LIG A   1      -6.332   5.810 132.374  0.00  0.00    +0.016 C 
ATOM      2  C   LIG A   1      -5.166   5.044 131.690  0.00  0.00    +0.020 C 
ATOM      3  C   LIG A   1      -4.401   4.234 132.791  0.00  0.00    +0.123 C 
ATOM      4  C   LIG A   1      -3.441   3.184 132.232  0.00  0.00    +0.032 C 
ATOM      5  C   LIG A   1      -4.124   2.223 131.258  0.00  0.00    +0.010 C 
ATOM      6  C   LIG A   1      -4.833   2.929 130.061  0.00  0.00    -0.025 C 
ATOM      7  C   LIG A   1      -5.780   4.046 130.621  0.00  0.00    +0.006 C 
ATOM      8  C   LIG A   1      -6.701   4.675 129.546  0.00  0.00    +0.005 C 
ATOM      9  C   LIG A   1      -6.722   3.998 128.168  0.00  0.00    +0.008 C 
ATOM     10  C   LIG A   1      -6.712   2.448 128.172  0.00  0.00    -0.019 C 
ATOM     11  C   LIG A   1      -5.785   1.879 129.329  0.00  0.00    +0.006 C 
ATOM     12  C   LIG A   1      -5.129   0.518 129.017  0.00  0.00    +0.031 C 
ATOM     13  C   LIG A   1      -5.756  -0.260 127.904  0.00  0.00    -0.026 C 
ATOM     14  C   LIG A   1      -6.337   0.299 126.820  0.00  0.00    -0.063 C 
ATOM     15  C   LIG A   1      -6.335   1.830 126.722  0.00  0.00    -0.005 C 
ATOM     16  C   LIG A   1      -7.297   2.314 125.598  0.00  0.00    +0.012 C 
ATOM     17  C   LIG A   1      -7.083   1.603 124.250  0.00  0.00    +0.019 C 
ATOM     18  C   LIG A   1      -7.370   0.087 124.353  0.00  0.00    +0.074 C 
ATOM     19  C   LIG A   1      -6.684  -0.555 125.595  0.00  0.00    +0.035 C 
ATOM     20  C   LIG A   1      -7.143  -2.034 125.840  0.00  0.00    -0.003 C 
ATOM     21  C   LIG A   1      -7.471  -2.763 124.507  0.00  0.00    -0.011 C 
ATOM     22  C   LIG A   1      -6.683  -2.198 123.312  0.00  0.00    +0.004 C 
ATOM     23  C   LIG A   1      -6.754  -0.665 123.128  0.00  0.00    +0.019 C 
ATOM     24  C   LIG A   1      -7.240  -4.274 124.625  0.00  0.00    +0.008 C 
ATOM     25  C   LIG A   1      -8.295  -2.197 126.848  0.00  0.00    +0.008 C 
ATOM     26  C   LIG A   1      -4.903   2.241 126.268  0.00  0.00    +0.016 C 
ATOM     27  C   LIG A   1      -8.178   2.023 128.549  0.00  0.00    +0.012 C 
ATOM     28  C   LIG A   1      -3.715   3.458 129.140  0.00  0.00    +0.012 C 
ENDROOT
BRANCH  18  29
ATOM     29  C   LIG A   1      -8.921  -0.034 124.288  0.00  0.00    +0.314 C 
ATOM     30  O   LIG A   1      -9.694   0.084 125.213  0.00  0.00    -0.250 OA
BRANCH  29  31
ATOM     31  O   LIG A   1      -9.323  -0.244 122.992  0.00  0.00    -0.468 OA
ATOM     32  C   LIG A   1     -10.268   0.693 122.477  0.00  0.00    +0.280 C 
ENDBRANCH  29  31
ENDBRANCH  18  29
BRANCH   3  33
ATOM     33  O   LIG A   1      -5.299   3.584 133.695  0.00  0.00    -0.391 OA
ATOM     34  H   LIG A   1      -4.820   2.886 134.169  0.00  0.00    +0.210 HD
ENDBRANCH   3  33
BRANCH   2  35
ATOM     35  C   LIG A   1      -4.173   6.111 131.145  0.00  0.00    +0.165 C 
BRANCH  35  36
ATOM     36  O   LIG A   1      -3.574   6.921 132.140  0.00  0.00    -0.394 OA
ATOM     37  H   LIG A   1      -3.534   6.403 132.962  0.00  0.00    +0.209 HD
ENDBRANCH  35  36
ENDBRANCH   2  35
TORSDOF 5
ENDMDL
