MODEL 1
REMARK VINA RESULT:      -6.7      0.000      0.000
REMARK  Name = NuBBE_1089
REMARK  12 active torsions:
REMARK  status: ('A' for Active; 'I' for Inactive)
REMARK    1  A    between atoms: C_2  and  O_3
REMARK    2  A    between atoms: C_2  and  C_4
REMARK    3  A    between atoms: C_4  and  C_5
REMARK    4  A    between atoms: C_7  and  O_8
REMARK    5  A    between atoms: C_9  and  C_10
REMARK    6  A    between atoms: C_10  and  O_11
REMARK    7  A    between atoms: O_11  and  C_12
REMARK    8  A    between atoms: C_16  and  C_17
REMARK    9  A    between atoms: C_19  and  O_20
REMARK   10  A    between atoms: O_20  and  C_21
REMARK   11  A    between atoms: C_22  and  O_23
REMARK   12  A    between atoms: O_23  and  C_24
REMARK                            x       y       z     vdW  Elec       q    Type
REMARK                         _______ _______ _______ _____ _____    ______ ____
ROOT
ATOM      1  C   LIG A   1      -8.969   3.595 131.553  0.00  0.00    +0.067 C 
ATOM      2  C   LIG A   1      -8.302   2.710 130.781  0.00  0.00    +0.023 C 
ENDROOT
BRANCH   1   3
ATOM      3  C   LIG A   1      -9.627   4.819 131.039  0.00  0.00    -0.008 A 
ATOM      4  C   LIG A   1     -10.880   4.761 130.406  0.00  0.00    +0.055 A 
ATOM      5  C   LIG A   1     -11.440   5.905 129.828  0.00  0.00    +0.131 A 
ATOM      6  C   LIG A   1     -10.751   7.124 129.840  0.00  0.00    +0.100 A 
ATOM      7  C   LIG A   1      -9.504   7.188 130.487  0.00  0.00    +0.019 A 
ATOM      8  C   LIG A   1      -8.956   6.049 131.090  0.00  0.00    +0.010 A 
BRANCH   5   9
ATOM      9  O   LIG A   1     -12.665   5.752 129.227  0.00  0.00    -0.506 OA
ATOM     10  H   LIG A   1     -12.540   5.670 128.256  0.00  0.00    +0.292 HD
ENDBRANCH   5   9
BRANCH   6  11
ATOM     11  C   LIG A   1     -11.325   8.324 129.199  0.00  0.00    +0.343 C 
ATOM     12  O   LIG A   1     -12.357   8.871 129.595  0.00  0.00    -0.245 OA
BRANCH  11  13
ATOM     13  O   LIG A   1     -10.589   8.666 128.114  0.00  0.00    -0.464 OA
ATOM     14  C   LIG A   1     -10.933   7.985 126.905  0.00  0.00    +0.280 C 
ENDBRANCH  11  13
ENDBRANCH   6  11
ENDBRANCH   1   3
BRANCH   2  15
ATOM     15  C   LIG A   1      -8.082   2.739 129.332  0.00  0.00    -0.021 A 
ATOM     16  C   LIG A   1      -7.295   3.745 128.761  0.00  0.00    +0.057 A 
ATOM     17  C   LIG A   1      -6.977   3.721 127.396  0.00  0.00    +0.162 A 
ATOM     18  C   LIG A   1      -7.534   2.721 126.578  0.00  0.00    +0.162 A 
ATOM     19  C   LIG A   1      -8.290   1.696 127.160  0.00  0.00    +0.050 A 
ATOM     20  C   LIG A   1      -8.550   1.697 128.532  0.00  0.00    +0.012 A 
BRANCH  17  21
ATOM     21  O   LIG A   1      -6.181   4.666 126.795  0.00  0.00    -0.491 OA
ATOM     22  C   LIG A   1      -4.784   4.567 127.068  0.00  0.00    +0.277 C 
ENDBRANCH  17  21
BRANCH  18  23
ATOM     23  O   LIG A   1      -7.257   2.758 125.231  0.00  0.00    -0.491 OA
ATOM     24  C   LIG A   1      -8.360   3.131 124.407  0.00  0.00    +0.277 C 
ENDBRANCH  18  23
ENDBRANCH   2  15
BRANCH   1  26
ATOM     25  O   LIG A   1      -8.435   2.467 133.630  0.00  0.00    -0.245 OA
ATOM     26  C   LIG A   1      -9.080   3.304 133.017  0.00  0.00    +0.337 C 
BRANCH  26  27
ATOM     27  O   LIG A   1      -9.977   4.069 133.669  0.00  0.00    -0.477 OA
ATOM     28  H   LIG A   1     -10.842   3.751 133.336  0.00  0.00    +0.295 HD
ENDBRANCH  26  27
ENDBRANCH   1  26
TORSDOF 9
ENDMDL
MODEL 2
REMARK VINA RESULT:      -6.5      5.030      8.317
REMARK  Name = NuBBE_1089
REMARK  12 active torsions:
REMARK  status: ('A' for Active; 'I' for Inactive)
REMARK    1  A    between atoms: C_2  and  O_3
REMARK    2  A    between atoms: C_2  and  C_4
REMARK    3  A    between atoms: C_4  and  C_5
REMARK    4  A    between atoms: C_7  and  O_8
REMARK    5  A    between atoms: C_9  and  C_10
REMARK    6  A    between atoms: C_10  and  O_11
REMARK    7  A    between atoms: O_11  and  C_12
REMARK    8  A    between atoms: C_16  and  C_17
REMARK    9  A    between atoms: C_19  and  O_20
REMARK   10  A    between atoms: O_20  and  C_21
REMARK   11  A    between atoms: C_22  and  O_23
REMARK   12  A    between atoms: O_23  and  C_24
REMARK                            x       y       z     vdW  Elec       q    Type
REMARK                         _______ _______ _______ _____ _____    ______ ____
ROOT
ATOM      1  C   LIG A   1      -7.010   3.121 123.205  0.00  0.00    +0.067 C 
ATOM      2  C   LIG A   1      -6.292   4.022 123.910  0.00  0.00    +0.023 C 
ENDROOT
BRANCH   1   3
ATOM      3  C   LIG A   1      -7.480   1.824 123.745  0.00  0.00    -0.008 A 
ATOM      4  C   LIG A   1      -8.752   1.697 124.329  0.00  0.00    +0.055 A 
ATOM      5  C   LIG A   1      -9.142   0.498 124.935  0.00  0.00    +0.131 A 
ATOM      6  C   LIG A   1      -8.263  -0.591 124.998  0.00  0.00    +0.100 A 
ATOM      7  C   LIG A   1      -6.996  -0.471 124.401  0.00  0.00    +0.019 A 
ATOM      8  C   LIG A   1      -6.616   0.720 123.771  0.00  0.00    +0.010 A 
BRANCH   5   9
ATOM      9  O   LIG A   1     -10.400   0.468 125.484  0.00  0.00    -0.506 OA
ATOM     10  H   LIG A   1     -10.401   0.992 126.314  0.00  0.00    +0.292 HD
ENDBRANCH   5   9
BRANCH   6  11
ATOM     11  C   LIG A   1      -8.660  -1.845 125.668  0.00  0.00    +0.343 C 
ATOM     12  O   LIG A   1      -8.062  -2.307 126.643  0.00  0.00    -0.245 OA
BRANCH  11  13
ATOM     13  O   LIG A   1      -9.709  -2.405 125.019  0.00  0.00    -0.464 OA
ATOM     14  C   LIG A   1      -9.362  -3.272 123.936  0.00  0.00    +0.280 C 
ENDBRANCH  11  13
ENDBRANCH   6  11
ENDBRANCH   1   3
BRANCH   2  15
ATOM     15  C   LIG A   1      -5.835   3.946 125.300  0.00  0.00    -0.021 A 
ATOM     16  C   LIG A   1      -4.466   3.934 125.589  0.00  0.00    +0.057 A 
ATOM     17  C   LIG A   1      -4.011   3.982 126.913  0.00  0.00    +0.162 A 
ATOM     18  C   LIG A   1      -4.946   3.948 127.964  0.00  0.00    +0.162 A 
ATOM     19  C   LIG A   1      -6.315   3.997 127.670  0.00  0.00    +0.050 A 
ATOM     20  C   LIG A   1      -6.756   4.012 126.345  0.00  0.00    +0.012 A 
BRANCH  17  21
ATOM     21  O   LIG A   1      -2.678   4.006 127.248  0.00  0.00    -0.491 OA
ATOM     22  C   LIG A   1      -1.848   3.069 126.563  0.00  0.00    +0.277 C 
ENDBRANCH  17  21
BRANCH  18  23
ATOM     23  O   LIG A   1      -4.470   3.931 129.254  0.00  0.00    -0.491 OA
ATOM     24  C   LIG A   1      -4.694   5.134 129.987  0.00  0.00    +0.277 C 
ENDBRANCH  18  23
ENDBRANCH   2  15
BRANCH   1  26
ATOM     25  O   LIG A   1      -6.633   3.442 120.833  0.00  0.00    -0.245 OA
ATOM     26  C   LIG A   1      -7.383   3.467 121.797  0.00  0.00    +0.337 C 
BRANCH  26  27
ATOM     27  O   LIG A   1      -8.672   3.821 121.635  0.00  0.00    -0.477 OA
ATOM     28  H   LIG A   1      -9.131   2.970 121.476  0.00  0.00    +0.295 HD
ENDBRANCH  26  27
ENDBRANCH   1  26
TORSDOF 9
ENDMDL
MODEL 3
REMARK VINA RESULT:      -6.1      5.619      8.592
REMARK  Name = NuBBE_1089
REMARK  12 active torsions:
REMARK  status: ('A' for Active; 'I' for Inactive)
REMARK    1  A    between atoms: C_2  and  O_3
REMARK    2  A    between atoms: C_2  and  C_4
REMARK    3  A    between atoms: C_4  and  C_5
REMARK    4  A    between atoms: C_7  and  O_8
REMARK    5  A    between atoms: C_9  and  C_10
REMARK    6  A    between atoms: C_10  and  O_11
REMARK    7  A    between atoms: O_11  and  C_12
REMARK    8  A    between atoms: C_16  and  C_17
REMARK    9  A    between atoms: C_19  and  O_20
REMARK   10  A    between atoms: O_20  and  C_21
REMARK   11  A    between atoms: C_22  and  O_23
REMARK   12  A    between atoms: O_23  and  C_24
REMARK                            x       y       z     vdW  Elec       q    Type
REMARK                         _______ _______ _______ _____ _____    ______ ____
ROOT
ATOM      1  C   LIG A   1      -8.180  -2.668 126.929  0.00  0.00    +0.067 C 
ATOM      2  C   LIG A   1      -8.276  -3.331 128.101  0.00  0.00    +0.023 C 
ENDROOT
BRANCH   1   3
ATOM      3  C   LIG A   1      -7.428  -1.405 126.744  0.00  0.00    -0.008 A 
ATOM      4  C   LIG A   1      -8.077  -0.160 126.775  0.00  0.00    +0.055 A 
ATOM      5  C   LIG A   1      -7.376   1.017 126.489  0.00  0.00    +0.131 A 
ATOM      6  C   LIG A   1      -6.021   0.976 126.137  0.00  0.00    +0.100 A 
ATOM      7  C   LIG A   1      -5.366  -0.268 126.121  0.00  0.00    +0.019 A 
ATOM      8  C   LIG A   1      -6.060  -1.443 126.434  0.00  0.00    +0.010 A 
BRANCH   5   9
ATOM      9  O   LIG A   1      -8.094   2.186 126.538  0.00  0.00    -0.506 OA
ATOM     10  H   LIG A   1      -7.631   2.871 126.008  0.00  0.00    +0.292 HD
ENDBRANCH   5   9
BRANCH   6  11
ATOM     11  C   LIG A   1      -5.289   2.213 125.801  0.00  0.00    +0.343 C 
ATOM     12  O   LIG A   1      -5.743   3.081 125.051  0.00  0.00    -0.245 OA
BRANCH  11  13
ATOM     13  O   LIG A   1      -4.066   2.200 126.383  0.00  0.00    -0.464 OA
ATOM     14  C   LIG A   1      -3.387   3.458 126.401  0.00  0.00    +0.280 C 
ENDBRANCH  11  13
ENDBRANCH   6  11
ENDBRANCH   1   3
BRANCH   2  15
ATOM     15  C   LIG A   1      -7.691  -2.987 129.401  0.00  0.00    -0.021 A 
ATOM     16  C   LIG A   1      -6.632  -3.742 129.916  0.00  0.00    +0.057 A 
ATOM     17  C   LIG A   1      -5.983  -3.357 131.097  0.00  0.00    +0.162 A 
ATOM     18  C   LIG A   1      -6.467  -2.250 131.818  0.00  0.00    +0.162 A 
ATOM     19  C   LIG A   1      -7.503  -1.477 131.281  0.00  0.00    +0.050 A 
ATOM     20  C   LIG A   1      -8.101  -1.834 130.071  0.00  0.00    +0.012 A 
BRANCH  17  21
ATOM     21  O   LIG A   1      -4.918  -4.045 131.626  0.00  0.00    -0.491 OA
ATOM     22  C   LIG A   1      -5.235  -5.264 132.296  0.00  0.00    +0.277 C 
ENDBRANCH  17  21
BRANCH  18  23
ATOM     23  O   LIG A   1      -5.853  -1.934 133.008  0.00  0.00    -0.491 OA
ATOM     24  C   LIG A   1      -6.674  -2.094 134.163  0.00  0.00    +0.277 C 
ENDBRANCH  18  23
ENDBRANCH   2  15
BRANCH   1  26
ATOM     25  O   LIG A   1      -8.311  -3.975 124.892  0.00  0.00    -0.245 OA
ATOM     26  C   LIG A   1      -8.848  -3.265 125.730  0.00  0.00    +0.337 C 
BRANCH  26  27
ATOM     27  O   LIG A   1     -10.157  -2.969 125.617  0.00  0.00    -0.477 OA
ATOM     28  H   LIG A   1     -10.372  -3.203 124.690  0.00  0.00    +0.295 HD
ENDBRANCH  26  27
ENDBRANCH   1  26
TORSDOF 9
ENDMDL
MODEL 4
REMARK VINA RESULT:      -6.1      3.819      8.540
REMARK  Name = NuBBE_1089
REMARK  12 active torsions:
REMARK  status: ('A' for Active; 'I' for Inactive)
REMARK    1  A    between atoms: C_2  and  O_3
REMARK    2  A    between atoms: C_2  and  C_4
REMARK    3  A    between atoms: C_4  and  C_5
REMARK    4  A    between atoms: C_7  and  O_8
REMARK    5  A    between atoms: C_9  and  C_10
REMARK    6  A    between atoms: C_10  and  O_11
REMARK    7  A    between atoms: O_11  and  C_12
REMARK    8  A    between atoms: C_16  and  C_17
REMARK    9  A    between atoms: C_19  and  O_20
REMARK   10  A    between atoms: O_20  and  C_21
REMARK   11  A    between atoms: C_22  and  O_23
REMARK   12  A    between atoms: O_23  and  C_24
REMARK                            x       y       z     vdW  Elec       q    Type
REMARK                         _______ _______ _______ _____ _____    ______ ____
ROOT
ATOM      1  C   LIG A   1      -6.966   3.129 123.211  0.00  0.00    +0.067 C 
ATOM      2  C   LIG A   1      -6.236   4.012 123.926  0.00  0.00    +0.023 C 
ENDROOT
BRANCH   1   3
ATOM      3  C   LIG A   1      -7.441   1.825 123.731  0.00  0.00    -0.008 A 
ATOM      4  C   LIG A   1      -6.892   0.616 123.273  0.00  0.00    +0.055 A 
ATOM      5  C   LIG A   1      -7.423  -0.610 123.688  0.00  0.00    +0.131 A 
ATOM      6  C   LIG A   1      -8.531  -0.658 124.544  0.00  0.00    +0.100 A 
ATOM      7  C   LIG A   1      -9.072   0.552 125.015  0.00  0.00    +0.019 A 
ATOM      8  C   LIG A   1      -8.523   1.778 124.621  0.00  0.00    +0.010 A 
BRANCH   5   9
ATOM      9  O   LIG A   1      -6.826  -1.740 123.185  0.00  0.00    -0.506 OA
ATOM     10  H   LIG A   1      -6.679  -1.625 122.221  0.00  0.00    +0.292 HD
ENDBRANCH   5   9
BRANCH   6  11
ATOM     11  C   LIG A   1      -9.116  -1.950 124.954  0.00  0.00    +0.343 C 
ATOM     12  O   LIG A   1      -9.624  -2.742 124.157  0.00  0.00    -0.245 OA
BRANCH  11  13
ATOM     13  O   LIG A   1      -9.054  -2.080 126.301  0.00  0.00    -0.464 OA
ATOM     14  C   LIG A   1      -7.826  -2.610 126.806  0.00  0.00    +0.280 C 
ENDBRANCH  11  13
ENDBRANCH   6  11
ENDBRANCH   1   3
BRANCH   2  15
ATOM     15  C   LIG A   1      -5.766   3.906 125.311  0.00  0.00    -0.021 A 
ATOM     16  C   LIG A   1      -6.529   4.444 126.353  0.00  0.00    +0.057 A 
ATOM     17  C   LIG A   1      -6.156   4.250 127.690  0.00  0.00    +0.162 A 
ATOM     18  C   LIG A   1      -4.950   3.583 127.978  0.00  0.00    +0.162 A 
ATOM     19  C   LIG A   1      -4.211   3.015 126.934  0.00  0.00    +0.050 A 
ATOM     20  C   LIG A   1      -4.625   3.163 125.608  0.00  0.00    +0.012 A 
BRANCH  17  21
ATOM     21  O   LIG A   1      -6.887   4.729 128.750  0.00  0.00    -0.491 OA
ATOM     22  C   LIG A   1      -8.139   4.084 128.982  0.00  0.00    +0.277 C 
ENDBRANCH  17  21
BRANCH  18  23
ATOM     23  O   LIG A   1      -4.576   3.463 129.296  0.00  0.00    -0.491 OA
ATOM     24  C   LIG A   1      -3.458   4.264 129.672  0.00  0.00    +0.277 C 
ENDBRANCH  18  23
ENDBRANCH   2  15
BRANCH   1  26
ATOM     25  O   LIG A   1      -6.595   3.545 120.853  0.00  0.00    -0.245 OA
ATOM     26  C   LIG A   1      -7.349   3.505 121.814  0.00  0.00    +0.337 C 
BRANCH  26  27
ATOM     27  O   LIG A   1      -8.652   3.805 121.656  0.00  0.00    -0.477 OA
ATOM     28  H   LIG A   1      -8.852   4.389 122.418  0.00  0.00    +0.295 HD
ENDBRANCH  26  27
ENDBRANCH   1  26
TORSDOF 9
ENDMDL
MODEL 5
REMARK VINA RESULT:      -6.1      3.904      7.347
REMARK  Name = NuBBE_1089
REMARK  12 active torsions:
REMARK  status: ('A' for Active; 'I' for Inactive)
REMARK    1  A    between atoms: C_2  and  O_3
REMARK    2  A    between atoms: C_2  and  C_4
REMARK    3  A    between atoms: C_4  and  C_5
REMARK    4  A    between atoms: C_7  and  O_8
REMARK    5  A    between atoms: C_9  and  C_10
REMARK    6  A    between atoms: C_10  and  O_11
REMARK    7  A    between atoms: O_11  and  C_12
REMARK    8  A    between atoms: C_16  and  C_17
REMARK    9  A    between atoms: C_19  and  O_20
REMARK   10  A    between atoms: O_20  and  C_21
REMARK   11  A    between atoms: C_22  and  O_23
REMARK   12  A    between atoms: O_23  and  C_24
REMARK                            x       y       z     vdW  Elec       q    Type
REMARK                         _______ _______ _______ _____ _____    ______ ____
ROOT
ATOM      1  C   LIG A   1      -6.738   2.657 123.602  0.00  0.00    +0.067 C 
ATOM      2  C   LIG A   1      -7.105   1.441 123.146  0.00  0.00    +0.023 C 
ENDROOT
BRANCH   1   3
ATOM      3  C   LIG A   1      -6.581   2.998 125.035  0.00  0.00    -0.008 A 
ATOM      4  C   LIG A   1      -7.573   3.713 125.726  0.00  0.00    +0.055 A 
ATOM      5  C   LIG A   1      -7.366   4.124 127.047  0.00  0.00    +0.131 A 
ATOM      6  C   LIG A   1      -6.154   3.859 127.698  0.00  0.00    +0.100 A 
ATOM      7  C   LIG A   1      -5.166   3.131 127.013  0.00  0.00    +0.019 A 
ATOM      8  C   LIG A   1      -5.384   2.695 125.701  0.00  0.00    +0.010 A 
BRANCH   5   9
ATOM      9  O   LIG A   1      -8.389   4.822 127.641  0.00  0.00    -0.506 OA
ATOM     10  H   LIG A   1      -9.056   4.187 127.983  0.00  0.00    +0.292 HD
ENDBRANCH   5   9
BRANCH   6  11
ATOM     11  C   LIG A   1      -5.920   4.324 129.080  0.00  0.00    +0.343 C 
ATOM     12  O   LIG A   1      -5.962   5.513 129.406  0.00  0.00    -0.245 OA
BRANCH  11  13
ATOM     13  O   LIG A   1      -5.607   3.274 129.875  0.00  0.00    -0.464 OA
ATOM     14  C   LIG A   1      -6.708   2.688 130.573  0.00  0.00    +0.280 C 
ENDBRANCH  11  13
ENDBRANCH   6  11
ENDBRANCH   1   3
BRANCH   2  15
ATOM     15  C   LIG A   1      -7.416   0.229 123.910  0.00  0.00    -0.021 A 
ATOM     16  C   LIG A   1      -6.441  -0.759 124.086  0.00  0.00    +0.057 A 
ATOM     17  C   LIG A   1      -6.682  -1.866 124.911  0.00  0.00    +0.162 A 
ATOM     18  C   LIG A   1      -7.952  -2.027 125.493  0.00  0.00    +0.162 A 
ATOM     19  C   LIG A   1      -8.911  -1.018 125.345  0.00  0.00    +0.050 A 
ATOM     20  C   LIG A   1      -8.639   0.112 124.570  0.00  0.00    +0.012 A 
BRANCH  17  21
ATOM     21  O   LIG A   1      -5.747  -2.846 125.142  0.00  0.00    -0.491 OA
ATOM     22  C   LIG A   1      -5.212  -3.482 123.982  0.00  0.00    +0.277 C 
ENDBRANCH  17  21
BRANCH  18  23
ATOM     23  O   LIG A   1      -8.181  -3.156 126.246  0.00  0.00    -0.491 OA
ATOM     24  C   LIG A   1      -8.274  -2.925 127.650  0.00  0.00    +0.277 C 
ENDBRANCH  18  23
ENDBRANCH   2  15
BRANCH   1  26
ATOM     25  O   LIG A   1      -5.500   4.506 122.642  0.00  0.00    -0.245 OA
ATOM     26  C   LIG A   1      -6.437   3.722 122.594  0.00  0.00    +0.337 C 
BRANCH  26  27
ATOM     27  O   LIG A   1      -7.298   3.770 121.561  0.00  0.00    -0.477 OA
ATOM     28  H   LIG A   1      -6.960   4.505 121.007  0.00  0.00    +0.295 HD
ENDBRANCH  26  27
ENDBRANCH   1  26
TORSDOF 9
ENDMDL
MODEL 6
REMARK VINA RESULT:      -6.1      2.982      6.713
REMARK  Name = NuBBE_1089
REMARK  12 active torsions:
REMARK  status: ('A' for Active; 'I' for Inactive)
REMARK    1  A    between atoms: C_2  and  O_3
REMARK    2  A    between atoms: C_2  and  C_4
REMARK    3  A    between atoms: C_4  and  C_5
REMARK    4  A    between atoms: C_7  and  O_8
REMARK    5  A    between atoms: C_9  and  C_10
REMARK    6  A    between atoms: C_10  and  O_11
REMARK    7  A    between atoms: O_11  and  C_12
REMARK    8  A    between atoms: C_16  and  C_17
REMARK    9  A    between atoms: C_19  and  O_20
REMARK   10  A    between atoms: O_20  and  C_21
REMARK   11  A    between atoms: C_22  and  O_23
REMARK   12  A    between atoms: O_23  and  C_24
REMARK                            x       y       z     vdW  Elec       q    Type
REMARK                         _______ _______ _______ _____ _____    ______ ____
ROOT
ATOM      1  C   LIG A   1     -10.067   5.386 130.895  0.00  0.00    +0.067 C 
ATOM      2  C   LIG A   1      -9.326   6.365 131.456  0.00  0.00    +0.023 C 
ENDROOT
BRANCH   1   3
ATOM      3  C   LIG A   1      -9.558   4.029 130.586  0.00  0.00    -0.008 A 
ATOM      4  C   LIG A   1      -9.902   2.924 131.383  0.00  0.00    +0.055 A 
ATOM      5  C   LIG A   1      -9.328   1.670 131.148  0.00  0.00    +0.131 A 
ATOM      6  C   LIG A   1      -8.378   1.496 130.133  0.00  0.00    +0.100 A 
ATOM      7  C   LIG A   1      -8.045   2.597 129.325  0.00  0.00    +0.019 A 
ATOM      8  C   LIG A   1      -8.639   3.846 129.543  0.00  0.00    +0.010 A 
BRANCH   5   9
ATOM      9  O   LIG A   1      -9.719   0.651 131.980  0.00  0.00    -0.506 OA
ATOM     10  H   LIG A   1     -10.477   0.176 131.575  0.00  0.00    +0.292 HD
ENDBRANCH   5   9
BRANCH   6  11
ATOM     11  C   LIG A   1      -7.746   0.181 129.907  0.00  0.00    +0.343 C 
ATOM     12  O   LIG A   1      -7.773  -0.401 128.821  0.00  0.00    -0.245 OA
BRANCH  11  13
ATOM     13  O   LIG A   1      -7.209  -0.279 131.063  0.00  0.00    -0.464 OA
ATOM     14  C   LIG A   1      -5.798  -0.096 131.194  0.00  0.00    +0.280 C 
ENDBRANCH  11  13
ENDBRANCH   6  11
ENDBRANCH   1   3
BRANCH   2  15
ATOM     15  C   LIG A   1      -7.922   6.328 131.876  0.00  0.00    -0.021 A 
ATOM     16  C   LIG A   1      -7.563   5.683 133.065  0.00  0.00    +0.057 A 
ATOM     17  C   LIG A   1      -6.215   5.535 133.422  0.00  0.00    +0.162 A 
ATOM     18  C   LIG A   1      -5.222   6.124 132.618  0.00  0.00    +0.162 A 
ATOM     19  C   LIG A   1      -5.584   6.736 131.412  0.00  0.00    +0.050 A 
ATOM     20  C   LIG A   1      -6.926   6.824 131.036  0.00  0.00    +0.012 A 
BRANCH  17  21
ATOM     21  O   LIG A   1      -5.809   4.882 134.561  0.00  0.00    -0.491 OA
ATOM     22  C   LIG A   1      -6.669   5.010 135.692  0.00  0.00    +0.277 C 
ENDBRANCH  17  21
BRANCH  18  23
ATOM     23  O   LIG A   1      -3.913   6.018 133.027  0.00  0.00    -0.491 OA
ATOM     24  C   LIG A   1      -2.957   6.529 132.099  0.00  0.00    +0.277 C 
ENDBRANCH  18  23
ENDBRANCH   2  15
BRANCH   1  26
ATOM     25  O   LIG A   1     -12.042   5.575 129.503  0.00  0.00    -0.245 OA
ATOM     26  C   LIG A   1     -11.504   5.678 130.596  0.00  0.00    +0.337 C 
BRANCH  26  27
ATOM     27  O   LIG A   1     -12.224   6.075 131.662  0.00  0.00    -0.477 OA
ATOM     28  H   LIG A   1     -13.001   5.476 131.658  0.00  0.00    +0.295 HD
ENDBRANCH  26  27
ENDBRANCH   1  26
TORSDOF 9
ENDMDL
MODEL 7
REMARK VINA RESULT:      -6.1      4.394      6.393
REMARK  Name = NuBBE_1089
REMARK  12 active torsions:
REMARK  status: ('A' for Active; 'I' for Inactive)
REMARK    1  A    between atoms: C_2  and  O_3
REMARK    2  A    between atoms: C_2  and  C_4
REMARK    3  A    between atoms: C_4  and  C_5
REMARK    4  A    between atoms: C_7  and  O_8
REMARK    5  A    between atoms: C_9  and  C_10
REMARK    6  A    between atoms: C_10  and  O_11
REMARK    7  A    between atoms: O_11  and  C_12
REMARK    8  A    between atoms: C_16  and  C_17
REMARK    9  A    between atoms: C_19  and  O_20
REMARK   10  A    between atoms: O_20  and  C_21
REMARK   11  A    between atoms: C_22  and  O_23
REMARK   12  A    between atoms: O_23  and  C_24
REMARK                            x       y       z     vdW  Elec       q    Type
REMARK                         _______ _______ _______ _____ _____    ______ ____
ROOT
ATOM      1  C   LIG A   1      -6.472  -2.347 130.313  0.00  0.00    +0.067 C 
ATOM      2  C   LIG A   1      -6.661  -3.153 129.247  0.00  0.00    +0.023 C 
ENDROOT
BRANCH   1   3
ATOM      3  C   LIG A   1      -7.046  -0.987 130.441  0.00  0.00    -0.008 A 
ATOM      4  C   LIG A   1      -8.229  -0.760 131.164  0.00  0.00    +0.055 A 
ATOM      5  C   LIG A   1      -8.820   0.507 131.186  0.00  0.00    +0.131 A 
ATOM      6  C   LIG A   1      -8.262   1.570 130.463  0.00  0.00    +0.100 A 
ATOM      7  C   LIG A   1      -7.070   1.349 129.752  0.00  0.00    +0.019 A 
ATOM      8  C   LIG A   1      -6.463   0.087 129.752  0.00  0.00    +0.010 A 
BRANCH   5   9
ATOM      9  O   LIG A   1      -9.977   0.633 131.914  0.00  0.00    -0.506 OA
ATOM     10  H   LIG A   1     -10.012   1.531 132.311  0.00  0.00    +0.292 HD
ENDBRANCH   5   9
BRANCH   6  11
ATOM     11  C   LIG A   1      -8.904   2.899 130.455  0.00  0.00    +0.343 C 
ATOM     12  O   LIG A   1      -9.932   3.147 129.821  0.00  0.00    -0.245 OA
BRANCH  11  13
ATOM     13  O   LIG A   1      -8.168   3.773 131.183  0.00  0.00    -0.464 OA
ATOM     14  C   LIG A   1      -8.694   4.085 132.475  0.00  0.00    +0.280 C 
ENDBRANCH  11  13
ENDBRANCH   6  11
ENDBRANCH   1   3
BRANCH   2  15
ATOM     15  C   LIG A   1      -7.436  -2.899 128.029  0.00  0.00    -0.021 A 
ATOM     16  C   LIG A   1      -6.885  -2.139 126.993  0.00  0.00    +0.057 A 
ATOM     17  C   LIG A   1      -7.563  -1.985 125.776  0.00  0.00    +0.162 A 
ATOM     18  C   LIG A   1      -8.854  -2.528 125.634  0.00  0.00    +0.162 A 
ATOM     19  C   LIG A   1      -9.385  -3.319 126.660  0.00  0.00    +0.050 A 
ATOM     20  C   LIG A   1      -8.674  -3.516 127.845  0.00  0.00    +0.012 A 
BRANCH  17  21
ATOM     21  O   LIG A   1      -7.051  -1.277 124.715  0.00  0.00    -0.491 OA
ATOM     22  C   LIG A   1      -5.998  -1.914 123.994  0.00  0.00    +0.277 C 
ENDBRANCH  17  21
BRANCH  18  23
ATOM     23  O   LIG A   1      -9.523  -2.307 124.453  0.00  0.00    -0.491 OA
ATOM     24  C   LIG A   1      -9.490  -3.401 123.537  0.00  0.00    +0.277 C 
ENDBRANCH  18  23
ENDBRANCH   2  15
BRANCH   1  26
ATOM     25  O   LIG A   1      -4.543  -2.491 131.772  0.00  0.00    -0.245 OA
ATOM     26  C   LIG A   1      -5.660  -2.872 131.455  0.00  0.00    +0.337 C 
BRANCH  26  27
ATOM     27  O   LIG A   1      -6.264  -3.840 132.169  0.00  0.00    -0.477 OA
ATOM     28  H   LIG A   1      -7.141  -3.459 132.387  0.00  0.00    +0.295 HD
ENDBRANCH  26  27
ENDBRANCH   1  26
TORSDOF 9
ENDMDL
MODEL 8
REMARK VINA RESULT:      -6.0      3.191      6.506
REMARK  Name = NuBBE_1089
REMARK  12 active torsions:
REMARK  status: ('A' for Active; 'I' for Inactive)
REMARK    1  A    between atoms: C_2  and  O_3
REMARK    2  A    between atoms: C_2  and  C_4
REMARK    3  A    between atoms: C_4  and  C_5
REMARK    4  A    between atoms: C_7  and  O_8
REMARK    5  A    between atoms: C_9  and  C_10
REMARK    6  A    between atoms: C_10  and  O_11
REMARK    7  A    between atoms: O_11  and  C_12
REMARK    8  A    between atoms: C_16  and  C_17
REMARK    9  A    between atoms: C_19  and  O_20
REMARK   10  A    between atoms: O_20  and  C_21
REMARK   11  A    between atoms: C_22  and  O_23
REMARK   12  A    between atoms: O_23  and  C_24
REMARK                            x       y       z     vdW  Elec       q    Type
REMARK                         _______ _______ _______ _____ _____    ______ ____
ROOT
ATOM      1  C   LIG A   1      -9.965   5.204 131.054  0.00  0.00    +0.067 C 
ATOM      2  C   LIG A   1      -9.200   6.173 131.600  0.00  0.00    +0.023 C 
ENDROOT
BRANCH   1   3
ATOM      3  C   LIG A   1      -9.491   3.829 130.769  0.00  0.00    -0.008 A 
ATOM      4  C   LIG A   1      -9.741   2.774 131.662  0.00  0.00    +0.055 A 
ATOM      5  C   LIG A   1      -9.195   1.506 131.438  0.00  0.00    +0.131 A 
ATOM      6  C   LIG A   1      -8.363   1.269 130.335  0.00  0.00    +0.100 A 
ATOM      7  C   LIG A   1      -8.125   2.320 129.433  0.00  0.00    +0.019 A 
ATOM      8  C   LIG A   1      -8.694   3.582 129.643  0.00  0.00    +0.010 A 
BRANCH   5   9
ATOM      9  O   LIG A   1      -9.488   0.538 132.366  0.00  0.00    -0.506 OA
ATOM     10  H   LIG A   1      -9.943  -0.210 131.920  0.00  0.00    +0.292 HD
ENDBRANCH   5   9
BRANCH   6  11
ATOM     11  C   LIG A   1      -7.757  -0.059 130.117  0.00  0.00    +0.343 C 
ATOM     12  O   LIG A   1      -8.320  -1.114 130.417  0.00  0.00    -0.245 OA
BRANCH  11  13
ATOM     13  O   LIG A   1      -6.508   0.080 129.609  0.00  0.00    -0.464 OA
ATOM     14  C   LIG A   1      -5.445  -0.130 130.541  0.00  0.00    +0.280 C 
ENDBRANCH  11  13
ENDBRANCH   6  11
ENDBRANCH   1   3
BRANCH   2  15
ATOM     15  C   LIG A   1      -7.798   6.107 132.024  0.00  0.00    -0.021 A 
ATOM     16  C   LIG A   1      -6.793   6.644 131.211  0.00  0.00    +0.057 A 
ATOM     17  C   LIG A   1      -5.464   6.696 131.653  0.00  0.00    +0.162 A 
ATOM     18  C   LIG A   1      -5.128   6.117 132.891  0.00  0.00    +0.162 A 
ATOM     19  C   LIG A   1      -6.142   5.615 133.715  0.00  0.00    +0.050 A 
ATOM     20  C   LIG A   1      -7.472   5.624 133.290  0.00  0.00    +0.012 A 
BRANCH  17  21
ATOM     21  O   LIG A   1      -4.447   7.242 130.908  0.00  0.00    -0.491 OA
ATOM     22  C   LIG A   1      -4.108   6.542 129.712  0.00  0.00    +0.277 C 
ENDBRANCH  17  21
BRANCH  18  23
ATOM     23  O   LIG A   1      -3.805   6.125 133.271  0.00  0.00    -0.491 OA
ATOM     24  C   LIG A   1      -3.257   4.836 133.541  0.00  0.00    +0.277 C 
ENDBRANCH  18  23
ENDBRANCH   2  15
BRANCH   1  26
ATOM     25  O   LIG A   1     -11.946   5.369 129.669  0.00  0.00    -0.245 OA
ATOM     26  C   LIG A   1     -11.394   5.527 130.747  0.00  0.00    +0.337 C 
BRANCH  26  27
ATOM     27  O   LIG A   1     -12.087   6.025 131.789  0.00  0.00    -0.477 OA
ATOM     28  H   LIG A   1     -12.802   6.547 131.367  0.00  0.00    +0.295 HD
ENDBRANCH  26  27
ENDBRANCH   1  26
TORSDOF 9
ENDMDL
MODEL 9
REMARK VINA RESULT:      -6.0      4.574      8.799
REMARK  Name = NuBBE_1089
REMARK  12 active torsions:
REMARK  status: ('A' for Active; 'I' for Inactive)
REMARK    1  A    between atoms: C_2  and  O_3
REMARK    2  A    between atoms: C_2  and  C_4
REMARK    3  A    between atoms: C_4  and  C_5
REMARK    4  A    between atoms: C_7  and  O_8
REMARK    5  A    between atoms: C_9  and  C_10
REMARK    6  A    between atoms: C_10  and  O_11
REMARK    7  A    between atoms: O_11  and  C_12
REMARK    8  A    between atoms: C_16  and  C_17
REMARK    9  A    between atoms: C_19  and  O_20
REMARK   10  A    between atoms: O_20  and  C_21
REMARK   11  A    between atoms: C_22  and  O_23
REMARK   12  A    between atoms: O_23  and  C_24
REMARK                            x       y       z     vdW  Elec       q    Type
REMARK                         _______ _______ _______ _____ _____    ______ ____
ROOT
ATOM      1  C   LIG A   1      -8.196  -1.807 126.273  0.00  0.00    +0.067 C 
ATOM      2  C   LIG A   1      -8.340  -0.523 125.882  0.00  0.00    +0.023 C 
ENDROOT
BRANCH   1   3
ATOM      3  C   LIG A   1      -7.475  -2.229 127.497  0.00  0.00    -0.008 A 
ATOM      4  C   LIG A   1      -6.083  -2.081 127.610  0.00  0.00    +0.055 A 
ATOM      5  C   LIG A   1      -5.400  -2.584 128.723  0.00  0.00    +0.131 A 
ATOM      6  C   LIG A   1      -6.085  -3.272 129.733  0.00  0.00    +0.100 A 
ATOM      7  C   LIG A   1      -7.481  -3.408 129.629  0.00  0.00    +0.019 A 
ATOM      8  C   LIG A   1      -8.168  -2.880 128.529  0.00  0.00    +0.010 A 
BRANCH   5   9
ATOM      9  O   LIG A   1      -4.040  -2.397 128.745  0.00  0.00    -0.506 OA
ATOM     10  H   LIG A   1      -3.779  -1.838 127.981  0.00  0.00    +0.292 HD
ENDBRANCH   5   9
BRANCH   6  11
ATOM     11  C   LIG A   1      -5.361  -3.834 130.890  0.00  0.00    +0.343 C 
ATOM     12  O   LIG A   1      -5.424  -5.023 131.210  0.00  0.00    -0.245 OA
BRANCH  11  13
ATOM     13  O   LIG A   1      -4.697  -2.850 131.543  0.00  0.00    -0.464 OA
ATOM     14  C   LIG A   1      -5.397  -2.273 132.648  0.00  0.00    +0.280 C 
ENDBRANCH  11  13
ENDBRANCH   6  11
ENDBRANCH   1   3
BRANCH   2  15
ATOM     15  C   LIG A   1      -7.853   0.696 126.534  0.00  0.00    -0.021 A 
ATOM     16  C   LIG A   1      -6.681   1.313 126.082  0.00  0.00    +0.057 A 
ATOM     17  C   LIG A   1      -6.265   2.541 126.614  0.00  0.00    +0.162 A 
ATOM     18  C   LIG A   1      -6.989   3.110 127.679  0.00  0.00    +0.162 A 
ATOM     19  C   LIG A   1      -8.180   2.507 128.102  0.00  0.00    +0.050 A 
ATOM     20  C   LIG A   1      -8.618   1.315 127.522  0.00  0.00    +0.012 A 
BRANCH  17  21
ATOM     21  O   LIG A   1      -5.142   3.204 126.182  0.00  0.00    -0.491 OA
ATOM     22  C   LIG A   1      -3.895   2.611 126.540  0.00  0.00    +0.277 C 
ENDBRANCH  17  21
BRANCH  18  23
ATOM     23  O   LIG A   1      -6.522   4.283 128.225  0.00  0.00    -0.491 OA
ATOM     24  C   LIG A   1      -6.008   4.159 129.549  0.00  0.00    +0.277 C 
ENDBRANCH  18  23
ENDBRANCH   2  15
BRANCH   1  26
ATOM     25  O   LIG A   1      -8.245  -3.647 124.697  0.00  0.00    -0.245 OA
ATOM     26  C   LIG A   1      -8.833  -2.872 125.436  0.00  0.00    +0.337 C 
BRANCH  26  27
ATOM     27  O   LIG A   1     -10.172  -2.944 125.553  0.00  0.00    -0.477 OA
ATOM     28  H   LIG A   1     -10.336  -2.751 126.500  0.00  0.00    +0.295 HD
ENDBRANCH  26  27
ENDBRANCH   1  26
TORSDOF 9
ENDMDL
