MODEL 1
REMARK VINA RESULT:      -8.2      0.000      0.000
REMARK  Name = NuBBE_1466
REMARK  9 active torsions:
REMARK  status: ('A' for Active; 'I' for Inactive)
REMARK    1  A    between atoms: C_1  and  C_2
REMARK    2  A    between atoms: C_10  and  C_11
REMARK    3  A    between atoms: C_16  and  C_17
REMARK    4  A    between atoms: C_16  and  C_18
REMARK    5  A    between atoms: C_19  and  C_21
REMARK    6  A    between atoms: C_21  and  C_22
REMARK    7  A    between atoms: C_22  and  O_23
REMARK    8  A    between atoms: O_23  and  C_24
REMARK    9  A    between atoms: C_29  and  C_31
REMARK                            x       y       z     vdW  Elec       q    Type
REMARK                         _______ _______ _______ _____ _____    ______ ____
ROOT
ATOM      1  C   LIG A   1      -7.733   0.511 123.632  0.00  0.00    +0.020 C 
ATOM      2  C   LIG A   1      -8.265   1.516 124.685  0.00  0.00    +0.032 C 
ATOM      3  C   LIG A   1      -7.324   1.873 125.827  0.00  0.00    -0.039 C 
ATOM      4  C   LIG A   1      -7.046   3.150 126.138  0.00  0.00    +0.092 C 
ATOM      5  C   LIG A   1      -9.295   0.767 125.551  0.00  0.00    +0.016 C 
ATOM      6  C   LIG A   1      -8.450  -0.069 126.564  0.00  0.00    +0.021 C 
ATOM      7  C   LIG A   1      -7.093   0.669 126.756  0.00  0.00    +0.063 C 
ATOM      8  C   LIG A   1      -6.609   0.919 128.277  0.00  0.00    +0.046 C 
ATOM      9  C   LIG A   1      -6.629  -0.450 129.043  0.00  0.00    +0.021 C 
ATOM     10  C   LIG A   1      -5.152   1.201 127.953  0.00  0.00    +0.116 C 
ATOM     11  O   LIG A   1      -4.726   0.425 126.890  0.00  0.00    -0.464 OA
ATOM     12  C   LIG A   1      -4.360   2.165 128.399  0.00  0.00    +0.089 C 
ATOM     13  C   LIG A   1      -4.851   3.162 129.342  0.00  0.00    +0.165 C 
ATOM     14  C   LIG A   1      -6.246   3.029 129.976  0.00  0.00    +0.032 C 
ATOM     15  C   LIG A   1      -5.915   2.552 131.417  0.00  0.00    +0.019 C 
ATOM     16  C   LIG A   1      -6.799   4.466 130.082  0.00  0.00    +0.019 C 
ATOM     17  C   LIG A   1      -7.264   1.971 129.316  0.00  0.00    +0.027 C 
ATOM     18  O   LIG A   1      -4.064   4.063 129.638  0.00  0.00    -0.292 OA
ATOM     19  C   LIG A   1      -5.841  -0.089 126.250  0.00  0.00    +0.109 C 
ATOM     20  C   LIG A   1      -5.679  -1.164 125.470  0.00  0.00    +0.054 C 
ATOM     21  C   LIG A   1      -8.753   2.809 123.941  0.00  0.00    +0.220 C 
ATOM     22  O   LIG A   1      -8.873   3.946 124.818  0.00  0.00    -0.453 OA
ATOM     23  C   LIG A   1      -7.805   4.293 125.575  0.00  0.00    +0.333 C 
ATOM     24  O   LIG A   1      -7.574   5.439 125.926  0.00  0.00    -0.246 OA
ENDROOT
BRANCH  21  25
ATOM     25  C   LIG A   1      -7.934   3.179 122.709  0.00  0.00    +0.031 A 
ATOM     26  C   LIG A   1      -8.428   3.471 121.448  0.00  0.00    +0.202 A 
ATOM     27  O   LIG A   1      -7.424   3.676 120.560  0.00  0.00    -0.471 OA
ATOM     28  C   LIG A   1      -6.262   3.551 121.243  0.00  0.00    +0.195 A 
ATOM     29  C   LIG A   1      -6.514   3.264 122.564  0.00  0.00    +0.048 A 
ENDBRANCH  21  25
BRANCH  17  30
ATOM     30  C   LIG A   1      -8.709   2.446 128.991  0.00  0.00    +0.126 C 
BRANCH  30  31
ATOM     31  C   LIG A   1      -9.659   2.706 130.166  0.00  0.00    +0.307 C 
ATOM     32  O   LIG A   1     -10.578   3.520 130.161  0.00  0.00    -0.251 OA
BRANCH  31  33
ATOM     33  O   LIG A   1      -9.417   1.836 131.188  0.00  0.00    -0.468 OA
ATOM     34  C   LIG A   1      -9.521   2.381 132.515  0.00  0.00    +0.280 C 
ENDBRANCH  31  33
ENDBRANCH  30  31
ENDBRANCH  17  30
TORSDOF 4
ENDMDL
MODEL 2
REMARK VINA RESULT:      -7.8      3.131      4.538
REMARK  Name = NuBBE_1466
REMARK  9 active torsions:
REMARK  status: ('A' for Active; 'I' for Inactive)
REMARK    1  A    between atoms: C_1  and  C_2
REMARK    2  A    between atoms: C_10  and  C_11
REMARK    3  A    between atoms: C_16  and  C_17
REMARK    4  A    between atoms: C_16  and  C_18
REMARK    5  A    between atoms: C_19  and  C_21
REMARK    6  A    between atoms: C_21  and  C_22
REMARK    7  A    between atoms: C_22  and  O_23
REMARK    8  A    between atoms: O_23  and  C_24
REMARK    9  A    between atoms: C_29  and  C_31
REMARK                            x       y       z     vdW  Elec       q    Type
REMARK                         _______ _______ _______ _____ _____    ______ ____
ROOT
ATOM      1  C   LIG A   1      -5.554   1.240 127.282  0.00  0.00    +0.020 C 
ATOM      2  C   LIG A   1      -6.223   2.556 127.755  0.00  0.00    +0.032 C 
ATOM      3  C   LIG A   1      -6.345   2.760 129.259  0.00  0.00    -0.039 C 
ATOM      4  C   LIG A   1      -5.906   3.881 129.855  0.00  0.00    +0.092 C 
ATOM      5  C   LIG A   1      -7.733   2.422 127.486  0.00  0.00    +0.016 C 
ATOM      6  C   LIG A   1      -8.284   1.551 128.660  0.00  0.00    +0.021 C 
ATOM      7  C   LIG A   1      -7.339   1.763 129.878  0.00  0.00    +0.063 C 
ATOM      8  C   LIG A   1      -8.040   2.111 131.291  0.00  0.00    +0.046 C 
ATOM      9  C   LIG A   1      -9.129   1.024 131.595  0.00  0.00    +0.021 C 
ATOM     10  C   LIG A   1      -6.846   1.770 132.167  0.00  0.00    +0.116 C 
ATOM     11  O   LIG A   1      -6.143   0.700 131.644  0.00  0.00    -0.464 OA
ATOM     12  C   LIG A   1      -6.324   2.445 133.181  0.00  0.00    +0.089 C 
ATOM     13  C   LIG A   1      -6.894   3.716 133.608  0.00  0.00    +0.165 C 
ATOM     14  C   LIG A   1      -8.214   4.230 133.008  0.00  0.00    +0.032 C 
ATOM     15  C   LIG A   1      -9.230   3.959 134.152  0.00  0.00    +0.019 C 
ATOM     16  C   LIG A   1      -8.054   5.761 132.889  0.00  0.00    +0.019 C 
ATOM     17  C   LIG A   1      -8.752   3.512 131.672  0.00  0.00    +0.027 C 
ATOM     18  O   LIG A   1      -6.293   4.305 134.508  0.00  0.00    -0.292 OA
ATOM     19  C   LIG A   1      -6.542   0.515 130.332  0.00  0.00    +0.109 C 
ATOM     20  C   LIG A   1      -6.311  -0.675 129.765  0.00  0.00    +0.054 C 
ATOM     21  C   LIG A   1      -5.477   3.764 127.089  0.00  0.00    +0.220 C 
ATOM     22  O   LIG A   1      -5.728   5.015 127.760  0.00  0.00    -0.453 OA
ATOM     23  C   LIG A   1      -5.506   5.087 129.093  0.00  0.00    +0.333 C 
ATOM     24  O   LIG A   1      -5.174   6.114 129.664  0.00  0.00    -0.246 OA
ENDROOT
BRANCH  21  25
ATOM     25  C   LIG A   1      -3.977   3.559 126.903  0.00  0.00    +0.031 A 
ATOM     26  C   LIG A   1      -3.264   3.714 125.725  0.00  0.00    +0.202 A 
ATOM     27  O   LIG A   1      -1.962   3.372 125.888  0.00  0.00    -0.471 OA
ATOM     28  C   LIG A   1      -1.806   3.020 127.186  0.00  0.00    +0.195 A 
ATOM     29  C   LIG A   1      -3.002   3.132 127.857  0.00  0.00    +0.048 A 
ENDBRANCH  21  25
BRANCH  17  30
ATOM     30  C   LIG A   1      -9.183   4.409 130.477  0.00  0.00    +0.126 C 
BRANCH  30  31
ATOM     31  C   LIG A   1     -10.671   4.751 130.337  0.00  0.00    +0.307 C 
ATOM     32  O   LIG A   1     -11.565   3.934 130.137  0.00  0.00    -0.251 OA
BRANCH  31  33
ATOM     33  O   LIG A   1     -10.888   6.078 130.570  0.00  0.00    -0.468 OA
ATOM     34  C   LIG A   1     -11.623   6.393 131.765  0.00  0.00    +0.280 C 
ENDBRANCH  31  33
ENDBRANCH  30  31
ENDBRANCH  17  30
TORSDOF 4
ENDMDL
MODEL 3
REMARK VINA RESULT:      -7.7      3.487      7.600
REMARK  Name = NuBBE_1466
REMARK  9 active torsions:
REMARK  status: ('A' for Active; 'I' for Inactive)
REMARK    1  A    between atoms: C_1  and  C_2
REMARK    2  A    between atoms: C_10  and  C_11
REMARK    3  A    between atoms: C_16  and  C_17
REMARK    4  A    between atoms: C_16  and  C_18
REMARK    5  A    between atoms: C_19  and  C_21
REMARK    6  A    between atoms: C_21  and  C_22
REMARK    7  A    between atoms: C_22  and  O_23
REMARK    8  A    between atoms: O_23  and  C_24
REMARK    9  A    between atoms: C_29  and  C_31
REMARK                            x       y       z     vdW  Elec       q    Type
REMARK                         _______ _______ _______ _____ _____    ______ ____
ROOT
ATOM      1  C   LIG A   1      -3.435   2.912 132.571  0.00  0.00    +0.020 C 
ATOM      2  C   LIG A   1      -4.166   3.636 131.411  0.00  0.00    +0.032 C 
ATOM      3  C   LIG A   1      -5.599   4.076 131.674  0.00  0.00    -0.039 C 
ATOM      4  C   LIG A   1      -6.000   5.338 131.452  0.00  0.00    +0.092 C 
ATOM      5  C   LIG A   1      -4.514   2.569 130.356  0.00  0.00    +0.016 C 
ATOM      6  C   LIG A   1      -5.788   1.851 130.903  0.00  0.00    +0.021 C 
ATOM      7  C   LIG A   1      -6.537   2.865 131.816  0.00  0.00    +0.063 C 
ATOM      8  C   LIG A   1      -8.120   3.049 131.553  0.00  0.00    +0.046 C 
ATOM      9  C   LIG A   1      -8.805   1.638 131.584  0.00  0.00    +0.021 C 
ATOM     10  C   LIG A   1      -8.443   3.706 132.884  0.00  0.00    +0.116 C 
ATOM     11  O   LIG A   1      -7.659   3.180 133.895  0.00  0.00    -0.464 OA
ATOM     12  C   LIG A   1      -9.183   4.775 133.139  0.00  0.00    +0.089 C 
ATOM     13  C   LIG A   1      -9.832   5.512 132.063  0.00  0.00    +0.165 C 
ATOM     14  C   LIG A   1      -9.817   4.979 130.620  0.00  0.00    +0.032 C 
ATOM     15  C   LIG A   1     -11.262   4.436 130.448  0.00  0.00    +0.019 C 
ATOM     16  C   LIG A   1      -9.680   6.221 129.714  0.00  0.00    +0.019 C 
ATOM     17  C   LIG A   1      -8.786   3.791 130.279  0.00  0.00    +0.027 C 
ATOM     18  O   LIG A   1     -10.434   6.536 132.391  0.00  0.00    -0.292 OA
ATOM     19  C   LIG A   1      -6.607   2.490 133.316  0.00  0.00    +0.109 C 
ATOM     20  C   LIG A   1      -5.968   1.580 134.060  0.00  0.00    +0.054 C 
ATOM     21  C   LIG A   1      -3.287   4.850 130.946  0.00  0.00    +0.220 C 
ATOM     22  O   LIG A   1      -4.033   5.819 130.183  0.00  0.00    -0.453 OA
ATOM     23  C   LIG A   1      -5.171   6.323 130.716  0.00  0.00    +0.333 C 
ATOM     24  O   LIG A   1      -5.588   7.444 130.472  0.00  0.00    -0.246 OA
ENDROOT
BRANCH  21  25
ATOM     25  C   LIG A   1      -2.518   5.542 132.066  0.00  0.00    +0.031 A 
ATOM     26  C   LIG A   1      -3.061   6.275 133.108  0.00  0.00    +0.202 A 
ATOM     27  O   LIG A   1      -2.092   6.826 133.881  0.00  0.00    -0.471 OA
ATOM     28  C   LIG A   1      -0.904   6.429 133.367  0.00  0.00    +0.195 A 
ATOM     29  C   LIG A   1      -1.105   5.629 132.266  0.00  0.00    +0.048 A 
ENDBRANCH  21  25
BRANCH  17  30
ATOM     30  C   LIG A   1      -7.882   3.939 129.023  0.00  0.00    +0.126 C 
BRANCH  30  31
ATOM     31  C   LIG A   1      -7.904   2.811 127.985  0.00  0.00    +0.307 C 
ATOM     32  O   LIG A   1      -8.856   2.065 127.777  0.00  0.00    -0.251 OA
BRANCH  31  33
ATOM     33  O   LIG A   1      -6.759   2.811 127.243  0.00  0.00    -0.468 OA
ATOM     34  C   LIG A   1      -5.976   4.016 127.297  0.00  0.00    +0.280 C 
ENDBRANCH  31  33
ENDBRANCH  30  31
ENDBRANCH  17  30
TORSDOF 4
ENDMDL
MODEL 4
REMARK VINA RESULT:      -7.7      2.571      5.438
REMARK  Name = NuBBE_1466
REMARK  9 active torsions:
REMARK  status: ('A' for Active; 'I' for Inactive)
REMARK    1  A    between atoms: C_1  and  C_2
REMARK    2  A    between atoms: C_10  and  C_11
REMARK    3  A    between atoms: C_16  and  C_17
REMARK    4  A    between atoms: C_16  and  C_18
REMARK    5  A    between atoms: C_19  and  C_21
REMARK    6  A    between atoms: C_21  and  C_22
REMARK    7  A    between atoms: C_22  and  O_23
REMARK    8  A    between atoms: O_23  and  C_24
REMARK    9  A    between atoms: C_29  and  C_31
REMARK                            x       y       z     vdW  Elec       q    Type
REMARK                         _______ _______ _______ _____ _____    ______ ____
ROOT
ATOM      1  C   LIG A   1      -4.028   4.057 127.488  0.00  0.00    +0.020 C 
ATOM      2  C   LIG A   1      -4.954   3.258 128.441  0.00  0.00    +0.032 C 
ATOM      3  C   LIG A   1      -5.849   4.071 129.366  0.00  0.00    -0.039 C 
ATOM      4  C   LIG A   1      -7.173   3.854 129.433  0.00  0.00    +0.092 C 
ATOM      5  C   LIG A   1      -4.065   2.668 129.551  0.00  0.00    +0.016 C 
ATOM      6  C   LIG A   1      -3.816   3.845 130.547  0.00  0.00    +0.021 C 
ATOM      7  C   LIG A   1      -5.023   4.820 130.425  0.00  0.00    +0.063 C 
ATOM      8  C   LIG A   1      -5.727   5.282 131.803  0.00  0.00    +0.046 C 
ATOM      9  C   LIG A   1      -4.628   5.852 132.766  0.00  0.00    +0.021 C 
ATOM     10  C   LIG A   1      -6.455   6.487 131.232  0.00  0.00    +0.116 C 
ATOM     11  O   LIG A   1      -5.697   7.099 130.250  0.00  0.00    -0.464 OA
ATOM     12  C   LIG A   1      -7.711   6.874 131.405  0.00  0.00    +0.089 C 
ATOM     13  C   LIG A   1      -8.622   6.108 132.245  0.00  0.00    +0.165 C 
ATOM     14  C   LIG A   1      -8.114   4.927 133.088  0.00  0.00    +0.032 C 
ATOM     15  C   LIG A   1      -8.087   5.524 134.521  0.00  0.00    +0.019 C 
ATOM     16  C   LIG A   1      -9.238   3.869 133.051  0.00  0.00    +0.019 C 
ATOM     17  C   LIG A   1      -6.649   4.351 132.752  0.00  0.00    +0.027 C 
ATOM     18  O   LIG A   1      -9.788   6.504 132.282  0.00  0.00    -0.292 OA
ATOM     19  C   LIG A   1      -4.694   6.226 129.866  0.00  0.00    +0.109 C 
ATOM     20  C   LIG A   1      -3.622   6.733 129.245  0.00  0.00    +0.054 C 
ATOM     21  C   LIG A   1      -5.803   2.253 127.586  0.00  0.00    +0.220 C 
ATOM     22  O   LIG A   1      -6.965   1.768 128.286  0.00  0.00    -0.453 OA
ATOM     23  C   LIG A   1      -7.822   2.672 128.819  0.00  0.00    +0.333 C 
ATOM     24  O   LIG A   1      -9.018   2.466 128.952  0.00  0.00    -0.246 OA
ENDROOT
BRANCH  21  25
ATOM     25  C   LIG A   1      -6.198   2.769 126.206  0.00  0.00    +0.031 A 
ATOM     26  C   LIG A   1      -6.055   2.096 125.004  0.00  0.00    +0.202 A 
ATOM     27  O   LIG A   1      -6.427   2.873 123.956  0.00  0.00    -0.471 OA
ATOM     28  C   LIG A   1      -6.848   4.053 124.471  0.00  0.00    +0.195 A 
ATOM     29  C   LIG A   1      -6.744   4.038 125.843  0.00  0.00    +0.048 A 
ENDBRANCH  21  25
BRANCH  17  30
ATOM     30  C   LIG A   1      -6.485   2.815 132.572  0.00  0.00    +0.126 C 
BRANCH  30  31
ATOM     31  C   LIG A   1      -6.369   1.953 133.835  0.00  0.00    +0.307 C 
ATOM     32  O   LIG A   1      -5.782   2.282 134.861  0.00  0.00    -0.251 OA
BRANCH  31  33
ATOM     33  O   LIG A   1      -7.098   0.807 133.707  0.00  0.00    -0.468 OA
ATOM     34  C   LIG A   1      -7.638   0.548 132.400  0.00  0.00    +0.280 C 
ENDBRANCH  31  33
ENDBRANCH  30  31
ENDBRANCH  17  30
TORSDOF 4
ENDMDL
MODEL 5
REMARK VINA RESULT:      -7.6      4.799      6.439
REMARK  Name = NuBBE_1466
REMARK  9 active torsions:
REMARK  status: ('A' for Active; 'I' for Inactive)
REMARK    1  A    between atoms: C_1  and  C_2
REMARK    2  A    between atoms: C_10  and  C_11
REMARK    3  A    between atoms: C_16  and  C_17
REMARK    4  A    between atoms: C_16  and  C_18
REMARK    5  A    between atoms: C_19  and  C_21
REMARK    6  A    between atoms: C_21  and  C_22
REMARK    7  A    between atoms: C_22  and  O_23
REMARK    8  A    between atoms: O_23  and  C_24
REMARK    9  A    between atoms: C_29  and  C_31
REMARK                            x       y       z     vdW  Elec       q    Type
REMARK                         _______ _______ _______ _____ _____    ______ ____
ROOT
ATOM      1  C   LIG A   1     -10.438   3.432 131.198  0.00  0.00    +0.020 C 
ATOM      2  C   LIG A   1      -9.430   4.403 131.863  0.00  0.00    +0.032 C 
ATOM      3  C   LIG A   1      -7.965   4.234 131.484  0.00  0.00    -0.039 C 
ATOM      4  C   LIG A   1      -7.225   5.269 131.052  0.00  0.00    +0.092 C 
ATOM      5  C   LIG A   1      -9.270   3.961 133.330  0.00  0.00    +0.016 C 
ATOM      6  C   LIG A   1      -8.292   2.744 133.289  0.00  0.00    +0.021 C 
ATOM      7  C   LIG A   1      -7.398   2.910 132.025  0.00  0.00    +0.063 C 
ATOM      8  C   LIG A   1      -5.805   2.753 132.236  0.00  0.00    +0.046 C 
ATOM      9  C   LIG A   1      -5.523   1.391 132.961  0.00  0.00    +0.021 C 
ATOM     10  C   LIG A   1      -5.455   2.535 130.773  0.00  0.00    +0.116 C 
ATOM     11  O   LIG A   1      -6.448   1.815 130.134  0.00  0.00    -0.464 OA
ATOM     12  C   LIG A   1      -4.489   3.078 130.047  0.00  0.00    +0.089 C 
ATOM     13  C   LIG A   1      -3.565   4.041 130.630  0.00  0.00    +0.165 C 
ATOM     14  C   LIG A   1      -3.575   4.332 132.140  0.00  0.00    +0.032 C 
ATOM     15  C   LIG A   1      -2.314   3.571 132.636  0.00  0.00    +0.019 C 
ATOM     16  C   LIG A   1      -3.287   5.841 132.281  0.00  0.00    +0.019 C 
ATOM     17  C   LIG A   1      -4.842   3.815 132.987  0.00  0.00    +0.027 C 
ATOM     18  O   LIG A   1      -2.750   4.548 129.856  0.00  0.00    -0.292 OA
ATOM     19  C   LIG A   1      -7.581   1.831 130.930  0.00  0.00    +0.109 C 
ATOM     20  C   LIG A   1      -8.509   0.890 130.722  0.00  0.00    +0.054 C 
ATOM     21  C   LIG A   1      -9.906   5.875 131.601  0.00  0.00    +0.220 C 
ATOM     22  O   LIG A   1      -8.858   6.844 131.801  0.00  0.00    -0.453 OA
ATOM     23  C   LIG A   1      -7.687   6.674 131.143  0.00  0.00    +0.333 C 
ATOM     24  O   LIG A   1      -6.967   7.600 130.803  0.00  0.00    -0.246 OA
ENDROOT
BRANCH  21  25
ATOM     25  C   LIG A   1     -10.574   6.095 130.248  0.00  0.00    +0.031 A 
ATOM     26  C   LIG A   1      -9.939   6.188 129.021  0.00  0.00    +0.202 A 
ATOM     27  O   LIG A   1     -10.821   6.470 128.030  0.00  0.00    -0.471 OA
ATOM     28  C   LIG A   1     -12.048   6.531 128.599  0.00  0.00    +0.195 A 
ATOM     29  C   LIG A   1     -11.958   6.293 129.951  0.00  0.00    +0.048 A 
ENDBRANCH  21  25
BRANCH  17  30
ATOM     30  C   LIG A   1      -5.544   4.817 133.946  0.00  0.00    +0.126 C 
BRANCH  30  31
ATOM     31  C   LIG A   1      -5.161   4.778 135.430  0.00  0.00    +0.307 C 
ATOM     32  O   LIG A   1      -4.018   4.874 135.865  0.00  0.00    -0.251 OA
BRANCH  31  33
ATOM     33  O   LIG A   1      -6.275   4.730 136.217  0.00  0.00    -0.468 OA
ATOM     34  C   LIG A   1      -7.268   5.738 135.963  0.00  0.00    +0.280 C 
ENDBRANCH  31  33
ENDBRANCH  30  31
ENDBRANCH  17  30
TORSDOF 4
ENDMDL
MODEL 6
REMARK VINA RESULT:      -7.6      3.985      6.956
REMARK  Name = NuBBE_1466
REMARK  9 active torsions:
REMARK  status: ('A' for Active; 'I' for Inactive)
REMARK    1  A    between atoms: C_1  and  C_2
REMARK    2  A    between atoms: C_10  and  C_11
REMARK    3  A    between atoms: C_16  and  C_17
REMARK    4  A    between atoms: C_16  and  C_18
REMARK    5  A    between atoms: C_19  and  C_21
REMARK    6  A    between atoms: C_21  and  C_22
REMARK    7  A    between atoms: C_22  and  O_23
REMARK    8  A    between atoms: O_23  and  C_24
REMARK    9  A    between atoms: C_29  and  C_31
REMARK                            x       y       z     vdW  Elec       q    Type
REMARK                         _______ _______ _______ _____ _____    ______ ____
ROOT
ATOM      1  C   LIG A   1      -9.151   6.279 132.270  0.00  0.00    +0.020 C 
ATOM      2  C   LIG A   1      -8.178   5.770 131.176  0.00  0.00    +0.032 C 
ATOM      3  C   LIG A   1      -7.786   4.300 131.239  0.00  0.00    -0.039 C 
ATOM      4  C   LIG A   1      -7.904   3.494 130.171  0.00  0.00    +0.092 C 
ATOM      5  C   LIG A   1      -6.782   6.325 131.514  0.00  0.00    +0.016 C 
ATOM      6  C   LIG A   1      -6.230   5.395 132.640  0.00  0.00    +0.021 C 
ATOM      7  C   LIG A   1      -6.916   4.007 132.473  0.00  0.00    +0.063 C 
ATOM      8  C   LIG A   1      -5.949   2.713 132.476  0.00  0.00    +0.046 C 
ATOM      9  C   LIG A   1      -5.053   2.756 133.762  0.00  0.00    +0.021 C 
ATOM     10  C   LIG A   1      -7.034   1.685 132.751  0.00  0.00    +0.116 C 
ATOM     11  O   LIG A   1      -8.001   2.205 133.592  0.00  0.00    -0.464 OA
ATOM     12  C   LIG A   1      -7.253   0.514 132.170  0.00  0.00    +0.089 C 
ATOM     13  C   LIG A   1      -6.392   0.038 131.096  0.00  0.00    +0.165 C 
ATOM     14  C   LIG A   1      -5.109   0.797 130.717  0.00  0.00    +0.032 C 
ATOM     15  C   LIG A   1      -3.997  -0.097 131.333  0.00  0.00    +0.019 C 
ATOM     16  C   LIG A   1      -4.991   0.686 129.182  0.00  0.00    +0.019 C 
ATOM     17  C   LIG A   1      -4.932   2.290 131.291  0.00  0.00    +0.027 C 
ATOM     18  O   LIG A   1      -6.721  -1.025 130.567  0.00  0.00    -0.292 OA
ATOM     19  C   LIG A   1      -7.855   3.581 133.628  0.00  0.00    +0.109 C 
ATOM     20  C   LIG A   1      -8.394   4.245 134.657  0.00  0.00    +0.054 C 
ATOM     21  C   LIG A   1      -8.776   6.127 129.770  0.00  0.00    +0.220 C 
ATOM     22  O   LIG A   1      -8.189   5.357 128.702  0.00  0.00    -0.453 OA
ATOM     23  C   LIG A   1      -8.182   4.007 128.808  0.00  0.00    +0.333 C 
ATOM     24  O   LIG A   1      -8.219   3.258 127.845  0.00  0.00    -0.246 OA
ENDROOT
BRANCH  21  25
ATOM     25  C   LIG A   1     -10.297   6.061 129.692  0.00  0.00    +0.031 A 
ATOM     26  C   LIG A   1     -11.090   4.962 129.981  0.00  0.00    +0.202 A 
ATOM     27  O   LIG A   1     -12.398   5.217 129.726  0.00  0.00    -0.471 OA
ATOM     28  C   LIG A   1     -12.473   6.500 129.297  0.00  0.00    +0.195 A 
ATOM     29  C   LIG A   1     -11.221   7.068 129.273  0.00  0.00    +0.048 A 
ENDBRANCH  21  25
BRANCH  17  30
ATOM     30  C   LIG A   1      -4.531   3.417 130.298  0.00  0.00    +0.126 C 
BRANCH  30  31
ATOM     31  C   LIG A   1      -3.291   4.258 130.629  0.00  0.00    +0.307 C 
ATOM     32  O   LIG A   1      -2.760   4.323 131.734  0.00  0.00    -0.251 OA
BRANCH  31  33
ATOM     33  O   LIG A   1      -2.788   4.844 129.505  0.00  0.00    -0.468 OA
ATOM     34  C   LIG A   1      -2.900   4.077 128.293  0.00  0.00    +0.280 C 
ENDBRANCH  31  33
ENDBRANCH  30  31
ENDBRANCH  17  30
TORSDOF 4
ENDMDL
MODEL 7
REMARK VINA RESULT:      -7.5      2.870      6.966
REMARK  Name = NuBBE_1466
REMARK  9 active torsions:
REMARK  status: ('A' for Active; 'I' for Inactive)
REMARK    1  A    between atoms: C_1  and  C_2
REMARK    2  A    between atoms: C_10  and  C_11
REMARK    3  A    between atoms: C_16  and  C_17
REMARK    4  A    between atoms: C_16  and  C_18
REMARK    5  A    between atoms: C_19  and  C_21
REMARK    6  A    between atoms: C_21  and  C_22
REMARK    7  A    between atoms: C_22  and  O_23
REMARK    8  A    between atoms: O_23  and  C_24
REMARK    9  A    between atoms: C_29  and  C_31
REMARK                            x       y       z     vdW  Elec       q    Type
REMARK                         _______ _______ _______ _____ _____    ______ ____
ROOT
ATOM      1  C   LIG A   1      -9.891   5.876 132.551  0.00  0.00    +0.020 C 
ATOM      2  C   LIG A   1      -9.061   6.132 131.268  0.00  0.00    +0.032 C 
ATOM      3  C   LIG A   1      -8.722   4.915 130.417  0.00  0.00    -0.039 C 
ATOM      4  C   LIG A   1      -8.985   4.882 129.100  0.00  0.00    +0.092 C 
ATOM      5  C   LIG A   1      -7.616   6.427 131.711  0.00  0.00    +0.016 C 
ATOM      6  C   LIG A   1      -6.985   5.031 132.014  0.00  0.00    +0.021 C 
ATOM      7  C   LIG A   1      -7.738   3.983 131.144  0.00  0.00    +0.063 C 
ATOM      8  C   LIG A   1      -6.829   2.961 130.286  0.00  0.00    +0.046 C 
ATOM      9  C   LIG A   1      -5.800   2.271 131.248  0.00  0.00    +0.021 C 
ATOM     10  C   LIG A   1      -7.918   1.934 130.025  0.00  0.00    +0.116 C 
ATOM     11  O   LIG A   1      -8.769   1.834 131.111  0.00  0.00    -0.464 OA
ATOM     12  C   LIG A   1      -8.243   1.317 128.898  0.00  0.00    +0.089 C 
ATOM     13  C   LIG A   1      -7.520   1.585 127.662  0.00  0.00    +0.165 C 
ATOM     14  C   LIG A   1      -6.256   2.460 127.661  0.00  0.00    +0.032 C 
ATOM     15  C   LIG A   1      -5.121   1.409 127.513  0.00  0.00    +0.019 C 
ATOM     16  C   LIG A   1      -6.306   3.271 126.348  0.00  0.00    +0.019 C 
ATOM     17  C   LIG A   1      -5.960   3.341 128.975  0.00  0.00    +0.027 C 
ATOM     18  O   LIG A   1      -7.945   1.022 126.652  0.00  0.00    -0.292 OA
ATOM     19  C   LIG A   1      -8.566   2.934 131.927  0.00  0.00    +0.109 C 
ATOM     20  C   LIG A   1      -8.966   2.855 133.201  0.00  0.00    +0.054 C 
ATOM     21  C   LIG A   1      -9.789   7.225 130.410  0.00  0.00    +0.220 C 
ATOM     22  O   LIG A   1      -9.350   7.242 129.037  0.00  0.00    -0.453 OA
ATOM     23  C   LIG A   1      -9.385   6.086 128.334  0.00  0.00    +0.333 C 
ATOM     24  O   LIG A   1      -9.553   6.040 127.126  0.00  0.00    -0.246 OA
ENDROOT
BRANCH  21  25
ATOM     25  C   LIG A   1     -11.312   7.171 130.474  0.00  0.00    +0.031 A 
ATOM     26  C   LIG A   1     -12.163   6.714 129.481  0.00  0.00    +0.202 A 
ATOM     27  O   LIG A   1     -13.463   6.883 129.828  0.00  0.00    -0.471 OA
ATOM     28  C   LIG A   1     -13.472   7.426 131.069  0.00  0.00    +0.195 A 
ATOM     29  C   LIG A   1     -12.184   7.608 131.519  0.00  0.00    +0.048 A 
ENDBRANCH  21  25
BRANCH  17  30
ATOM     30  C   LIG A   1      -5.623   4.848 128.790  0.00  0.00    +0.126 C 
BRANCH  30  31
ATOM     31  C   LIG A   1      -4.198   5.216 128.357  0.00  0.00    +0.307 C 
ATOM     32  O   LIG A   1      -3.853   6.315 127.934  0.00  0.00    -0.251 OA
BRANCH  31  33
ATOM     33  O   LIG A   1      -3.336   4.188 128.603  0.00  0.00    -0.468 OA
ATOM     34  C   LIG A   1      -2.442   3.848 127.529  0.00  0.00    +0.280 C 
ENDBRANCH  31  33
ENDBRANCH  30  31
ENDBRANCH  17  30
TORSDOF 4
ENDMDL
MODEL 8
REMARK VINA RESULT:      -7.5      2.827      4.144
REMARK  Name = NuBBE_1466
REMARK  9 active torsions:
REMARK  status: ('A' for Active; 'I' for Inactive)
REMARK    1  A    between atoms: C_1  and  C_2
REMARK    2  A    between atoms: C_10  and  C_11
REMARK    3  A    between atoms: C_16  and  C_17
REMARK    4  A    between atoms: C_16  and  C_18
REMARK    5  A    between atoms: C_19  and  C_21
REMARK    6  A    between atoms: C_21  and  C_22
REMARK    7  A    between atoms: C_22  and  O_23
REMARK    8  A    between atoms: O_23  and  C_24
REMARK    9  A    between atoms: C_29  and  C_31
REMARK                            x       y       z     vdW  Elec       q    Type
REMARK                         _______ _______ _______ _____ _____    ______ ____
ROOT
ATOM      1  C   LIG A   1      -5.907  -2.678 128.387  0.00  0.00    +0.020 C 
ATOM      2  C   LIG A   1      -7.017  -1.597 128.367  0.00  0.00    +0.032 C 
ATOM      3  C   LIG A   1      -6.573  -0.155 128.569  0.00  0.00    -0.039 C 
ATOM      4  C   LIG A   1      -6.928   0.818 127.714  0.00  0.00    +0.092 C 
ATOM      5  C   LIG A   1      -7.792  -1.715 129.692  0.00  0.00    +0.016 C 
ATOM      6  C   LIG A   1      -6.906  -0.990 130.754  0.00  0.00    +0.021 C 
ATOM      7  C   LIG A   1      -6.056   0.074 130.000  0.00  0.00    +0.063 C 
ATOM      8  C   LIG A   1      -6.050   1.568 130.614  0.00  0.00    +0.046 C 
ATOM      9  C   LIG A   1      -5.652   1.489 132.129  0.00  0.00    +0.021 C 
ATOM     10  C   LIG A   1      -4.813   2.054 129.877  0.00  0.00    +0.116 C 
ATOM     11  O   LIG A   1      -3.890   1.034 129.739  0.00  0.00    -0.464 OA
ATOM     12  C   LIG A   1      -4.612   3.192 129.228  0.00  0.00    +0.089 C 
ATOM     13  C   LIG A   1      -5.659   4.200 129.140  0.00  0.00    +0.165 C 
ATOM     14  C   LIG A   1      -6.967   4.052 129.934  0.00  0.00    +0.032 C 
ATOM     15  C   LIG A   1      -6.774   5.069 131.092  0.00  0.00    +0.019 C 
ATOM     16  C   LIG A   1      -8.082   4.602 129.019  0.00  0.00    +0.019 C 
ATOM     17  C   LIG A   1      -7.286   2.610 130.577  0.00  0.00    +0.027 C 
ATOM     18  O   LIG A   1      -5.404   5.190 128.451  0.00  0.00    -0.292 OA
ATOM     19  C   LIG A   1      -4.527  -0.168 129.999  0.00  0.00    +0.109 C 
ATOM     20  C   LIG A   1      -3.770  -1.224 130.319  0.00  0.00    +0.054 C 
ATOM     21  C   LIG A   1      -7.836  -1.745 127.037  0.00  0.00    +0.220 C 
ATOM     22  O   LIG A   1      -8.602  -0.567 126.718  0.00  0.00    -0.453 OA
ATOM     23  C   LIG A   1      -7.962   0.625 126.669  0.00  0.00    +0.333 C 
ATOM     24  O   LIG A   1      -8.312   1.546 125.948  0.00  0.00    -0.246 OA
ENDROOT
BRANCH  21  25
ATOM     25  C   LIG A   1      -7.013  -2.180 125.829  0.00  0.00    +0.031 A 
ATOM     26  C   LIG A   1      -7.329  -3.191 124.937  0.00  0.00    +0.202 A 
ATOM     27  O   LIG A   1      -6.339  -3.374 124.028  0.00  0.00    -0.471 OA
ATOM     28  C   LIG A   1      -5.379  -2.458 124.300  0.00  0.00    +0.195 A 
ATOM     29  C   LIG A   1      -5.746  -1.691 125.381  0.00  0.00    +0.048 A 
ENDBRANCH  21  25
BRANCH  17  30
ATOM     30  C   LIG A   1      -8.694   1.995 130.340  0.00  0.00    +0.126 C 
BRANCH  30  31
ATOM     31  C   LIG A   1      -9.585   1.751 131.565  0.00  0.00    +0.307 C 
ATOM     32  O   LIG A   1      -9.902   0.646 131.996  0.00  0.00    -0.251 OA
BRANCH  31  33
ATOM     33  O   LIG A   1      -9.896   2.928 132.181  0.00  0.00    -0.468 OA
ATOM     34  C   LIG A   1      -9.242   3.169 133.439  0.00  0.00    +0.280 C 
ENDBRANCH  31  33
ENDBRANCH  30  31
ENDBRANCH  17  30
TORSDOF 4
ENDMDL
MODEL 9
REMARK VINA RESULT:      -7.4      2.963      6.352
REMARK  Name = NuBBE_1466
REMARK  9 active torsions:
REMARK  status: ('A' for Active; 'I' for Inactive)
REMARK    1  A    between atoms: C_1  and  C_2
REMARK    2  A    between atoms: C_10  and  C_11
REMARK    3  A    between atoms: C_16  and  C_17
REMARK    4  A    between atoms: C_16  and  C_18
REMARK    5  A    between atoms: C_19  and  C_21
REMARK    6  A    between atoms: C_21  and  C_22
REMARK    7  A    between atoms: C_22  and  O_23
REMARK    8  A    between atoms: O_23  and  C_24
REMARK    9  A    between atoms: C_29  and  C_31
REMARK                            x       y       z     vdW  Elec       q    Type
REMARK                         _______ _______ _______ _____ _____    ______ ____
ROOT
ATOM      1  C   LIG A   1      -4.962   4.192 130.991  0.00  0.00    +0.020 C 
ATOM      2  C   LIG A   1      -4.454   3.040 130.087  0.00  0.00    +0.032 C 
ATOM      3  C   LIG A   1      -5.484   2.369 129.189  0.00  0.00    -0.039 C 
ATOM      4  C   LIG A   1      -5.279   2.225 127.869  0.00  0.00    +0.092 C 
ATOM      5  C   LIG A   1      -4.212   1.821 130.996  0.00  0.00    +0.016 C 
ATOM      6  C   LIG A   1      -5.624   1.201 131.237  0.00  0.00    +0.021 C 
ATOM      7  C   LIG A   1      -6.511   1.576 130.014  0.00  0.00    +0.063 C 
ATOM      8  C   LIG A   1      -7.335   0.375 129.317  0.00  0.00    +0.046 C 
ATOM      9  C   LIG A   1      -8.167  -0.372 130.417  0.00  0.00    +0.021 C 
ATOM     10  C   LIG A   1      -8.322   1.253 128.565  0.00  0.00    +0.116 C 
ATOM     11  O   LIG A   1      -8.640   2.377 129.304  0.00  0.00    -0.464 OA
ATOM     12  C   LIG A   1      -8.727   1.178 127.305  0.00  0.00    +0.089 C 
ATOM     13  C   LIG A   1      -8.218   0.143 126.415  0.00  0.00    +0.165 C 
ATOM     14  C   LIG A   1      -7.329  -0.991 126.949  0.00  0.00    +0.032 C 
ATOM     15  C   LIG A   1      -8.307  -2.198 126.982  0.00  0.00    +0.019 C 
ATOM     16  C   LIG A   1      -6.291  -1.270 125.841  0.00  0.00    +0.019 C 
ATOM     17  C   LIG A   1      -6.699  -0.811 128.419  0.00  0.00    +0.027 C 
ATOM     18  O   LIG A   1      -8.595   0.203 125.243  0.00  0.00    -0.292 OA
ATOM     19  C   LIG A   1      -7.706   2.514 130.316  0.00  0.00    +0.109 C 
ATOM     20  C   LIG A   1      -8.029   3.267 131.374  0.00  0.00    +0.054 C 
ATOM     21  C   LIG A   1      -3.239   3.564 129.245  0.00  0.00    +0.220 C 
ATOM     22  O   LIG A   1      -2.957   2.740 128.097  0.00  0.00    -0.453 OA
ATOM     23  C   LIG A   1      -3.964   2.472 127.232  0.00  0.00    +0.333 C 
ATOM     24  O   LIG A   1      -3.790   2.269 126.041  0.00  0.00    -0.246 OA
ENDROOT
BRANCH  21  25
ATOM     25  C   LIG A   1      -3.339   5.028 128.828  0.00  0.00    +0.031 A 
ATOM     26  C   LIG A   1      -4.286   5.581 127.982  0.00  0.00    +0.202 A 
ATOM     27  O   LIG A   1      -4.038   6.895 127.754  0.00  0.00    -0.471 OA
ATOM     28  C   LIG A   1      -2.940   7.219 128.479  0.00  0.00    +0.195 A 
ATOM     29  C   LIG A   1      -2.482   6.120 129.167  0.00  0.00    +0.048 A 
ENDBRANCH  21  25
BRANCH  17  30
ATOM     30  C   LIG A   1      -5.177  -1.069 128.605  0.00  0.00    +0.126 C 
BRANCH  30  31
ATOM     31  C   LIG A   1      -4.734  -2.474 129.030  0.00  0.00    +0.307 C 
ATOM     32  O   LIG A   1      -3.571  -2.818 129.222  0.00  0.00    -0.251 OA
BRANCH  31  33
ATOM     33  O   LIG A   1      -5.814  -3.272 129.271  0.00  0.00    -0.468 OA
ATOM     34  C   LIG A   1      -5.928  -3.786 130.609  0.00  0.00    +0.280 C 
ENDBRANCH  31  33
ENDBRANCH  30  31
ENDBRANCH  17  30
TORSDOF 4
ENDMDL
