MODEL 1
REMARK VINA RESULT:      -8.0      0.000      0.000
REMARK  Name = NuBBE_123
REMARK  12 active torsions:
REMARK  status: ('A' for Active; 'I' for Inactive)
REMARK    1  A    between atoms: C_4  and  O_5
REMARK    2  A    between atoms: C_7  and  O_8
REMARK    3  A    between atoms: C_12  and  C_13
REMARK    4  A    between atoms: C_16  and  O_17
REMARK    5  A    between atoms: C_18  and  O_19
REMARK    6  A    between atoms: C_21  and  O_22
REMARK    7  A    between atoms: O_22  and  C_23
REMARK    8  A    between atoms: C_25  and  O_27
REMARK    9  A    between atoms: C_28  and  O_30
REMARK   10  A    between atoms: C_31  and  O_33
REMARK   11  A    between atoms: C_34  and  C_36
REMARK   12  A    between atoms: C_36  and  O_37
REMARK                            x       y       z     vdW  Elec       q    Type
REMARK                         _______ _______ _______ _____ _____    ______ ____
ROOT
ATOM      1  O   LIG A   1      -8.519   1.486 126.080  0.00  0.00    -0.283 OA
ATOM      2  C   LIG A   1      -7.723   1.431 125.163  0.00  0.00    +0.238 A 
ATOM      3  C   LIG A   1      -7.157   0.137 124.834  0.00  0.00    +0.109 A 
ATOM      4  C   LIG A   1      -7.063  -0.883 125.780  0.00  0.00    +0.135 A 
ATOM      5  C   LIG A   1      -6.605  -2.136 125.395  0.00  0.00    +0.091 A 
ATOM      6  C   LIG A   1      -6.290  -2.354 124.055  0.00  0.00    +0.124 A 
ATOM      7  C   LIG A   1      -6.369  -1.328 123.111  0.00  0.00    +0.092 A 
ATOM      8  C   LIG A   1      -6.777  -0.061 123.518  0.00  0.00    +0.146 A 
ATOM      9  O   LIG A   1      -6.798   0.960 122.603  0.00  0.00    -0.451 OA
ATOM     10  C   LIG A   1      -6.873   2.278 123.079  0.00  0.00    +0.181 A 
ATOM     11  C   LIG A   1      -7.294   2.589 124.328  0.00  0.00    +0.214 A 
ENDROOT
BRANCH  10  12
ATOM     12  C   LIG A   1      -6.460   3.268 122.042  0.00  0.00    +0.025 A 
ATOM     13  C   LIG A   1      -7.169   3.345 120.822  0.00  0.00    +0.015 A 
ATOM     14  C   LIG A   1      -6.782   4.220 119.797  0.00  0.00    +0.050 A 
ATOM     15  C   LIG A   1      -5.682   5.039 119.992  0.00  0.00    +0.158 A 
ATOM     16  C   LIG A   1      -4.984   4.992 121.193  0.00  0.00    +0.159 A 
ATOM     17  C   LIG A   1      -5.345   4.105 122.201  0.00  0.00    +0.060 A 
BRANCH  15  18
ATOM     18  O   LIG A   1      -5.235   5.898 119.028  0.00  0.00    -0.503 OA
ATOM     19  H   LIG A   1      -5.995   6.418 118.714  0.00  0.00    +0.292 HD
ENDBRANCH  15  18
BRANCH  16  20
ATOM     20  O   LIG A   1      -3.921   5.826 121.396  0.00  0.00    -0.503 OA
ATOM     21  H   LIG A   1      -3.477   5.470 122.191  0.00  0.00    +0.292 HD
ENDBRANCH  16  20
ENDBRANCH  10  12
BRANCH   4  22
ATOM     22  O   LIG A   1      -7.394  -0.715 127.097  0.00  0.00    -0.506 OA
ATOM     23  H   LIG A   1      -6.818  -1.299 127.642  0.00  0.00    +0.292 HD
ENDBRANCH   4  22
BRANCH   6  24
ATOM     24  O   LIG A   1      -5.889  -3.584 123.623  0.00  0.00    -0.506 OA
ATOM     25  H   LIG A   1      -6.367  -4.262 124.130  0.00  0.00    +0.292 HD
ENDBRANCH   6  24
BRANCH  11  26
ATOM     26  O   LIG A   1      -7.403   3.882 124.819  0.00  0.00    -0.453 OA
BRANCH  26  27
ATOM     27  C   LIG A   1      -6.465   4.267 125.856  0.00  0.00    +0.340 C 
ATOM     28  C   LIG A   1      -7.026   3.916 127.266  0.00  0.00    +0.214 C 
ATOM     29  C   LIG A   1      -5.903   3.576 128.277  0.00  0.00    +0.180 C 
ATOM     30  C   LIG A   1      -4.641   4.394 127.992  0.00  0.00    +0.177 C 
ATOM     31  C   LIG A   1      -4.173   4.299 126.522  0.00  0.00    +0.179 C 
ATOM     32  O   LIG A   1      -5.153   3.743 125.630  0.00  0.00    -0.331 OA
BRANCH  28  33
ATOM     33  O   LIG A   1      -7.826   5.004 127.779  0.00  0.00    -0.383 OA
ATOM     34  H   LIG A   1      -7.305   5.451 128.472  0.00  0.00    +0.210 HD
ENDBRANCH  28  33
BRANCH  29  35
ATOM     35  O   LIG A   1      -5.552   2.192 128.319  0.00  0.00    -0.386 OA
ATOM     36  H   LIG A   1      -4.668   2.139 128.735  0.00  0.00    +0.210 HD
ENDBRANCH  29  35
BRANCH  30  37
ATOM     37  O   LIG A   1      -4.941   5.771 128.282  0.00  0.00    -0.387 OA
ATOM     38  H   LIG A   1      -4.739   5.901 129.230  0.00  0.00    +0.210 HD
ENDBRANCH  30  37
BRANCH  31  39
ATOM     39  C   LIG A   1      -2.915   3.426 126.391  0.00  0.00    +0.190 C 
BRANCH  39  40
ATOM     40  O   LIG A   1      -2.702   2.668 127.585  0.00  0.00    -0.392 OA
ATOM     41  H   LIG A   1      -1.766   2.788 127.831  0.00  0.00    +0.209 HD
ENDBRANCH  39  40
ENDBRANCH  31  39
ENDBRANCH  26  27
ENDBRANCH  11  26
TORSDOF 12
ENDMDL
MODEL 2
REMARK VINA RESULT:      -7.9      1.503      2.316
REMARK  Name = NuBBE_123
REMARK  12 active torsions:
REMARK  status: ('A' for Active; 'I' for Inactive)
REMARK    1  A    between atoms: C_4  and  O_5
REMARK    2  A    between atoms: C_7  and  O_8
REMARK    3  A    between atoms: C_12  and  C_13
REMARK    4  A    between atoms: C_16  and  O_17
REMARK    5  A    between atoms: C_18  and  O_19
REMARK    6  A    between atoms: C_21  and  O_22
REMARK    7  A    between atoms: O_22  and  C_23
REMARK    8  A    between atoms: C_25  and  O_27
REMARK    9  A    between atoms: C_28  and  O_30
REMARK   10  A    between atoms: C_31  and  O_33
REMARK   11  A    between atoms: C_34  and  C_36
REMARK   12  A    between atoms: C_36  and  O_37
REMARK                            x       y       z     vdW  Elec       q    Type
REMARK                         _______ _______ _______ _____ _____    ______ ____
ROOT
ATOM      1  O   LIG A   1      -7.790   2.232 126.848  0.00  0.00    -0.283 OA
ATOM      2  C   LIG A   1      -7.541   1.970 125.687  0.00  0.00    +0.238 A 
ATOM      3  C   LIG A   1      -7.981   0.688 125.171  0.00  0.00    +0.109 A 
ATOM      4  C   LIG A   1      -8.183  -0.408 126.010  0.00  0.00    +0.135 A 
ATOM      5  C   LIG A   1      -8.699  -1.586 125.486  0.00  0.00    +0.091 A 
ATOM      6  C   LIG A   1      -9.043  -1.628 124.136  0.00  0.00    +0.124 A 
ATOM      7  C   LIG A   1      -8.826  -0.535 123.295  0.00  0.00    +0.092 A 
ATOM      8  C   LIG A   1      -8.258   0.622 123.817  0.00  0.00    +0.146 A 
ATOM      9  O   LIG A   1      -7.991   1.673 122.978  0.00  0.00    -0.451 OA
ATOM     10  C   LIG A   1      -7.123   2.680 123.427  0.00  0.00    +0.181 A 
ATOM     11  C   LIG A   1      -6.834   2.875 124.736  0.00  0.00    +0.214 A 
ENDROOT
BRANCH  10  12
ATOM     12  C   LIG A   1      -6.594   3.502 122.301  0.00  0.00    +0.025 A 
ATOM     13  C   LIG A   1      -7.235   3.466 121.043  0.00  0.00    +0.015 A 
ATOM     14  C   LIG A   1      -6.740   4.178 119.941  0.00  0.00    +0.050 A 
ATOM     15  C   LIG A   1      -5.597   4.945 120.095  0.00  0.00    +0.158 A 
ATOM     16  C   LIG A   1      -4.963   5.009 121.329  0.00  0.00    +0.159 A 
ATOM     17  C   LIG A   1      -5.433   4.282 122.417  0.00  0.00    +0.060 A 
BRANCH  15  18
ATOM     18  O   LIG A   1      -5.046   5.645 119.058  0.00  0.00    -0.503 OA
ATOM     19  H   LIG A   1      -4.415   6.284 119.429  0.00  0.00    +0.292 HD
ENDBRANCH  15  18
BRANCH  16  20
ATOM     20  O   LIG A   1      -3.856   5.794 121.487  0.00  0.00    -0.503 OA
ATOM     21  H   LIG A   1      -3.755   5.886 122.455  0.00  0.00    +0.292 HD
ENDBRANCH  16  20
ENDBRANCH  10  12
BRANCH   4  22
ATOM     22  O   LIG A   1      -7.887  -0.392 127.346  0.00  0.00    -0.506 OA
ATOM     23  H   LIG A   1      -7.113  -0.981 127.502  0.00  0.00    +0.292 HD
ENDBRANCH   4  22
BRANCH   6  24
ATOM     24  O   LIG A   1      -9.603  -2.746 123.593  0.00  0.00    -0.506 OA
ATOM     25  H   LIG A   1     -10.381  -2.482 123.072  0.00  0.00    +0.292 HD
ENDBRANCH   6  24
BRANCH  11  26
ATOM     26  O   LIG A   1      -6.001   3.876 125.214  0.00  0.00    -0.453 OA
BRANCH  26  27
ATOM     27  C   LIG A   1      -5.367   3.640 126.497  0.00  0.00    +0.340 C 
ATOM     28  C   LIG A   1      -3.989   2.937 126.312  0.00  0.00    +0.214 C 
ATOM     29  C   LIG A   1      -2.979   3.324 127.420  0.00  0.00    +0.180 C 
ATOM     30  C   LIG A   1      -3.692   3.564 128.754  0.00  0.00    +0.177 C 
ATOM     31  C   LIG A   1      -4.871   4.558 128.643  0.00  0.00    +0.179 C 
ATOM     32  O   LIG A   1      -5.288   4.825 127.294  0.00  0.00    -0.331 OA
BRANCH  28  33
ATOM     33  O   LIG A   1      -4.152   1.502 126.285  0.00  0.00    -0.383 OA
ATOM     34  H   LIG A   1      -3.293   1.104 126.519  0.00  0.00    +0.210 HD
ENDBRANCH  28  33
BRANCH  29  35
ATOM     35  O   LIG A   1      -2.183   4.469 127.113  0.00  0.00    -0.386 OA
ATOM     36  H   LIG A   1      -2.524   4.830 126.270  0.00  0.00    +0.210 HD
ENDBRANCH  29  35
BRANCH  30  37
ATOM     37  O   LIG A   1      -4.208   2.299 129.204  0.00  0.00    -0.387 OA
ATOM     38  H   LIG A   1      -4.542   2.447 130.111  0.00  0.00    +0.210 HD
ENDBRANCH  30  37
BRANCH  31  39
ATOM     39  C   LIG A   1      -4.517   5.916 129.271  0.00  0.00    +0.190 C 
BRANCH  39  40
ATOM     40  O   LIG A   1      -4.000   6.809 128.280  0.00  0.00    -0.392 OA
ATOM     41  H   LIG A   1      -3.182   6.405 127.937  0.00  0.00    +0.209 HD
ENDBRANCH  39  40
ENDBRANCH  31  39
ENDBRANCH  26  27
ENDBRANCH  11  26
TORSDOF 12
ENDMDL
MODEL 3
REMARK VINA RESULT:      -7.8      7.048      9.565
REMARK  Name = NuBBE_123
REMARK  12 active torsions:
REMARK  status: ('A' for Active; 'I' for Inactive)
REMARK    1  A    between atoms: C_4  and  O_5
REMARK    2  A    between atoms: C_7  and  O_8
REMARK    3  A    between atoms: C_12  and  C_13
REMARK    4  A    between atoms: C_16  and  O_17
REMARK    5  A    between atoms: C_18  and  O_19
REMARK    6  A    between atoms: C_21  and  O_22
REMARK    7  A    between atoms: O_22  and  C_23
REMARK    8  A    between atoms: C_25  and  O_27
REMARK    9  A    between atoms: C_28  and  O_30
REMARK   10  A    between atoms: C_31  and  O_33
REMARK   11  A    between atoms: C_34  and  C_36
REMARK   12  A    between atoms: C_36  and  O_37
REMARK                            x       y       z     vdW  Elec       q    Type
REMARK                         _______ _______ _______ _____ _____    ______ ____
ROOT
ATOM      1  O   LIG A   1      -9.945   6.167 133.264  0.00  0.00    -0.283 OA
ATOM      2  C   LIG A   1      -9.360   6.273 132.203  0.00  0.00    +0.238 A 
ATOM      3  C   LIG A   1     -10.099   6.799 131.071  0.00  0.00    +0.109 A 
ATOM      4  C   LIG A   1     -11.487   6.690 130.989  0.00  0.00    +0.135 A 
ATOM      5  C   LIG A   1     -12.161   7.294 129.936  0.00  0.00    +0.091 A 
ATOM      6  C   LIG A   1     -11.431   8.032 129.006  0.00  0.00    +0.124 A 
ATOM      7  C   LIG A   1     -10.040   8.126 129.080  0.00  0.00    +0.092 A 
ATOM      8  C   LIG A   1      -9.369   7.473 130.108  0.00  0.00    +0.146 A 
ATOM      9  O   LIG A   1      -7.999   7.517 130.146  0.00  0.00    -0.451 OA
ATOM     10  C   LIG A   1      -7.325   6.594 130.961  0.00  0.00    +0.181 A 
ATOM     11  C   LIG A   1      -7.928   5.928 131.975  0.00  0.00    +0.214 A 
ENDROOT
BRANCH  10  12
ATOM     12  C   LIG A   1      -5.887   6.467 130.586  0.00  0.00    +0.025 A 
ATOM     13  C   LIG A   1      -5.009   7.554 130.793  0.00  0.00    +0.015 A 
ATOM     14  C   LIG A   1      -3.663   7.499 130.404  0.00  0.00    +0.050 A 
ATOM     15  C   LIG A   1      -3.180   6.343 129.812  0.00  0.00    +0.158 A 
ATOM     16  C   LIG A   1      -4.023   5.256 129.620  0.00  0.00    +0.159 A 
ATOM     17  C   LIG A   1      -5.366   5.316 129.976  0.00  0.00    +0.060 A 
BRANCH  15  18
ATOM     18  O   LIG A   1      -1.886   6.230 129.388  0.00  0.00    -0.503 OA
ATOM     19  H   LIG A   1      -1.609   7.093 129.035  0.00  0.00    +0.292 HD
ENDBRANCH  15  18
BRANCH  16  20
ATOM     20  O   LIG A   1      -3.536   4.105 129.068  0.00  0.00    -0.503 OA
ATOM     21  H   LIG A   1      -2.565   4.190 129.140  0.00  0.00    +0.292 HD
ENDBRANCH  16  20
ENDBRANCH  10  12
BRANCH   4  22
ATOM     22  O   LIG A   1     -12.239   6.001 131.902  0.00  0.00    -0.506 OA
ATOM     23  H   LIG A   1     -12.529   5.154 131.493  0.00  0.00    +0.292 HD
ENDBRANCH   4  22
BRANCH   6  24
ATOM     24  O   LIG A   1     -12.059   8.686 127.987  0.00  0.00    -0.506 OA
ATOM     25  H   LIG A   1     -12.222   8.053 127.266  0.00  0.00    +0.292 HD
ENDBRANCH   6  24
BRANCH  11  26
ATOM     26  O   LIG A   1      -7.284   5.028 132.812  0.00  0.00    -0.453 OA
BRANCH  26  27
ATOM     27  C   LIG A   1      -6.611   5.583 133.971  0.00  0.00    +0.340 C 
ATOM     28  C   LIG A   1      -7.135   4.926 135.283  0.00  0.00    +0.214 C 
ATOM     29  C   LIG A   1      -6.047   4.860 136.382  0.00  0.00    +0.180 C 
ATOM     30  C   LIG A   1      -5.106   6.065 136.297  0.00  0.00    +0.177 C 
ATOM     31  C   LIG A   1      -4.517   6.278 134.883  0.00  0.00    +0.179 C 
ATOM     32  O   LIG A   1      -5.186   5.534 133.852  0.00  0.00    -0.331 OA
BRANCH  28  33
ATOM     33  O   LIG A   1      -8.287   5.641 135.783  0.00  0.00    -0.383 OA
ATOM     34  H   LIG A   1      -7.964   6.455 136.211  0.00  0.00    +0.210 HD
ENDBRANCH  28  33
BRANCH  29  35
ATOM     35  O   LIG A   1      -5.265   3.665 136.362  0.00  0.00    -0.386 OA
ATOM     36  H   LIG A   1      -4.364   3.914 136.652  0.00  0.00    +0.210 HD
ENDBRANCH  29  35
BRANCH  30  37
ATOM     37  O   LIG A   1      -5.865   7.234 136.652  0.00  0.00    -0.387 OA
ATOM     38  H   LIG A   1      -6.270   7.560 135.824  0.00  0.00    +0.210 HD
ENDBRANCH  30  37
BRANCH  31  39
ATOM     39  C   LIG A   1      -3.037   5.873 134.828  0.00  0.00    +0.190 C 
BRANCH  39  40
ATOM     40  O   LIG A   1      -2.906   4.452 134.723  0.00  0.00    -0.392 OA
ATOM     41  H   LIG A   1      -2.915   4.239 133.771  0.00  0.00    +0.209 HD
ENDBRANCH  39  40
ENDBRANCH  31  39
ENDBRANCH  26  27
ENDBRANCH  11  26
TORSDOF 12
ENDMDL
MODEL 4
REMARK VINA RESULT:      -7.7      5.972      8.999
REMARK  Name = NuBBE_123
REMARK  12 active torsions:
REMARK  status: ('A' for Active; 'I' for Inactive)
REMARK    1  A    between atoms: C_4  and  O_5
REMARK    2  A    between atoms: C_7  and  O_8
REMARK    3  A    between atoms: C_12  and  C_13
REMARK    4  A    between atoms: C_16  and  O_17
REMARK    5  A    between atoms: C_18  and  O_19
REMARK    6  A    between atoms: C_21  and  O_22
REMARK    7  A    between atoms: O_22  and  C_23
REMARK    8  A    between atoms: C_25  and  O_27
REMARK    9  A    between atoms: C_28  and  O_30
REMARK   10  A    between atoms: C_31  and  O_33
REMARK   11  A    between atoms: C_34  and  C_36
REMARK   12  A    between atoms: C_36  and  O_37
REMARK                            x       y       z     vdW  Elec       q    Type
REMARK                         _______ _______ _______ _____ _____    ______ ____
ROOT
ATOM      1  O   LIG A   1      -9.737   5.913 133.202  0.00  0.00    -0.283 OA
ATOM      2  C   LIG A   1      -9.174   6.120 132.145  0.00  0.00    +0.238 A 
ATOM      3  C   LIG A   1      -9.938   6.738 131.079  0.00  0.00    +0.109 A 
ATOM      4  C   LIG A   1     -11.327   6.626 131.014  0.00  0.00    +0.135 A 
ATOM      5  C   LIG A   1     -12.026   7.316 130.033  0.00  0.00    +0.091 A 
ATOM      6  C   LIG A   1     -11.320   8.141 129.159  0.00  0.00    +0.124 A 
ATOM      7  C   LIG A   1      -9.928   8.241 129.215  0.00  0.00    +0.092 A 
ATOM      8  C   LIG A   1      -9.232   7.503 130.167  0.00  0.00    +0.146 A 
ATOM      9  O   LIG A   1      -7.862   7.556 130.183  0.00  0.00    -0.451 OA
ATOM     10  C   LIG A   1      -7.166   6.569 130.898  0.00  0.00    +0.181 A 
ATOM     11  C   LIG A   1      -7.743   5.809 131.859  0.00  0.00    +0.214 A 
ENDROOT
BRANCH  10  12
ATOM     12  C   LIG A   1      -5.735   6.489 130.487  0.00  0.00    +0.025 A 
ATOM     13  C   LIG A   1      -4.854   7.549 130.798  0.00  0.00    +0.015 A 
ATOM     14  C   LIG A   1      -3.515   7.542 130.383  0.00  0.00    +0.050 A 
ATOM     15  C   LIG A   1      -3.042   6.462 129.656  0.00  0.00    +0.158 A 
ATOM     16  C   LIG A   1      -3.887   5.400 129.358  0.00  0.00    +0.159 A 
ATOM     17  C   LIG A   1      -5.223   5.416 129.742  0.00  0.00    +0.060 A 
BRANCH  15  18
ATOM     18  O   LIG A   1      -1.755   6.400 129.199  0.00  0.00    -0.503 OA
ATOM     19  H   LIG A   1      -1.575   5.483 128.933  0.00  0.00    +0.292 HD
ENDBRANCH  15  18
BRANCH  16  20
ATOM     20  O   LIG A   1      -3.409   4.320 128.672  0.00  0.00    -0.503 OA
ATOM     21  H   LIG A   1      -3.938   3.566 129.000  0.00  0.00    +0.292 HD
ENDBRANCH  16  20
ENDBRANCH  10  12
BRANCH   4  22
ATOM     22  O   LIG A   1     -12.056   5.851 131.875  0.00  0.00    -0.506 OA
ATOM     23  H   LIG A   1     -12.173   6.346 132.718  0.00  0.00    +0.292 HD
ENDBRANCH   4  22
BRANCH   6  24
ATOM     24  O   LIG A   1     -11.972   8.879 128.216  0.00  0.00    -0.506 OA
ATOM     25  H   LIG A   1     -11.443   9.672 128.022  0.00  0.00    +0.292 HD
ENDBRANCH   6  24
BRANCH  11  26
ATOM     26  O   LIG A   1      -7.077   4.844 132.600  0.00  0.00    -0.453 OA
BRANCH  26  27
ATOM     27  C   LIG A   1      -7.228   3.468 132.165  0.00  0.00    +0.340 C 
ATOM     28  C   LIG A   1      -8.078   2.655 133.186  0.00  0.00    +0.214 C 
ATOM     29  C   LIG A   1      -8.892   1.527 132.507  0.00  0.00    +0.180 C 
ATOM     30  C   LIG A   1      -8.134   0.948 131.309  0.00  0.00    +0.177 C 
ATOM     31  C   LIG A   1      -7.657   2.027 130.311  0.00  0.00    +0.179 C 
ATOM     32  O   LIG A   1      -7.717   3.368 130.825  0.00  0.00    -0.331 OA
BRANCH  28  33
ATOM     33  O   LIG A   1      -7.235   2.092 134.215  0.00  0.00    -0.383 OA
ATOM     34  H   LIG A   1      -7.654   2.283 135.075  0.00  0.00    +0.210 HD
ENDBRANCH  28  33
BRANCH  29  35
ATOM     35  O   LIG A   1     -10.196   1.922 132.076  0.00  0.00    -0.386 OA
ATOM     36  H   LIG A   1     -10.087   2.762 131.585  0.00  0.00    +0.210 HD
ENDBRANCH  29  35
BRANCH  30  37
ATOM     37  O   LIG A   1      -6.977   0.260 131.819  0.00  0.00    -0.387 OA
ATOM     38  H   LIG A   1      -6.581   0.851 132.490  0.00  0.00    +0.210 HD
ENDBRANCH  30  37
BRANCH  31  39
ATOM     39  C   LIG A   1      -8.498   2.010 129.026  0.00  0.00    +0.190 C 
BRANCH  39  40
ATOM     40  O   LIG A   1      -9.648   2.850 129.165  0.00  0.00    -0.392 OA
ATOM     41  H   LIG A   1      -9.582   3.274 130.041  0.00  0.00    +0.209 HD
ENDBRANCH  39  40
ENDBRANCH  31  39
ENDBRANCH  26  27
ENDBRANCH  11  26
TORSDOF 12
ENDMDL
MODEL 5
REMARK VINA RESULT:      -7.6      3.899      8.732
REMARK  Name = NuBBE_123
REMARK  12 active torsions:
REMARK  status: ('A' for Active; 'I' for Inactive)
REMARK    1  A    between atoms: C_4  and  O_5
REMARK    2  A    between atoms: C_7  and  O_8
REMARK    3  A    between atoms: C_12  and  C_13
REMARK    4  A    between atoms: C_16  and  O_17
REMARK    5  A    between atoms: C_18  and  O_19
REMARK    6  A    between atoms: C_21  and  O_22
REMARK    7  A    between atoms: O_22  and  C_23
REMARK    8  A    between atoms: C_25  and  O_27
REMARK    9  A    between atoms: C_28  and  O_30
REMARK   10  A    between atoms: C_31  and  O_33
REMARK   11  A    between atoms: C_34  and  C_36
REMARK   12  A    between atoms: C_36  and  O_37
REMARK                            x       y       z     vdW  Elec       q    Type
REMARK                         _______ _______ _______ _____ _____    ______ ____
ROOT
ATOM      1  O   LIG A   1      -9.687   6.455 127.100  0.00  0.00    -0.283 OA
ATOM      2  C   LIG A   1      -9.612   6.037 128.239  0.00  0.00    +0.238 A 
ATOM      3  C   LIG A   1     -10.539   6.569 129.219  0.00  0.00    +0.109 A 
ATOM      4  C   LIG A   1     -11.112   7.832 129.074  0.00  0.00    +0.135 A 
ATOM      5  C   LIG A   1     -12.069   8.259 129.986  0.00  0.00    +0.091 A 
ATOM      6  C   LIG A   1     -12.463   7.392 131.003  0.00  0.00    +0.124 A 
ATOM      7  C   LIG A   1     -11.877   6.134 131.156  0.00  0.00    +0.092 A 
ATOM      8  C   LIG A   1     -10.881   5.736 130.271  0.00  0.00    +0.146 A 
ATOM      9  O   LIG A   1     -10.265   4.526 130.457  0.00  0.00    -0.451 OA
ATOM     10  C   LIG A   1      -9.054   4.285 129.789  0.00  0.00    +0.181 A 
ATOM     11  C   LIG A   1      -8.653   4.997 128.709  0.00  0.00    +0.214 A 
ENDROOT
BRANCH  10  12
ATOM     12  C   LIG A   1      -8.298   3.153 130.399  0.00  0.00    +0.025 A 
ATOM     13  C   LIG A   1      -7.227   3.416 131.282  0.00  0.00    +0.015 A 
ATOM     14  C   LIG A   1      -6.454   2.385 131.833  0.00  0.00    +0.050 A 
ATOM     15  C   LIG A   1      -6.756   1.072 131.511  0.00  0.00    +0.158 A 
ATOM     16  C   LIG A   1      -7.818   0.792 130.660  0.00  0.00    +0.159 A 
ATOM     17  C   LIG A   1      -8.569   1.811 130.087  0.00  0.00    +0.060 A 
BRANCH  15  18
ATOM     18  O   LIG A   1      -6.029   0.020 131.993  0.00  0.00    -0.503 OA
ATOM     19  H   LIG A   1      -6.027  -0.678 131.316  0.00  0.00    +0.292 HD
ENDBRANCH  15  18
BRANCH  16  20
ATOM     20  O   LIG A   1      -8.136  -0.506 130.372  0.00  0.00    -0.503 OA
ATOM     21  H   LIG A   1      -7.536  -1.036 130.933  0.00  0.00    +0.292 HD
ENDBRANCH  16  20
ENDBRANCH  10  12
BRANCH   4  22
ATOM     22  O   LIG A   1     -10.773   8.697 128.069  0.00  0.00    -0.506 OA
ATOM     23  H   LIG A   1     -10.037   8.299 127.550  0.00  0.00    +0.292 HD
ENDBRANCH   4  22
BRANCH   6  24
ATOM     24  O   LIG A   1     -13.438   7.750 131.887  0.00  0.00    -0.506 OA
ATOM     25  H   LIG A   1     -14.121   8.251 131.408  0.00  0.00    +0.292 HD
ENDBRANCH   6  24
BRANCH  11  26
ATOM     26  O   LIG A   1      -7.475   4.767 128.013  0.00  0.00    -0.453 OA
BRANCH  26  27
ATOM     27  C   LIG A   1      -7.494   3.700 127.031  0.00  0.00    +0.340 C 
ATOM     28  C   LIG A   1      -7.493   4.280 125.585  0.00  0.00    +0.214 C 
ATOM     29  C   LIG A   1      -6.777   3.347 124.579  0.00  0.00    +0.180 C 
ATOM     30  C   LIG A   1      -6.976   1.876 124.955  0.00  0.00    +0.177 C 
ATOM     31  C   LIG A   1      -6.608   1.569 126.425  0.00  0.00    +0.179 C 
ATOM     32  O   LIG A   1      -6.460   2.737 127.248  0.00  0.00    -0.331 OA
BRANCH  28  33
ATOM     33  O   LIG A   1      -8.844   4.529 125.137  0.00  0.00    -0.383 OA
ATOM     34  H   LIG A   1      -8.824   4.590 124.164  0.00  0.00    +0.210 HD
ENDBRANCH  28  33
BRANCH  29  35
ATOM     35  O   LIG A   1      -5.377   3.599 124.440  0.00  0.00    -0.386 OA
ATOM     36  H   LIG A   1      -4.967   3.386 125.303  0.00  0.00    +0.210 HD
ENDBRANCH  29  35
BRANCH  30  37
ATOM     37  O   LIG A   1      -8.367   1.563 124.763  0.00  0.00    -0.387 OA
ATOM     38  H   LIG A   1      -8.464   1.312 123.823  0.00  0.00    +0.210 HD
ENDBRANCH  30  37
BRANCH  31  39
ATOM     39  C   LIG A   1      -5.285   0.794 126.519  0.00  0.00    +0.190 C 
BRANCH  39  40
ATOM     40  O   LIG A   1      -4.170   1.681 126.385  0.00  0.00    -0.392 OA
ATOM     41  H   LIG A   1      -3.649   1.603 127.206  0.00  0.00    +0.209 HD
ENDBRANCH  39  40
ENDBRANCH  31  39
ENDBRANCH  26  27
ENDBRANCH  11  26
TORSDOF 12
ENDMDL
MODEL 6
REMARK VINA RESULT:      -7.5      3.938      8.951
REMARK  Name = NuBBE_123
REMARK  12 active torsions:
REMARK  status: ('A' for Active; 'I' for Inactive)
REMARK    1  A    between atoms: C_4  and  O_5
REMARK    2  A    between atoms: C_7  and  O_8
REMARK    3  A    between atoms: C_12  and  C_13
REMARK    4  A    between atoms: C_16  and  O_17
REMARK    5  A    between atoms: C_18  and  O_19
REMARK    6  A    between atoms: C_21  and  O_22
REMARK    7  A    between atoms: O_22  and  C_23
REMARK    8  A    between atoms: C_25  and  O_27
REMARK    9  A    between atoms: C_28  and  O_30
REMARK   10  A    between atoms: C_31  and  O_33
REMARK   11  A    between atoms: C_34  and  C_36
REMARK   12  A    between atoms: C_36  and  O_37
REMARK                            x       y       z     vdW  Elec       q    Type
REMARK                         _______ _______ _______ _____ _____    ______ ____
ROOT
ATOM      1  O   LIG A   1      -8.904   2.824 128.045  0.00  0.00    -0.283 OA
ATOM      2  C   LIG A   1      -8.484   2.184 128.990  0.00  0.00    +0.238 A 
ATOM      3  C   LIG A   1      -8.730   2.701 130.322  0.00  0.00    +0.109 A 
ATOM      4  C   LIG A   1      -8.932   4.061 130.554  0.00  0.00    +0.135 A 
ATOM      5  C   LIG A   1      -9.262   4.498 131.830  0.00  0.00    +0.091 A 
ATOM      6  C   LIG A   1      -9.425   3.554 132.843  0.00  0.00    +0.124 A 
ATOM      7  C   LIG A   1      -9.208   2.194 132.613  0.00  0.00    +0.092 A 
ATOM      8  C   LIG A   1      -8.824   1.772 131.344  0.00  0.00    +0.146 A 
ATOM      9  O   LIG A   1      -8.554   0.444 131.135  0.00  0.00    -0.451 OA
ATOM     10  C   LIG A   1      -7.850   0.083 129.975  0.00  0.00    +0.181 A 
ATOM     11  C   LIG A   1      -7.751   0.889 128.891  0.00  0.00    +0.214 A 
ENDROOT
BRANCH  10  12
ATOM     12  C   LIG A   1      -7.262  -1.283 130.085  0.00  0.00    +0.025 A 
ATOM     13  C   LIG A   1      -7.934  -2.386 129.513  0.00  0.00    +0.015 A 
ATOM     14  C   LIG A   1      -7.447  -3.695 129.640  0.00  0.00    +0.050 A 
ATOM     15  C   LIG A   1      -6.269  -3.909 130.335  0.00  0.00    +0.158 A 
ATOM     16  C   LIG A   1      -5.582  -2.835 130.887  0.00  0.00    +0.159 A 
ATOM     17  C   LIG A   1      -6.075  -1.539 130.790  0.00  0.00    +0.060 A 
BRANCH  15  18
ATOM     18  O   LIG A   1      -5.750  -5.160 130.518  0.00  0.00    -0.503 OA
ATOM     19  H   LIG A   1      -6.490  -5.789 130.555  0.00  0.00    +0.292 HD
ENDBRANCH  15  18
BRANCH  16  20
ATOM     20  O   LIG A   1      -4.401  -3.045 131.543  0.00  0.00    -0.503 OA
ATOM     21  H   LIG A   1      -4.625  -2.949 132.490  0.00  0.00    +0.292 HD
ENDBRANCH  16  20
ENDBRANCH  10  12
BRANCH   4  22
ATOM     22  O   LIG A   1      -8.812   5.012 129.577  0.00  0.00    -0.506 OA
ATOM     23  H   LIG A   1      -9.584   4.935 128.970  0.00  0.00    +0.292 HD
ENDBRANCH   4  22
BRANCH   6  24
ATOM     24  O   LIG A   1      -9.802   3.934 134.097  0.00  0.00    -0.506 OA
ATOM     25  H   LIG A   1     -10.446   3.289 134.436  0.00  0.00    +0.292 HD
ENDBRANCH   6  24
BRANCH  11  26
ATOM     26  O   LIG A   1      -7.084   0.551 127.723  0.00  0.00    -0.453 OA
BRANCH  26  27
ATOM     27  C   LIG A   1      -7.905   0.291 126.556  0.00  0.00    +0.340 C 
ATOM     28  C   LIG A   1      -7.374   1.078 125.320  0.00  0.00    +0.214 C 
ATOM     29  C   LIG A   1      -7.646   0.335 123.989  0.00  0.00    +0.180 C 
ATOM     30  C   LIG A   1      -8.960  -0.450 124.056  0.00  0.00    +0.177 C 
ATOM     31  C   LIG A   1      -9.053  -1.377 125.290  0.00  0.00    +0.179 C 
ATOM     32  O   LIG A   1      -8.067  -1.107 126.300  0.00  0.00    -0.331 OA
BRANCH  28  33
ATOM     33  O   LIG A   1      -7.962   2.396 125.267  0.00  0.00    -0.383 OA
ATOM     34  H   LIG A   1      -7.243   3.043 125.391  0.00  0.00    +0.210 HD
ENDBRANCH  28  33
BRANCH  29  35
ATOM     35  O   LIG A   1      -6.602  -0.554 123.590  0.00  0.00    -0.386 OA
ATOM     36  H   LIG A   1      -6.493  -0.443 122.623  0.00  0.00    +0.210 HD
ENDBRANCH  29  35
BRANCH  30  37
ATOM     37  O   LIG A   1     -10.033   0.506 124.127  0.00  0.00    -0.387 OA
ATOM     38  H   LIG A   1     -10.385   0.589 123.219  0.00  0.00    +0.210 HD
ENDBRANCH  30  37
BRANCH  31  39
ATOM     39  C   LIG A   1      -8.885  -2.851 124.895  0.00  0.00    +0.190 C 
BRANCH  39  40
ATOM     40  O   LIG A   1      -9.920  -3.251 123.991  0.00  0.00    -0.392 OA
ATOM     41  H   LIG A   1     -10.764  -3.156 124.470  0.00  0.00    +0.209 HD
ENDBRANCH  39  40
ENDBRANCH  31  39
ENDBRANCH  26  27
ENDBRANCH  11  26
TORSDOF 12
ENDMDL
MODEL 7
REMARK VINA RESULT:      -7.5      4.912      9.018
REMARK  Name = NuBBE_123
REMARK  12 active torsions:
REMARK  status: ('A' for Active; 'I' for Inactive)
REMARK    1  A    between atoms: C_4  and  O_5
REMARK    2  A    between atoms: C_7  and  O_8
REMARK    3  A    between atoms: C_12  and  C_13
REMARK    4  A    between atoms: C_16  and  O_17
REMARK    5  A    between atoms: C_18  and  O_19
REMARK    6  A    between atoms: C_21  and  O_22
REMARK    7  A    between atoms: O_22  and  C_23
REMARK    8  A    between atoms: C_25  and  O_27
REMARK    9  A    between atoms: C_28  and  O_30
REMARK   10  A    between atoms: C_31  and  O_33
REMARK   11  A    between atoms: C_34  and  C_36
REMARK   12  A    between atoms: C_36  and  O_37
REMARK                            x       y       z     vdW  Elec       q    Type
REMARK                         _______ _______ _______ _____ _____    ______ ____
ROOT
ATOM      1  O   LIG A   1      -6.931   3.176 131.161  0.00  0.00    -0.283 OA
ATOM      2  C   LIG A   1      -7.734   3.971 131.611  0.00  0.00    +0.238 A 
ATOM      3  C   LIG A   1      -7.602   4.354 133.003  0.00  0.00    +0.109 A 
ATOM      4  C   LIG A   1      -6.987   3.520 133.937  0.00  0.00    +0.135 A 
ATOM      5  C   LIG A   1      -6.795   3.970 135.236  0.00  0.00    +0.091 A 
ATOM      6  C   LIG A   1      -7.186   5.267 135.564  0.00  0.00    +0.124 A 
ATOM      7  C   LIG A   1      -7.816   6.095 134.632  0.00  0.00    +0.092 A 
ATOM      8  C   LIG A   1      -8.053   5.616 133.348  0.00  0.00    +0.146 A 
ATOM      9  O   LIG A   1      -8.723   6.409 132.452  0.00  0.00    -0.451 OA
ATOM     10  C   LIG A   1      -9.254   5.809 131.300  0.00  0.00    +0.181 A 
ATOM     11  C   LIG A   1      -8.838   4.606 130.836  0.00  0.00    +0.214 A 
ENDROOT
BRANCH  10  12
ATOM     12  C   LIG A   1     -10.294   6.663 130.657  0.00  0.00    +0.025 A 
ATOM     13  C   LIG A   1     -11.605   6.691 131.183  0.00  0.00    +0.015 A 
ATOM     14  C   LIG A   1     -12.628   7.435 130.579  0.00  0.00    +0.050 A 
ATOM     15  C   LIG A   1     -12.341   8.170 129.440  0.00  0.00    +0.158 A 
ATOM     16  C   LIG A   1     -11.053   8.172 128.919  0.00  0.00    +0.159 A 
ATOM     17  C   LIG A   1     -10.043   7.412 129.497  0.00  0.00    +0.060 A 
BRANCH  15  18
ATOM     18  O   LIG A   1     -13.295   8.899 128.786  0.00  0.00    -0.503 OA
ATOM     19  H   LIG A   1     -14.014   8.294 128.535  0.00  0.00    +0.292 HD
ENDBRANCH  15  18
BRANCH  16  20
ATOM     20  O   LIG A   1     -10.765   8.925 127.816  0.00  0.00    -0.503 OA
ATOM     21  H   LIG A   1     -10.188   9.640 128.150  0.00  0.00    +0.292 HD
ENDBRANCH  16  20
ENDBRANCH  10  12
BRANCH   4  22
ATOM     22  O   LIG A   1      -6.562   2.253 133.642  0.00  0.00    -0.506 OA
ATOM     23  H   LIG A   1      -6.042   2.284 132.806  0.00  0.00    +0.292 HD
ENDBRANCH   4  22
BRANCH   6  24
ATOM     24  O   LIG A   1      -6.967   5.768 136.813  0.00  0.00    -0.506 OA
ATOM     25  H   LIG A   1      -7.781   5.665 137.335  0.00  0.00    +0.292 HD
ENDBRANCH   6  24
BRANCH  11  26
ATOM     26  O   LIG A   1      -9.325   3.999 129.688  0.00  0.00    -0.453 OA
BRANCH  26  27
ATOM     27  C   LIG A   1      -8.347   3.615 128.688  0.00  0.00    +0.340 C 
ATOM     28  C   LIG A   1      -8.533   2.123 128.277  0.00  0.00    +0.214 C 
ATOM     29  C   LIG A   1      -8.124   1.864 126.806  0.00  0.00    +0.180 C 
ATOM     30  C   LIG A   1      -6.962   2.770 126.391  0.00  0.00    +0.177 C 
ATOM     31  C   LIG A   1      -7.220   4.265 126.687  0.00  0.00    +0.179 C 
ATOM     32  O   LIG A   1      -8.329   4.504 127.569  0.00  0.00    -0.331 OA
BRANCH  28  33
ATOM     33  O   LIG A   1      -7.776   1.257 129.150  0.00  0.00    -0.383 OA
ATOM     34  H   LIG A   1      -7.739   0.377 128.732  0.00  0.00    +0.210 HD
ENDBRANCH  28  33
BRANCH  29  35
ATOM     35  O   LIG A   1      -9.187   2.022 125.865  0.00  0.00    -0.386 OA
ATOM     36  H   LIG A   1      -9.897   1.406 126.137  0.00  0.00    +0.210 HD
ENDBRANCH  29  35
BRANCH  30  37
ATOM     37  O   LIG A   1      -5.802   2.356 127.135  0.00  0.00    -0.387 OA
ATOM     38  H   LIG A   1      -5.665   3.032 127.828  0.00  0.00    +0.210 HD
ENDBRANCH  30  37
BRANCH  31  39
ATOM     39  C   LIG A   1      -7.507   5.048 125.397  0.00  0.00    +0.190 C 
BRANCH  39  40
ATOM     40  O   LIG A   1      -8.109   4.199 124.415  0.00  0.00    -0.392 OA
ATOM     41  H   LIG A   1      -9.009   4.541 124.262  0.00  0.00    +0.209 HD
ENDBRANCH  39  40
ENDBRANCH  31  39
ENDBRANCH  26  27
ENDBRANCH  11  26
TORSDOF 12
ENDMDL
MODEL 8
REMARK VINA RESULT:      -7.5      6.532      9.466
REMARK  Name = NuBBE_123
REMARK  12 active torsions:
REMARK  status: ('A' for Active; 'I' for Inactive)
REMARK    1  A    between atoms: C_4  and  O_5
REMARK    2  A    between atoms: C_7  and  O_8
REMARK    3  A    between atoms: C_12  and  C_13
REMARK    4  A    between atoms: C_16  and  O_17
REMARK    5  A    between atoms: C_18  and  O_19
REMARK    6  A    between atoms: C_21  and  O_22
REMARK    7  A    between atoms: O_22  and  C_23
REMARK    8  A    between atoms: C_25  and  O_27
REMARK    9  A    between atoms: C_28  and  O_30
REMARK   10  A    between atoms: C_31  and  O_33
REMARK   11  A    between atoms: C_34  and  C_36
REMARK   12  A    between atoms: C_36  and  O_37
REMARK                            x       y       z     vdW  Elec       q    Type
REMARK                         _______ _______ _______ _____ _____    ______ ____
ROOT
ATOM      1  O   LIG A   1      -8.896   5.607 127.914  0.00  0.00    -0.283 OA
ATOM      2  C   LIG A   1      -9.010   5.429 129.111  0.00  0.00    +0.238 A 
ATOM      3  C   LIG A   1     -10.086   6.117 129.799  0.00  0.00    +0.109 A 
ATOM      4  C   LIG A   1     -10.627   7.305 129.308  0.00  0.00    +0.135 A 
ATOM      5  C   LIG A   1     -11.721   7.875 129.946  0.00  0.00    +0.091 A 
ATOM      6  C   LIG A   1     -12.279   7.218 131.041  0.00  0.00    +0.124 A 
ATOM      7  C   LIG A   1     -11.726   6.037 131.541  0.00  0.00    +0.092 A 
ATOM      8  C   LIG A   1     -10.597   5.502 130.929  0.00  0.00    +0.146 A 
ATOM      9  O   LIG A   1     -10.021   4.375 131.456  0.00  0.00    -0.451 OA
ATOM     10  C   LIG A   1      -8.717   4.046 131.057  0.00  0.00    +0.181 A 
ATOM     11  C   LIG A   1      -8.142   4.538 129.933  0.00  0.00    +0.214 A 
ENDROOT
BRANCH  10  12
ATOM     12  C   LIG A   1      -8.072   3.086 131.998  0.00  0.00    +0.025 A 
ATOM     13  C   LIG A   1      -7.532   3.552 133.218  0.00  0.00    +0.015 A 
ATOM     14  C   LIG A   1      -6.868   2.695 134.107  0.00  0.00    +0.050 A 
ATOM     15  C   LIG A   1      -6.749   1.353 133.785  0.00  0.00    +0.158 A 
ATOM     16  C   LIG A   1      -7.292   0.871 132.600  0.00  0.00    +0.159 A 
ATOM     17  C   LIG A   1      -7.925   1.722 131.701  0.00  0.00    +0.060 A 
BRANCH  15  18
ATOM     18  O   LIG A   1      -6.094   0.467 134.594  0.00  0.00    -0.503 OA
ATOM     19  H   LIG A   1      -6.605  -0.361 134.607  0.00  0.00    +0.292 HD
ENDBRANCH  15  18
BRANCH  16  20
ATOM     20  O   LIG A   1      -7.203  -0.459 132.301  0.00  0.00    -0.503 OA
ATOM     21  H   LIG A   1      -8.083  -0.821 132.528  0.00  0.00    +0.292 HD
ENDBRANCH  16  20
ENDBRANCH  10  12
BRANCH   4  22
ATOM     22  O   LIG A   1     -10.127   7.960 128.216  0.00  0.00    -0.506 OA
ATOM     23  H   LIG A   1     -10.754   7.842 127.466  0.00  0.00    +0.292 HD
ENDBRANCH   4  22
BRANCH   6  24
ATOM     24  O   LIG A   1     -13.386   7.714 131.663  0.00  0.00    -0.506 OA
ATOM     25  H   LIG A   1     -13.508   8.639 131.389  0.00  0.00    +0.292 HD
ENDBRANCH   6  24
BRANCH  11  26
ATOM     26  O   LIG A   1      -6.866   4.212 129.499  0.00  0.00    -0.453 OA
BRANCH  26  27
ATOM     27  C   LIG A   1      -5.759   4.815 130.216  0.00  0.00    +0.340 C 
ATOM     28  C   LIG A   1      -4.483   3.927 130.112  0.00  0.00    +0.214 C 
ATOM     29  C   LIG A   1      -3.181   4.763 130.145  0.00  0.00    +0.180 C 
ATOM     30  C   LIG A   1      -3.344   5.998 131.036  0.00  0.00    +0.177 C 
ATOM     31  C   LIG A   1      -4.589   6.843 130.684  0.00  0.00    +0.179 C 
ATOM     32  O   LIG A   1      -5.528   6.172 129.828  0.00  0.00    -0.331 OA
BRANCH  28  33
ATOM     33  O   LIG A   1      -4.458   2.948 131.174  0.00  0.00    -0.383 OA
ATOM     34  H   LIG A   1      -4.812   2.114 130.814  0.00  0.00    +0.210 HD
ENDBRANCH  28  33
BRANCH  29  35
ATOM     35  O   LIG A   1      -2.720   5.183 128.860  0.00  0.00    -0.386 OA
ATOM     36  H   LIG A   1      -3.027   4.510 128.219  0.00  0.00    +0.210 HD
ENDBRANCH  29  35
BRANCH  30  37
ATOM     37  O   LIG A   1      -3.477   5.539 132.394  0.00  0.00    -0.387 OA
ATOM     38  H   LIG A   1      -4.175   4.855 132.384  0.00  0.00    +0.210 HD
ENDBRANCH  30  37
BRANCH  31  39
ATOM     39  C   LIG A   1      -4.197   8.146 129.972  0.00  0.00    +0.190 C 
BRANCH  39  40
ATOM     40  O   LIG A   1      -3.983   7.913 128.577  0.00  0.00    -0.392 OA
ATOM     41  H   LIG A   1      -3.675   6.992 128.490  0.00  0.00    +0.209 HD
ENDBRANCH  39  40
ENDBRANCH  31  39
ENDBRANCH  26  27
ENDBRANCH  11  26
TORSDOF 12
ENDMDL
MODEL 9
REMARK VINA RESULT:      -7.4      3.785      7.381
REMARK  Name = NuBBE_123
REMARK  12 active torsions:
REMARK  status: ('A' for Active; 'I' for Inactive)
REMARK    1  A    between atoms: C_4  and  O_5
REMARK    2  A    between atoms: C_7  and  O_8
REMARK    3  A    between atoms: C_12  and  C_13
REMARK    4  A    between atoms: C_16  and  O_17
REMARK    5  A    between atoms: C_18  and  O_19
REMARK    6  A    between atoms: C_21  and  O_22
REMARK    7  A    between atoms: O_22  and  C_23
REMARK    8  A    between atoms: C_25  and  O_27
REMARK    9  A    between atoms: C_28  and  O_30
REMARK   10  A    between atoms: C_31  and  O_33
REMARK   11  A    between atoms: C_34  and  C_36
REMARK   12  A    between atoms: C_36  and  O_37
REMARK                            x       y       z     vdW  Elec       q    Type
REMARK                         _______ _______ _______ _____ _____    ______ ____
ROOT
ATOM      1  O   LIG A   1      -7.041   2.944 126.458  0.00  0.00    -0.283 OA
ATOM      2  C   LIG A   1      -7.442   1.797 126.506  0.00  0.00    +0.238 A 
ATOM      3  C   LIG A   1      -8.295   1.331 125.430  0.00  0.00    +0.109 A 
ATOM      4  C   LIG A   1      -9.071   2.212 124.677  0.00  0.00    +0.135 A 
ATOM      5  C   LIG A   1      -9.797   1.734 123.594  0.00  0.00    +0.091 A 
ATOM      6  C   LIG A   1      -9.697   0.384 123.261  0.00  0.00    +0.124 A 
ATOM      7  C   LIG A   1      -8.932  -0.500 124.025  0.00  0.00    +0.092 A 
ATOM      8  C   LIG A   1      -8.252  -0.022 125.141  0.00  0.00    +0.146 A 
ATOM      9  O   LIG A   1      -7.550  -0.901 125.923  0.00  0.00    -0.451 OA
ATOM     10  C   LIG A   1      -7.163  -0.487 127.207  0.00  0.00    +0.181 A 
ATOM     11  C   LIG A   1      -7.106   0.815 127.577  0.00  0.00    +0.214 A 
ENDROOT
BRANCH  10  12
ATOM     12  C   LIG A   1      -6.807  -1.642 128.081  0.00  0.00    +0.025 A 
ATOM     13  C   LIG A   1      -7.826  -2.367 128.738  0.00  0.00    +0.015 A 
ATOM     14  C   LIG A   1      -7.535  -3.423 129.613  0.00  0.00    +0.050 A 
ATOM     15  C   LIG A   1      -6.212  -3.772 129.828  0.00  0.00    +0.158 A 
ATOM     16  C   LIG A   1      -5.196  -3.086 129.175  0.00  0.00    +0.159 A 
ATOM     17  C   LIG A   1      -5.478  -2.018 128.330  0.00  0.00    +0.060 A 
BRANCH  15  18
ATOM     18  O   LIG A   1      -5.855  -4.776 130.685  0.00  0.00    -0.503 OA
ATOM     19  H   LIG A   1      -4.892  -4.897 130.620  0.00  0.00    +0.292 HD
ENDBRANCH  15  18
BRANCH  16  20
ATOM     20  O   LIG A   1      -3.894  -3.455 129.362  0.00  0.00    -0.503 OA
ATOM     21  H   LIG A   1      -3.906  -3.993 130.178  0.00  0.00    +0.292 HD
ENDBRANCH  16  20
ENDBRANCH  10  12
BRANCH   4  22
ATOM     22  O   LIG A   1      -9.167   3.549 124.956  0.00  0.00    -0.506 OA
ATOM     23  H   LIG A   1      -9.854   3.675 125.650  0.00  0.00    +0.292 HD
ENDBRANCH   4  22
BRANCH   6  24
ATOM     24  O   LIG A   1     -10.349  -0.116 122.174  0.00  0.00    -0.506 OA
ATOM     25  H   LIG A   1      -9.753  -0.730 121.710  0.00  0.00    +0.292 HD
ENDBRANCH   6  24
BRANCH  11  26
ATOM     26  O   LIG A   1      -6.704   1.257 128.828  0.00  0.00    -0.453 OA
BRANCH  26  27
ATOM     27  C   LIG A   1      -7.727   1.333 129.853  0.00  0.00    +0.340 C 
ATOM     28  C   LIG A   1      -7.124   1.040 131.260  0.00  0.00    +0.214 C 
ATOM     29  C   LIG A   1      -7.864   1.801 132.386  0.00  0.00    +0.180 C 
ATOM     30  C   LIG A   1      -9.353   1.950 132.063  0.00  0.00    +0.177 C 
ATOM     31  C   LIG A   1      -9.614   2.550 130.662  0.00  0.00    +0.179 C 
ATOM     32  O   LIG A   1      -8.461   2.559 129.805  0.00  0.00    -0.331 OA
BRANCH  28  33
ATOM     33  O   LIG A   1      -7.147  -0.378 131.537  0.00  0.00    -0.383 OA
ATOM     34  H   LIG A   1      -7.762  -0.522 132.280  0.00  0.00    +0.210 HD
ENDBRANCH  28  33
BRANCH  29  35
ATOM     35  O   LIG A   1      -7.326   3.093 132.672  0.00  0.00    -0.386 OA
ATOM     36  H   LIG A   1      -7.471   3.252 133.627  0.00  0.00    +0.210 HD
ENDBRANCH  29  35
BRANCH  30  37
ATOM     37  O   LIG A   1      -9.941   0.638 132.109  0.00  0.00    -0.387 OA
ATOM     38  H   LIG A   1      -9.200   0.003 132.045  0.00  0.00    +0.210 HD
ENDBRANCH  30  37
BRANCH  31  39
ATOM     39  C   LIG A   1     -10.102   4.004 130.759  0.00  0.00    +0.190 C 
BRANCH  39  40
ATOM     40  O   LIG A   1     -11.340   4.168 130.061  0.00  0.00    -0.392 OA
ATOM     41  H   LIG A   1     -12.012   3.666 130.559  0.00  0.00    +0.209 HD
ENDBRANCH  39  40
ENDBRANCH  31  39
ENDBRANCH  26  27
ENDBRANCH  11  26
TORSDOF 12
ENDMDL
