MODEL 1
REMARK VINA RESULT:      -4.8      0.000      0.000
REMARK  Name = NuBBE_2119
REMARK  10 active torsions:
REMARK  status: ('A' for Active; 'I' for Inactive)
REMARK    1  A    between atoms: C_1  and  C_2
REMARK    2  A    between atoms: C_2  and  C_3
REMARK    3  A    between atoms: C_3  and  C_4
REMARK    4  A    between atoms: C_4  and  C_5
REMARK    5  A    between atoms: C_5  and  C_6
REMARK    6  A    between atoms: C_6  and  C_7
REMARK    7  A    between atoms: C_7  and  C_8
REMARK    8  A    between atoms: C_8  and  C_9
REMARK    9  A    between atoms: C_9  and  C_10
REMARK   10  A    between atoms: C_10  and  C_11
REMARK                            x       y       z     vdW  Elec       q    Type
REMARK                         _______ _______ _______ _____ _____    ______ ____
ROOT
ATOM      1  C   LIG A   1     -13.041   7.319 130.699  0.00  0.00    -0.000 C 
ENDROOT
BRANCH   1   2
ATOM      2  C   LIG A   1     -12.587   8.679 130.119  0.00  0.00    -0.000 C 
BRANCH   2   3
ATOM      3  C   LIG A   1     -13.014   8.927 128.661  0.00  0.00    -0.000 C 
BRANCH   3   4
ATOM      4  C   LIG A   1     -13.381   7.635 127.904  0.00  0.00    -0.000 C 
BRANCH   4   6
ATOM      5  C   LIG A   1     -11.081   7.979 126.899  0.00  0.00    +0.004 C 
ATOM      6  C   LIG A   1     -12.279   7.047 127.015  0.00  0.00    -0.003 C 
ENDBRANCH   4   6
ENDBRANCH   3   4
ENDBRANCH   2   3
ENDBRANCH   1   2
BRANCH   1   7
ATOM      7  C   LIG A   1     -11.857   6.543 131.335  0.00  0.00    -0.000 C 
BRANCH   7   8
ATOM      8  C   LIG A   1     -11.244   5.450 130.428  0.00  0.00    -0.000 C 
BRANCH   8   9
ATOM      9  C   LIG A   1      -9.921   5.889 129.750  0.00  0.00    -0.000 C 
BRANCH   9  10
ATOM     10  C   LIG A   1      -9.260   7.088 130.461  0.00  0.00    -0.003 C 
ATOM     11  C   LIG A   1      -7.883   6.786 131.053  0.00  0.00    +0.004 C 
ENDBRANCH   9  10
ENDBRANCH   8   9
ENDBRANCH   7   8
ENDBRANCH   1   7
TORSDOF 8
ENDMDL
MODEL 2
REMARK VINA RESULT:      -4.8     10.786     12.429
REMARK  Name = NuBBE_2119
REMARK  10 active torsions:
REMARK  status: ('A' for Active; 'I' for Inactive)
REMARK    1  A    between atoms: C_1  and  C_2
REMARK    2  A    between atoms: C_2  and  C_3
REMARK    3  A    between atoms: C_3  and  C_4
REMARK    4  A    between atoms: C_4  and  C_5
REMARK    5  A    between atoms: C_5  and  C_6
REMARK    6  A    between atoms: C_6  and  C_7
REMARK    7  A    between atoms: C_7  and  C_8
REMARK    8  A    between atoms: C_8  and  C_9
REMARK    9  A    between atoms: C_9  and  C_10
REMARK   10  A    between atoms: C_10  and  C_11
REMARK                            x       y       z     vdW  Elec       q    Type
REMARK                         _______ _______ _______ _____ _____    ______ ____
ROOT
ATOM      1  C   LIG A   1      -8.273  -2.845 123.254  0.00  0.00    -0.000 C 
ENDROOT
BRANCH   1   2
ATOM      2  C   LIG A   1      -9.336  -3.432 124.213  0.00  0.00    -0.000 C 
BRANCH   2   3
ATOM      3  C   LIG A   1      -9.450  -2.703 125.564  0.00  0.00    -0.000 C 
BRANCH   3   4
ATOM      4  C   LIG A   1      -8.883  -3.515 126.747  0.00  0.00    -0.000 C 
BRANCH   4   6
ATOM      5  C   LIG A   1      -7.953  -3.410 129.101  0.00  0.00    +0.004 C 
ATOM      6  C   LIG A   1      -8.017  -2.732 127.739  0.00  0.00    -0.003 C 
ENDBRANCH   4   6
ENDBRANCH   3   4
ENDBRANCH   2   3
ENDBRANCH   1   2
BRANCH   1   7
ATOM      7  C   LIG A   1      -7.714  -1.495 123.775  0.00  0.00    -0.000 C 
BRANCH   7   8
ATOM      8  C   LIG A   1      -6.201  -1.508 124.100  0.00  0.00    -0.000 C 
BRANCH   8   9
ATOM      9  C   LIG A   1      -5.664  -2.919 124.450  0.00  0.00    -0.000 C 
BRANCH   9  10
ATOM     10  C   LIG A   1      -4.552  -3.386 123.488  0.00  0.00    -0.003 C 
ATOM     11  C   LIG A   1      -4.307  -4.895 123.495  0.00  0.00    +0.004 C 
ENDBRANCH   9  10
ENDBRANCH   8   9
ENDBRANCH   7   8
ENDBRANCH   1   7
TORSDOF 8
ENDMDL
MODEL 3
REMARK VINA RESULT:      -4.6     10.706     12.155
REMARK  Name = NuBBE_2119
REMARK  10 active torsions:
REMARK  status: ('A' for Active; 'I' for Inactive)
REMARK    1  A    between atoms: C_1  and  C_2
REMARK    2  A    between atoms: C_2  and  C_3
REMARK    3  A    between atoms: C_3  and  C_4
REMARK    4  A    between atoms: C_4  and  C_5
REMARK    5  A    between atoms: C_5  and  C_6
REMARK    6  A    between atoms: C_6  and  C_7
REMARK    7  A    between atoms: C_7  and  C_8
REMARK    8  A    between atoms: C_8  and  C_9
REMARK    9  A    between atoms: C_9  and  C_10
REMARK   10  A    between atoms: C_10  and  C_11
REMARK                            x       y       z     vdW  Elec       q    Type
REMARK                         _______ _______ _______ _____ _____    ______ ____
ROOT
ATOM      1  C   LIG A   1      -8.737  -2.410 122.993  0.00  0.00    -0.000 C 
ENDROOT
BRANCH   1   2
ATOM      2  C   LIG A   1      -8.022  -1.196 123.631  0.00  0.00    -0.000 C 
BRANCH   2   3
ATOM      3  C   LIG A   1      -6.512  -1.119 123.343  0.00  0.00    -0.000 C 
BRANCH   3   4
ATOM      4  C   LIG A   1      -5.693  -2.199 124.080  0.00  0.00    -0.000 C 
BRANCH   4   6
ATOM      5  C   LIG A   1      -4.604  -4.474 123.839  0.00  0.00    +0.004 C 
ATOM      6  C   LIG A   1      -4.849  -3.119 123.190  0.00  0.00    -0.003 C 
ENDBRANCH   4   6
ENDBRANCH   3   4
ENDBRANCH   2   3
ENDBRANCH   1   2
BRANCH   1   7
ATOM      7  C   LIG A   1      -9.155  -3.455 124.060  0.00  0.00    -0.000 C 
BRANCH   7   8
ATOM      8  C   LIG A   1      -9.395  -2.873 125.472  0.00  0.00    -0.000 C 
BRANCH   8   9
ATOM      9  C   LIG A   1      -8.672  -3.666 126.591  0.00  0.00    -0.000 C 
BRANCH   9  10
ATOM     10  C   LIG A   1      -8.061  -2.748 127.669  0.00  0.00    -0.003 C 
ATOM     11  C   LIG A   1      -8.280  -3.230 129.103  0.00  0.00    +0.004 C 
ENDBRANCH   9  10
ENDBRANCH   8   9
ENDBRANCH   7   8
ENDBRANCH   1   7
TORSDOF 8
ENDMDL
MODEL 4
REMARK VINA RESULT:      -4.6     10.864     12.283
REMARK  Name = NuBBE_2119
REMARK  10 active torsions:
REMARK  status: ('A' for Active; 'I' for Inactive)
REMARK    1  A    between atoms: C_1  and  C_2
REMARK    2  A    between atoms: C_2  and  C_3
REMARK    3  A    between atoms: C_3  and  C_4
REMARK    4  A    between atoms: C_4  and  C_5
REMARK    5  A    between atoms: C_5  and  C_6
REMARK    6  A    between atoms: C_6  and  C_7
REMARK    7  A    between atoms: C_7  and  C_8
REMARK    8  A    between atoms: C_8  and  C_9
REMARK    9  A    between atoms: C_9  and  C_10
REMARK   10  A    between atoms: C_10  and  C_11
REMARK                            x       y       z     vdW  Elec       q    Type
REMARK                         _______ _______ _______ _____ _____    ______ ____
ROOT
ATOM      1  C   LIG A   1      -8.637  -3.640 124.650  0.00  0.00    -0.000 C 
ENDROOT
BRANCH   1   2
ATOM      2  C   LIG A   1      -9.373  -3.095 125.896  0.00  0.00    -0.000 C 
BRANCH   2   3
ATOM      3  C   LIG A   1      -8.450  -2.710 127.066  0.00  0.00    -0.000 C 
BRANCH   3   4
ATOM      4  C   LIG A   1      -8.576  -3.652 128.281  0.00  0.00    -0.000 C 
BRANCH   4   6
ATOM      5  C   LIG A   1      -6.689  -3.837 129.961  0.00  0.00    +0.004 C 
ATOM      6  C   LIG A   1      -7.986  -3.129 129.595  0.00  0.00    -0.003 C 
ENDBRANCH   4   6
ENDBRANCH   3   4
ENDBRANCH   2   3
ENDBRANCH   1   2
BRANCH   1   7
ATOM      7  C   LIG A   1      -9.255  -3.095 123.335  0.00  0.00    -0.000 C 
BRANCH   7   8
ATOM      8  C   LIG A   1      -8.495  -1.900 122.714  0.00  0.00    -0.000 C 
BRANCH   8   9
ATOM      9  C   LIG A   1      -7.142  -1.608 123.411  0.00  0.00    -0.000 C 
BRANCH   9  10
ATOM     10  C   LIG A   1      -5.939  -2.190 122.640  0.00  0.00    -0.003 C 
ATOM     11  C   LIG A   1      -5.039  -3.100 123.476  0.00  0.00    +0.004 C 
ENDBRANCH   9  10
ENDBRANCH   8   9
ENDBRANCH   7   8
ENDBRANCH   1   7
TORSDOF 8
ENDMDL
MODEL 5
REMARK VINA RESULT:      -4.5      0.620      4.437
REMARK  Name = NuBBE_2119
REMARK  10 active torsions:
REMARK  status: ('A' for Active; 'I' for Inactive)
REMARK    1  A    between atoms: C_1  and  C_2
REMARK    2  A    between atoms: C_2  and  C_3
REMARK    3  A    between atoms: C_3  and  C_4
REMARK    4  A    between atoms: C_4  and  C_5
REMARK    5  A    between atoms: C_5  and  C_6
REMARK    6  A    between atoms: C_6  and  C_7
REMARK    7  A    between atoms: C_7  and  C_8
REMARK    8  A    between atoms: C_8  and  C_9
REMARK    9  A    between atoms: C_9  and  C_10
REMARK   10  A    between atoms: C_10  and  C_11
REMARK                            x       y       z     vdW  Elec       q    Type
REMARK                         _______ _______ _______ _____ _____    ______ ____
ROOT
ATOM      1  C   LIG A   1     -11.789   6.667 131.444  0.00  0.00    -0.000 C 
ENDROOT
BRANCH   1   2
ATOM      2  C   LIG A   1     -11.251   5.448 130.659  0.00  0.00    -0.000 C 
BRANCH   2   3
ATOM      3  C   LIG A   1      -9.875   5.667 130.003  0.00  0.00    -0.000 C 
BRANCH   3   4
ATOM      4  C   LIG A   1      -9.094   6.853 130.604  0.00  0.00    -0.000 C 
BRANCH   4   6
ATOM      5  C   LIG A   1      -6.616   6.966 131.123  0.00  0.00    +0.004 C 
ATOM      6  C   LIG A   1      -7.983   6.487 131.594  0.00  0.00    -0.003 C 
ENDBRANCH   4   6
ENDBRANCH   3   4
ENDBRANCH   2   3
ENDBRANCH   1   2
BRANCH   1   7
ATOM      7  C   LIG A   1     -12.999   7.323 130.728  0.00  0.00    -0.000 C 
BRANCH   7   8
ATOM      8  C   LIG A   1     -12.733   8.749 130.191  0.00  0.00    -0.000 C 
BRANCH   8   9
ATOM      9  C   LIG A   1     -13.002   8.889 128.671  0.00  0.00    -0.000 C 
BRANCH   9  10
ATOM     10  C   LIG A   1     -12.234   7.845 127.834  0.00  0.00    -0.003 C 
ATOM     11  C   LIG A   1     -10.785   8.226 127.530  0.00  0.00    +0.004 C 
ENDBRANCH   9  10
ENDBRANCH   8   9
ENDBRANCH   7   8
ENDBRANCH   1   7
TORSDOF 8
ENDMDL
MODEL 6
REMARK VINA RESULT:      -4.5     10.315     12.029
REMARK  Name = NuBBE_2119
REMARK  10 active torsions:
REMARK  status: ('A' for Active; 'I' for Inactive)
REMARK    1  A    between atoms: C_1  and  C_2
REMARK    2  A    between atoms: C_2  and  C_3
REMARK    3  A    between atoms: C_3  and  C_4
REMARK    4  A    between atoms: C_4  and  C_5
REMARK    5  A    between atoms: C_5  and  C_6
REMARK    6  A    between atoms: C_6  and  C_7
REMARK    7  A    between atoms: C_7  and  C_8
REMARK    8  A    between atoms: C_8  and  C_9
REMARK    9  A    between atoms: C_9  and  C_10
REMARK   10  A    between atoms: C_10  and  C_11
REMARK                            x       y       z     vdW  Elec       q    Type
REMARK                         _______ _______ _______ _____ _____    ______ ____
ROOT
ATOM      1  C   LIG A   1      -7.073  -2.338 126.809  0.00  0.00    -0.000 C 
ENDROOT
BRANCH   1   2
ATOM      2  C   LIG A   1      -6.952  -0.919 126.203  0.00  0.00    -0.000 C 
BRANCH   2   3
ATOM      3  C   LIG A   1      -6.222  -0.862 124.849  0.00  0.00    -0.000 C 
BRANCH   3   4
ATOM      4  C   LIG A   1      -5.157  -1.965 124.682  0.00  0.00    -0.000 C 
BRANCH   4   6
ATOM      5  C   LIG A   1      -4.590  -4.192 123.614  0.00  0.00    +0.004 C 
ATOM      6  C   LIG A   1      -5.314  -2.862 123.450  0.00  0.00    -0.003 C 
ENDBRANCH   4   6
ENDBRANCH   3   4
ENDBRANCH   2   3
ENDBRANCH   1   2
BRANCH   1   7
ATOM      7  C   LIG A   1      -8.554  -2.748 127.018  0.00  0.00    -0.000 C 
BRANCH   7   8
ATOM      8  C   LIG A   1      -9.399  -2.792 125.723  0.00  0.00    -0.000 C 
BRANCH   8   9
ATOM      9  C   LIG A   1      -8.760  -3.657 124.607  0.00  0.00    -0.000 C 
BRANCH   9  10
ATOM     10  C   LIG A   1      -9.084  -3.135 123.192  0.00  0.00    -0.003 C 
ATOM     11  C   LIG A   1      -9.240  -1.616 123.104  0.00  0.00    +0.004 C 
ENDBRANCH   9  10
ENDBRANCH   8   9
ENDBRANCH   7   8
ENDBRANCH   1   7
TORSDOF 8
ENDMDL
MODEL 7
REMARK VINA RESULT:      -4.4     10.778     12.287
REMARK  Name = NuBBE_2119
REMARK  10 active torsions:
REMARK  status: ('A' for Active; 'I' for Inactive)
REMARK    1  A    between atoms: C_1  and  C_2
REMARK    2  A    between atoms: C_2  and  C_3
REMARK    3  A    between atoms: C_3  and  C_4
REMARK    4  A    between atoms: C_4  and  C_5
REMARK    5  A    between atoms: C_5  and  C_6
REMARK    6  A    between atoms: C_6  and  C_7
REMARK    7  A    between atoms: C_7  and  C_8
REMARK    8  A    between atoms: C_8  and  C_9
REMARK    9  A    between atoms: C_9  and  C_10
REMARK   10  A    between atoms: C_10  and  C_11
REMARK                            x       y       z     vdW  Elec       q    Type
REMARK                         _______ _______ _______ _____ _____    ______ ____
ROOT
ATOM      1  C   LIG A   1      -9.023  -2.974 126.106  0.00  0.00    -0.000 C 
ENDROOT
BRANCH   1   2
ATOM      2  C   LIG A   1      -8.496  -3.774 124.891  0.00  0.00    -0.000 C 
BRANCH   2   3
ATOM      3  C   LIG A   1      -7.484  -3.014 124.016  0.00  0.00    -0.000 C 
BRANCH   3   4
ATOM      4  C   LIG A   1      -6.037  -3.094 124.544  0.00  0.00    -0.000 C 
BRANCH   4   6
ATOM      5  C   LIG A   1      -4.276  -4.588 123.500  0.00  0.00    +0.004 C 
ATOM      6  C   LIG A   1      -4.943  -3.219 123.477  0.00  0.00    -0.003 C 
ENDBRANCH   4   6
ENDBRANCH   3   4
ENDBRANCH   2   3
ENDBRANCH   1   2
BRANCH   1   7
ATOM      7  C   LIG A   1      -8.593  -3.622 127.449  0.00  0.00    -0.000 C 
BRANCH   7   8
ATOM      8  C   LIG A   1      -8.118  -2.617 128.525  0.00  0.00    -0.000 C 
BRANCH   8   9
ATOM      9  C   LIG A   1      -7.701  -3.298 129.854  0.00  0.00    -0.000 C 
BRANCH   9  10
ATOM     10  C   LIG A   1      -6.229  -3.759 129.848  0.00  0.00    -0.003 C 
ATOM     11  C   LIG A   1      -5.795  -4.493 131.117  0.00  0.00    +0.004 C 
ENDBRANCH   9  10
ENDBRANCH   8   9
ENDBRANCH   7   8
ENDBRANCH   1   7
TORSDOF 8
ENDMDL
MODEL 8
REMARK VINA RESULT:      -4.3      9.749     11.619
REMARK  Name = NuBBE_2119
REMARK  10 active torsions:
REMARK  status: ('A' for Active; 'I' for Inactive)
REMARK    1  A    between atoms: C_1  and  C_2
REMARK    2  A    between atoms: C_2  and  C_3
REMARK    3  A    between atoms: C_3  and  C_4
REMARK    4  A    between atoms: C_4  and  C_5
REMARK    5  A    between atoms: C_5  and  C_6
REMARK    6  A    between atoms: C_6  and  C_7
REMARK    7  A    between atoms: C_7  and  C_8
REMARK    8  A    between atoms: C_8  and  C_9
REMARK    9  A    between atoms: C_9  and  C_10
REMARK   10  A    between atoms: C_10  and  C_11
REMARK                            x       y       z     vdW  Elec       q    Type
REMARK                         _______ _______ _______ _____ _____    ______ ____
ROOT
ATOM      1  C   LIG A   1      -9.331  -3.074 123.293  0.00  0.00    -0.000 C 
ENDROOT
BRANCH   1   2
ATOM      2  C   LIG A   1      -8.769  -3.594 124.638  0.00  0.00    -0.000 C 
BRANCH   2   3
ATOM      3  C   LIG A   1      -9.421  -2.974 125.886  0.00  0.00    -0.000 C 
BRANCH   3   4
ATOM      4  C   LIG A   1      -8.449  -2.827 127.075  0.00  0.00    -0.000 C 
BRANCH   4   6
ATOM      5  C   LIG A   1      -8.024  -3.235 129.539  0.00  0.00    +0.004 C 
ATOM      6  C   LIG A   1      -8.734  -3.725 128.284  0.00  0.00    -0.003 C 
ENDBRANCH   4   6
ENDBRANCH   3   4
ENDBRANCH   2   3
ENDBRANCH   1   2
BRANCH   1   7
ATOM      7  C   LIG A   1      -8.357  -2.077 122.612  0.00  0.00    -0.000 C 
BRANCH   7   8
ATOM      8  C   LIG A   1      -6.916  -2.098 123.175  0.00  0.00    -0.000 C 
BRANCH   8   9
ATOM      9  C   LIG A   1      -6.498  -0.758 123.832  0.00  0.00    -0.000 C 
BRANCH   9  10
ATOM     10  C   LIG A   1      -7.681   0.218 123.996  0.00  0.00    -0.003 C 
ATOM     11  C   LIG A   1      -8.058   0.511 125.449  0.00  0.00    +0.004 C 
ENDBRANCH   9  10
ENDBRANCH   8   9
ENDBRANCH   7   8
ENDBRANCH   1   7
TORSDOF 8
ENDMDL
MODEL 9
REMARK VINA RESULT:      -4.2     10.856     12.202
REMARK  Name = NuBBE_2119
REMARK  10 active torsions:
REMARK  status: ('A' for Active; 'I' for Inactive)
REMARK    1  A    between atoms: C_1  and  C_2
REMARK    2  A    between atoms: C_2  and  C_3
REMARK    3  A    between atoms: C_3  and  C_4
REMARK    4  A    between atoms: C_4  and  C_5
REMARK    5  A    between atoms: C_5  and  C_6
REMARK    6  A    between atoms: C_6  and  C_7
REMARK    7  A    between atoms: C_7  and  C_8
REMARK    8  A    between atoms: C_8  and  C_9
REMARK    9  A    between atoms: C_9  and  C_10
REMARK   10  A    between atoms: C_10  and  C_11
REMARK                            x       y       z     vdW  Elec       q    Type
REMARK                         _______ _______ _______ _____ _____    ______ ____
ROOT
ATOM      1  C   LIG A   1      -5.128  -2.397 127.981  0.00  0.00    -0.000 C 
ENDROOT
BRANCH   1   2
ATOM      2  C   LIG A   1      -5.624  -1.750 126.666  0.00  0.00    -0.000 C 
BRANCH   2   3
ATOM      3  C   LIG A   1      -5.847  -2.742 125.510  0.00  0.00    -0.000 C 
BRANCH   3   4
ATOM      4  C   LIG A   1      -5.440  -2.176 124.133  0.00  0.00    -0.000 C 
BRANCH   4   6
ATOM      5  C   LIG A   1      -4.535  -4.524 123.835  0.00  0.00    +0.004 C 
ATOM      6  C   LIG A   1      -4.709  -3.149 123.203  0.00  0.00    -0.003 C 
ENDBRANCH   4   6
ENDBRANCH   3   4
ENDBRANCH   2   3
ENDBRANCH   1   2
BRANCH   1   7
ATOM      7  C   LIG A   1      -6.123  -2.163 129.147  0.00  0.00    -0.000 C 
BRANCH   7   8
ATOM      8  C   LIG A   1      -7.008  -3.384 129.493  0.00  0.00    -0.000 C 
BRANCH   8   9
ATOM      9  C   LIG A   1      -8.482  -3.216 129.043  0.00  0.00    -0.000 C 
BRANCH   9  10
ATOM     10  C   LIG A   1      -8.817  -4.046 127.786  0.00  0.00    -0.003 C 
ATOM     11  C   LIG A   1      -9.209  -3.210 126.568  0.00  0.00    +0.004 C 
ENDBRANCH   9  10
ENDBRANCH   8   9
ENDBRANCH   7   8
ENDBRANCH   1   7
TORSDOF 8
ENDMDL
