MODEL 1
REMARK VINA RESULT:      -8.0      0.000      0.000
REMARK  Name = NuBBE_549
REMARK  4 active torsions:
REMARK  status: ('A' for Active; 'I' for Inactive)
REMARK    1  A    between atoms: C_2  and  C_3
REMARK    2  A    between atoms: C_2  and  C_11
REMARK    3  A    between atoms: C_6  and  O_7
REMARK    4  A    between atoms: O_7  and  C_8
REMARK                            x       y       z     vdW  Elec       q    Type
REMARK                         _______ _______ _______ _____ _____    ______ ____
ROOT
ATOM      1  C   LIG A   1      -8.356   1.111 123.811  0.00  0.00    +0.173 C 
ATOM      2  C   LIG A   1      -7.601  -0.180 124.107  0.00  0.00    -0.009 A 
ATOM      3  C   LIG A   1      -6.767  -0.741 123.121  0.00  0.00    +0.056 A 
ATOM      4  C   LIG A   1      -6.076  -1.891 123.435  0.00  0.00    +0.167 A 
ATOM      5  C   LIG A   1      -6.190  -2.493 124.665  0.00  0.00    +0.167 A 
ATOM      6  O   LIG A   1      -5.420  -3.610 124.767  0.00  0.00    -0.453 OA
ATOM      7  C   LIG A   1      -4.782  -3.619 123.473  0.00  0.00    +0.466 C 
ATOM      8  O   LIG A   1      -5.224  -2.553 122.608  0.00  0.00    -0.453 OA
ATOM      9  C   LIG A   1      -7.004  -1.984 125.654  0.00  0.00    +0.058 A 
ATOM     10  C   LIG A   1      -7.722  -0.813 125.374  0.00  0.00    -0.015 A 
ATOM     11  C   LIG A   1      -8.600  -0.232 126.392  0.00  0.00    +0.023 C 
ATOM     12  C   LIG A   1      -9.346   0.831 126.079  0.00  0.00    +0.068 C 
ATOM     13  N   LIG A   1      -9.366   1.428 124.840  0.00  0.00    -0.336 N 
ATOM     14  H   LIG A   1      -9.630   2.410 124.879  0.00  0.00    +0.146 HD
ENDROOT
BRANCH   1  16
ATOM     15  O   LIG A   1      -6.676   2.725 124.565  0.00  0.00    -0.290 OA
ATOM     16  C   LIG A   1      -7.391   2.300 123.654  0.00  0.00    +0.188 C 
BRANCH  16  17
ATOM     17  C   LIG A   1      -7.306   2.981 122.330  0.00  0.00    +0.020 A 
ATOM     18  C   LIG A   1      -6.084   3.293 121.726  0.00  0.00    +0.015 A 
ATOM     19  C   LIG A   1      -6.067   3.908 120.472  0.00  0.00    +0.046 A 
ATOM     20  C   LIG A   1      -7.257   4.225 119.814  0.00  0.00    +0.120 A 
ATOM     21  C   LIG A   1      -8.476   3.899 120.406  0.00  0.00    +0.046 A 
ATOM     22  C   LIG A   1      -8.500   3.277 121.659  0.00  0.00    +0.015 A 
BRANCH  20  23
ATOM     23  O   LIG A   1      -7.106   4.792 118.580  0.00  0.00    -0.495 OA
ATOM     24  C   LIG A   1      -6.002   5.679 118.437  0.00  0.00    +0.277 C 
ENDBRANCH  20  23
ENDBRANCH  16  17
ENDBRANCH   1  16
TORSDOF 3
ENDMDL
MODEL 2
REMARK VINA RESULT:      -7.8      7.319      9.374
REMARK  Name = NuBBE_549
REMARK  4 active torsions:
REMARK  status: ('A' for Active; 'I' for Inactive)
REMARK    1  A    between atoms: C_2  and  C_3
REMARK    2  A    between atoms: C_2  and  C_11
REMARK    3  A    between atoms: C_6  and  O_7
REMARK    4  A    between atoms: O_7  and  C_8
REMARK                            x       y       z     vdW  Elec       q    Type
REMARK                         _______ _______ _______ _____ _____    ______ ____
ROOT
ATOM      1  C   LIG A   1     -10.022   4.716 132.145  0.00  0.00    +0.173 C 
ATOM      2  C   LIG A   1      -9.304   3.603 131.390  0.00  0.00    -0.009 A 
ATOM      3  C   LIG A   1      -9.584   3.394 130.026  0.00  0.00    +0.056 A 
ATOM      4  C   LIG A   1      -8.893   2.400 129.369  0.00  0.00    +0.167 A 
ATOM      5  C   LIG A   1      -7.961   1.619 130.008  0.00  0.00    +0.167 A 
ATOM      6  O   LIG A   1      -7.394   0.704 129.175  0.00  0.00    -0.453 OA
ATOM      7  C   LIG A   1      -8.050   1.025 127.932  0.00  0.00    +0.466 C 
ATOM      8  O   LIG A   1      -9.033   2.075 128.056  0.00  0.00    -0.453 OA
ATOM      9  C   LIG A   1      -7.666   1.782 131.345  0.00  0.00    +0.058 A 
ATOM     10  C   LIG A   1      -8.346   2.785 132.048  0.00  0.00    -0.015 A 
ATOM     11  C   LIG A   1      -8.067   2.999 133.470  0.00  0.00    +0.023 C 
ATOM     12  C   LIG A   1      -8.787   3.897 134.147  0.00  0.00    +0.068 C 
ATOM     13  N   LIG A   1      -9.807   4.644 133.604  0.00  0.00    -0.336 N 
ATOM     14  H   LIG A   1      -9.956   5.524 134.093  0.00  0.00    +0.146 HD
ENDROOT
BRANCH   1  16
ATOM     15  O   LIG A   1      -8.508   6.623 131.883  0.00  0.00    -0.290 OA
ATOM     16  C   LIG A   1      -9.599   6.105 131.631  0.00  0.00    +0.188 C 
BRANCH  16  17
ATOM     17  C   LIG A   1     -10.552   6.871 130.779  0.00  0.00    +0.020 A 
ATOM     18  C   LIG A   1     -11.907   6.996 131.098  0.00  0.00    +0.015 A 
ATOM     19  C   LIG A   1     -12.748   7.750 130.274  0.00  0.00    +0.046 A 
ATOM     20  C   LIG A   1     -12.253   8.374 129.127  0.00  0.00    +0.120 A 
ATOM     21  C   LIG A   1     -10.899   8.267 128.818  0.00  0.00    +0.046 A 
ATOM     22  C   LIG A   1     -10.051   7.519 129.641  0.00  0.00    +0.015 A 
BRANCH  20  23
ATOM     23  O   LIG A   1     -13.167   9.110 128.426  0.00  0.00    -0.495 OA
ATOM     24  C   LIG A   1     -13.558  10.342 129.023  0.00  0.00    +0.277 C 
ENDBRANCH  20  23
ENDBRANCH  16  17
ENDBRANCH   1  16
TORSDOF 3
ENDMDL
MODEL 3
REMARK VINA RESULT:      -7.7      2.371      2.946
REMARK  Name = NuBBE_549
REMARK  4 active torsions:
REMARK  status: ('A' for Active; 'I' for Inactive)
REMARK    1  A    between atoms: C_2  and  C_3
REMARK    2  A    between atoms: C_2  and  C_11
REMARK    3  A    between atoms: C_6  and  O_7
REMARK    4  A    between atoms: O_7  and  C_8
REMARK                            x       y       z     vdW  Elec       q    Type
REMARK                         _______ _______ _______ _____ _____    ______ ____
ROOT
ATOM      1  C   LIG A   1      -7.675   2.297 126.291  0.00  0.00    +0.173 C 
ATOM      2  C   LIG A   1      -7.561   0.962 125.564  0.00  0.00    -0.009 A 
ATOM      3  C   LIG A   1      -8.709   0.379 124.994  0.00  0.00    +0.056 A 
ATOM      4  C   LIG A   1      -8.562  -0.812 124.318  0.00  0.00    +0.167 A 
ATOM      5  C   LIG A   1      -7.343  -1.434 124.200  0.00  0.00    +0.167 A 
ATOM      6  O   LIG A   1      -7.420  -2.593 123.490  0.00  0.00    -0.453 OA
ATOM      7  C   LIG A   1      -8.820  -2.608 123.146  0.00  0.00    +0.466 C 
ATOM      8  O   LIG A   1      -9.560  -1.501 123.702  0.00  0.00    -0.453 OA
ATOM      9  C   LIG A   1      -6.197  -0.905 124.753  0.00  0.00    +0.058 A 
ATOM     10  C   LIG A   1      -6.304   0.308 125.447  0.00  0.00    -0.015 A 
ATOM     11  C   LIG A   1      -5.115   0.913 126.052  0.00  0.00    +0.023 C 
ATOM     12  C   LIG A   1      -5.249   2.020 126.786  0.00  0.00    +0.068 C 
ATOM     13  N   LIG A   1      -6.449   2.644 127.038  0.00  0.00    -0.336 N 
ATOM     14  H   LIG A   1      -6.344   3.638 127.231  0.00  0.00    +0.146 HD
ENDROOT
BRANCH   1  16
ATOM     15  O   LIG A   1      -8.925   4.255 125.517  0.00  0.00    -0.290 OA
ATOM     16  C   LIG A   1      -8.024   3.437 125.317  0.00  0.00    +0.188 C 
BRANCH  16  17
ATOM     17  C   LIG A   1      -7.232   3.570 124.061  0.00  0.00    +0.020 A 
ATOM     18  C   LIG A   1      -7.707   3.119 122.825  0.00  0.00    +0.015 A 
ATOM     19  C   LIG A   1      -6.930   3.295 121.676  0.00  0.00    +0.046 A 
ATOM     20  C   LIG A   1      -5.678   3.908 121.747  0.00  0.00    +0.120 A 
ATOM     21  C   LIG A   1      -5.210   4.375 122.974  0.00  0.00    +0.046 A 
ATOM     22  C   LIG A   1      -5.985   4.208 124.126  0.00  0.00    +0.015 A 
BRANCH  20  23
ATOM     23  O   LIG A   1      -5.033   4.053 120.551  0.00  0.00    -0.495 OA
ATOM     24  C   LIG A   1      -5.455   5.151 119.749  0.00  0.00    +0.277 C 
ENDBRANCH  20  23
ENDBRANCH  16  17
ENDBRANCH   1  16
TORSDOF 3
ENDMDL
MODEL 4
REMARK VINA RESULT:      -7.5      9.049     10.329
REMARK  Name = NuBBE_549
REMARK  4 active torsions:
REMARK  status: ('A' for Active; 'I' for Inactive)
REMARK    1  A    between atoms: C_2  and  C_3
REMARK    2  A    between atoms: C_2  and  C_11
REMARK    3  A    between atoms: C_6  and  O_7
REMARK    4  A    between atoms: O_7  and  C_8
REMARK                            x       y       z     vdW  Elec       q    Type
REMARK                         _______ _______ _______ _____ _____    ______ ____
ROOT
ATOM      1  C   LIG A   1      -9.028   5.240 133.401  0.00  0.00    +0.173 C 
ATOM      2  C   LIG A   1      -8.534   3.807 133.236  0.00  0.00    -0.009 A 
ATOM      3  C   LIG A   1      -9.171   2.952 132.316  0.00  0.00    +0.056 A 
ATOM      4  C   LIG A   1      -8.678   1.674 132.172  0.00  0.00    +0.167 A 
ATOM      5  C   LIG A   1      -7.604   1.224 132.900  0.00  0.00    +0.167 A 
ATOM      6  O   LIG A   1      -7.277  -0.063 132.600  0.00  0.00    -0.453 OA
ATOM      7  C   LIG A   1      -8.247  -0.356 131.573  0.00  0.00    +0.466 C 
ATOM      8  O   LIG A   1      -9.165   0.729 131.324  0.00  0.00    -0.453 OA
ATOM      9  C   LIG A   1      -6.960   2.023 133.820  0.00  0.00    +0.058 A 
ATOM     10  C   LIG A   1      -7.430   3.332 133.994  0.00  0.00    -0.015 A 
ATOM     11  C   LIG A   1      -6.778   4.221 134.959  0.00  0.00    +0.023 C 
ATOM     12  C   LIG A   1      -7.295   5.433 135.178  0.00  0.00    +0.068 C 
ATOM     13  N   LIG A   1      -8.427   5.918 134.566  0.00  0.00    -0.336 N 
ATOM     14  H   LIG A   1      -8.443   6.934 134.513  0.00  0.00    +0.146 HD
ENDROOT
BRANCH   1  16
ATOM     15  O   LIG A   1      -7.639   6.338 131.709  0.00  0.00    -0.290 OA
ATOM     16  C   LIG A   1      -8.767   6.071 132.131  0.00  0.00    +0.188 C 
BRANCH  16  17
ATOM     17  C   LIG A   1      -9.936   6.583 131.360  0.00  0.00    +0.020 A 
ATOM     18  C   LIG A   1      -9.797   7.205 130.116  0.00  0.00    +0.015 A 
ATOM     19  C   LIG A   1     -10.932   7.641 129.427  0.00  0.00    +0.046 A 
ATOM     20  C   LIG A   1     -12.207   7.472 129.970  0.00  0.00    +0.120 A 
ATOM     21  C   LIG A   1     -12.350   6.835 131.202  0.00  0.00    +0.046 A 
ATOM     22  C   LIG A   1     -11.218   6.391 131.893  0.00  0.00    +0.015 A 
BRANCH  20  23
ATOM     23  O   LIG A   1     -13.237   7.908 129.184  0.00  0.00    -0.495 OA
ATOM     24  C   LIG A   1     -13.089   9.216 128.641  0.00  0.00    +0.277 C 
ENDBRANCH  20  23
ENDBRANCH  16  17
ENDBRANCH   1  16
TORSDOF 3
ENDMDL
MODEL 5
REMARK VINA RESULT:      -7.5      2.798      3.974
REMARK  Name = NuBBE_549
REMARK  4 active torsions:
REMARK  status: ('A' for Active; 'I' for Inactive)
REMARK    1  A    between atoms: C_2  and  C_3
REMARK    2  A    between atoms: C_2  and  C_11
REMARK    3  A    between atoms: C_6  and  O_7
REMARK    4  A    between atoms: O_7  and  C_8
REMARK                            x       y       z     vdW  Elec       q    Type
REMARK                         _______ _______ _______ _____ _____    ______ ____
ROOT
ATOM      1  C   LIG A   1      -7.668  -0.911 124.394  0.00  0.00    +0.173 C 
ATOM      2  C   LIG A   1      -7.903  -1.695 125.680  0.00  0.00    -0.009 A 
ATOM      3  C   LIG A   1      -7.309  -1.259 126.880  0.00  0.00    +0.056 A 
ATOM      4  C   LIG A   1      -7.569  -1.974 128.028  0.00  0.00    +0.167 A 
ATOM      5  C   LIG A   1      -8.374  -3.088 128.023  0.00  0.00    +0.167 A 
ATOM      6  O   LIG A   1      -8.503  -3.639 129.261  0.00  0.00    -0.453 OA
ATOM      7  C   LIG A   1      -7.716  -2.722 130.049  0.00  0.00    +0.466 C 
ATOM      8  O   LIG A   1      -7.087  -1.685 129.267  0.00  0.00    -0.453 OA
ATOM      9  C   LIG A   1      -8.965  -3.555 126.869  0.00  0.00    +0.058 A 
ATOM     10  C   LIG A   1      -8.726  -2.853 125.680  0.00  0.00    -0.015 A 
ATOM     11  C   LIG A   1      -9.333  -3.309 124.427  0.00  0.00    +0.023 C 
ATOM     12  C   LIG A   1      -9.023  -2.683 123.288  0.00  0.00    +0.068 C 
ATOM     13  N   LIG A   1      -8.146  -1.628 123.196  0.00  0.00    -0.336 N 
ATOM     14  H   LIG A   1      -8.334  -1.027 122.396  0.00  0.00    +0.146 HD
ENDROOT
BRANCH   1  16
ATOM     15  O   LIG A   1      -9.488   0.670 124.825  0.00  0.00    -0.290 OA
ATOM     16  C   LIG A   1      -8.326   0.480 124.458  0.00  0.00    +0.188 C 
BRANCH  16  17
ATOM     17  C   LIG A   1      -7.521   1.670 124.060  0.00  0.00    +0.020 A 
ATOM     18  C   LIG A   1      -6.569   2.247 124.907  0.00  0.00    +0.015 A 
ATOM     19  C   LIG A   1      -5.826   3.346 124.469  0.00  0.00    +0.046 A 
ATOM     20  C   LIG A   1      -6.026   3.883 123.195  0.00  0.00    +0.120 A 
ATOM     21  C   LIG A   1      -6.960   3.298 122.343  0.00  0.00    +0.046 A 
ATOM     22  C   LIG A   1      -7.703   2.194 122.773  0.00  0.00    +0.015 A 
BRANCH  20  23
ATOM     23  O   LIG A   1      -5.213   4.933 122.873  0.00  0.00    -0.495 OA
ATOM     24  C   LIG A   1      -4.505   4.813 121.644  0.00  0.00    +0.277 C 
ENDBRANCH  20  23
ENDBRANCH  16  17
ENDBRANCH   1  16
TORSDOF 3
ENDMDL
MODEL 6
REMARK VINA RESULT:      -7.4      8.704      9.940
REMARK  Name = NuBBE_549
REMARK  4 active torsions:
REMARK  status: ('A' for Active; 'I' for Inactive)
REMARK    1  A    between atoms: C_2  and  C_3
REMARK    2  A    between atoms: C_2  and  C_11
REMARK    3  A    between atoms: C_6  and  O_7
REMARK    4  A    between atoms: O_7  and  C_8
REMARK                            x       y       z     vdW  Elec       q    Type
REMARK                         _______ _______ _______ _____ _____    ______ ____
ROOT
ATOM      1  C   LIG A   1      -9.454   4.407 131.413  0.00  0.00    +0.173 C 
ATOM      2  C   LIG A   1      -7.956   4.273 131.161  0.00  0.00    -0.009 A 
ATOM      3  C   LIG A   1      -7.355   5.016 130.127  0.00  0.00    +0.056 A 
ATOM      4  C   LIG A   1      -5.994   4.892 129.948  0.00  0.00    +0.167 A 
ATOM      5  C   LIG A   1      -5.230   4.068 130.739  0.00  0.00    +0.167 A 
ATOM      6  O   LIG A   1      -3.913   4.099 130.398  0.00  0.00    -0.453 OA
ATOM      7  C   LIG A   1      -3.933   5.065 129.327  0.00  0.00    +0.466 C 
ATOM      8  O   LIG A   1      -5.257   5.543 129.009  0.00  0.00    -0.453 OA
ATOM      9  C   LIG A   1      -5.781   3.314 131.753  0.00  0.00    +0.058 A 
ATOM     10  C   LIG A   1      -7.162   3.414 131.969  0.00  0.00    -0.015 A 
ATOM     11  C   LIG A   1      -7.794   2.635 133.035  0.00  0.00    +0.023 C 
ATOM     12  C   LIG A   1      -9.123   2.672 133.168  0.00  0.00    +0.068 C 
ATOM     13  N   LIG A   1      -9.966   3.390 132.352  0.00  0.00    -0.336 N 
ATOM     14  H   LIG A   1     -10.837   3.645 132.812  0.00  0.00    +0.146 HD
ENDROOT
BRANCH   1  16
ATOM     15  O   LIG A   1      -9.383   6.277 132.993  0.00  0.00    -0.290 OA
ATOM     16  C   LIG A   1      -9.810   5.812 131.933  0.00  0.00    +0.188 C 
BRANCH  16  17
ATOM     17  C   LIG A   1     -10.717   6.667 131.115  0.00  0.00    +0.020 A 
ATOM     18  C   LIG A   1     -12.044   6.912 131.479  0.00  0.00    +0.015 A 
ATOM     19  C   LIG A   1     -12.840   7.744 130.687  0.00  0.00    +0.046 A 
ATOM     20  C   LIG A   1     -12.328   8.329 129.527  0.00  0.00    +0.120 A 
ATOM     21  C   LIG A   1     -11.000   8.102 129.172  0.00  0.00    +0.046 A 
ATOM     22  C   LIG A   1     -10.197   7.275 129.964  0.00  0.00    +0.015 A 
BRANCH  20  23
ATOM     23  O   LIG A   1     -13.194   9.149 128.859  0.00  0.00    -0.495 OA
ATOM     24  C   LIG A   1     -13.412  10.428 129.446  0.00  0.00    +0.277 C 
ENDBRANCH  20  23
ENDBRANCH  16  17
ENDBRANCH   1  16
TORSDOF 3
ENDMDL
MODEL 7
REMARK VINA RESULT:      -7.2      3.363      8.330
REMARK  Name = NuBBE_549
REMARK  4 active torsions:
REMARK  status: ('A' for Active; 'I' for Inactive)
REMARK    1  A    between atoms: C_2  and  C_3
REMARK    2  A    between atoms: C_2  and  C_11
REMARK    3  A    between atoms: C_6  and  O_7
REMARK    4  A    between atoms: O_7  and  C_8
REMARK                            x       y       z     vdW  Elec       q    Type
REMARK                         _______ _______ _______ _____ _____    ______ ____
ROOT
ATOM      1  C   LIG A   1      -8.779  -2.029 125.659  0.00  0.00    +0.173 C 
ATOM      2  C   LIG A   1      -8.781  -0.599 125.130  0.00  0.00    -0.009 A 
ATOM      3  C   LIG A   1      -8.577   0.473 126.021  0.00  0.00    +0.056 A 
ATOM      4  C   LIG A   1      -8.555   1.749 125.502  0.00  0.00    +0.167 A 
ATOM      5  C   LIG A   1      -8.732   1.991 124.161  0.00  0.00    +0.167 A 
ATOM      6  O   LIG A   1      -8.668   3.318 123.862  0.00  0.00    -0.453 OA
ATOM      7  C   LIG A   1      -8.393   3.876 125.163  0.00  0.00    +0.466 C 
ATOM      8  O   LIG A   1      -8.360   2.890 126.216  0.00  0.00    -0.453 OA
ATOM      9  C   LIG A   1      -8.947   0.973 123.258  0.00  0.00    +0.058 A 
ATOM     10  C   LIG A   1      -8.974  -0.341 123.746  0.00  0.00    -0.015 A 
ATOM     11  C   LIG A   1      -9.197  -1.459 122.826  0.00  0.00    +0.023 C 
ATOM     12  C   LIG A   1      -9.311  -2.695 123.319  0.00  0.00    +0.068 C 
ATOM     13  N   LIG A   1      -9.249  -3.006 124.657  0.00  0.00    -0.336 N 
ATOM     14  H   LIG A   1      -8.940  -3.961 124.827  0.00  0.00    +0.146 HD
ENDROOT
BRANCH   1  16
ATOM     15  O   LIG A   1      -6.410  -2.600 125.418  0.00  0.00    -0.290 OA
ATOM     16  C   LIG A   1      -7.381  -2.438 126.161  0.00  0.00    +0.188 C 
BRANCH  16  17
ATOM     17  C   LIG A   1      -7.181  -2.648 127.623  0.00  0.00    +0.020 A 
ATOM     18  C   LIG A   1      -8.217  -3.051 128.470  0.00  0.00    +0.015 A 
ATOM     19  C   LIG A   1      -7.963  -3.257 129.829  0.00  0.00    +0.046 A 
ATOM     20  C   LIG A   1      -6.686  -3.058 130.356  0.00  0.00    +0.120 A 
ATOM     21  C   LIG A   1      -5.647  -2.674 129.510  0.00  0.00    +0.046 A 
ATOM     22  C   LIG A   1      -5.893  -2.472 128.148  0.00  0.00    +0.015 A 
BRANCH  20  23
ATOM     23  O   LIG A   1      -6.558  -3.327 131.689  0.00  0.00    -0.495 OA
ATOM     24  C   LIG A   1      -5.674  -4.391 132.024  0.00  0.00    +0.277 C 
ENDBRANCH  20  23
ENDBRANCH  16  17
ENDBRANCH   1  16
TORSDOF 3
ENDMDL
MODEL 8
REMARK VINA RESULT:      -7.2      9.847     10.815
REMARK  Name = NuBBE_549
REMARK  4 active torsions:
REMARK  status: ('A' for Active; 'I' for Inactive)
REMARK    1  A    between atoms: C_2  and  C_3
REMARK    2  A    between atoms: C_2  and  C_11
REMARK    3  A    between atoms: C_6  and  O_7
REMARK    4  A    between atoms: O_7  and  C_8
REMARK                            x       y       z     vdW  Elec       q    Type
REMARK                         _______ _______ _______ _____ _____    ______ ____
ROOT
ATOM      1  C   LIG A   1      -8.545   4.941 131.974  0.00  0.00    +0.173 C 
ATOM      2  C   LIG A   1      -7.144   5.539 131.939  0.00  0.00    -0.009 A 
ATOM      3  C   LIG A   1      -6.812   6.479 130.944  0.00  0.00    +0.056 A 
ATOM      4  C   LIG A   1      -5.546   7.021 130.962  0.00  0.00    +0.167 A 
ATOM      5  C   LIG A   1      -4.616   6.662 131.908  0.00  0.00    +0.167 A 
ATOM      6  O   LIG A   1      -3.435   7.319 131.748  0.00  0.00    -0.453 OA
ATOM      7  C   LIG A   1      -3.743   8.158 130.615  0.00  0.00    +0.466 C 
ATOM      8  O   LIG A   1      -5.068   7.945 130.086  0.00  0.00    -0.453 OA
ATOM      9  C   LIG A   1      -4.895   5.737 132.891  0.00  0.00    +0.058 A 
ATOM     10  C   LIG A   1      -6.174   5.164 132.908  0.00  0.00    -0.015 A 
ATOM     11  C   LIG A   1      -6.520   4.177 133.934  0.00  0.00    +0.023 C 
ATOM     12  C   LIG A   1      -7.710   3.575 133.882  0.00  0.00    +0.068 C 
ATOM     13  N   LIG A   1      -8.655   3.803 132.908  0.00  0.00    -0.336 N 
ATOM     14  H   LIG A   1      -9.603   3.610 133.224  0.00  0.00    +0.146 HD
ENDROOT
BRANCH   1  16
ATOM     15  O   LIG A   1      -9.665   6.553 133.439  0.00  0.00    -0.290 OA
ATOM     16  C   LIG A   1      -9.598   6.005 132.336  0.00  0.00    +0.188 C 
BRANCH  16  17
ATOM     17  C   LIG A   1     -10.594   6.405 131.300  0.00  0.00    +0.020 A 
ATOM     18  C   LIG A   1     -10.284   6.438 129.937  0.00  0.00    +0.015 A 
ATOM     19  C   LIG A   1     -11.266   6.795 129.010  0.00  0.00    +0.046 A 
ATOM     20  C   LIG A   1     -12.556   7.130 129.428  0.00  0.00    +0.120 A 
ATOM     21  C   LIG A   1     -12.872   7.080 130.784  0.00  0.00    +0.046 A 
ATOM     22  C   LIG A   1     -11.895   6.717 131.716  0.00  0.00    +0.015 A 
BRANCH  20  23
ATOM     23  O   LIG A   1     -13.434   7.427 128.423  0.00  0.00    -0.495 OA
ATOM     24  C   LIG A   1     -12.960   7.198 127.100  0.00  0.00    +0.277 C 
ENDBRANCH  20  23
ENDBRANCH  16  17
ENDBRANCH   1  16
TORSDOF 3
ENDMDL
MODEL 9
REMARK VINA RESULT:      -7.2      3.592      5.064
REMARK  Name = NuBBE_549
REMARK  4 active torsions:
REMARK  status: ('A' for Active; 'I' for Inactive)
REMARK    1  A    between atoms: C_2  and  C_3
REMARK    2  A    between atoms: C_2  and  C_11
REMARK    3  A    between atoms: C_6  and  O_7
REMARK    4  A    between atoms: O_7  and  C_8
REMARK                            x       y       z     vdW  Elec       q    Type
REMARK                         _______ _______ _______ _____ _____    ______ ____
ROOT
ATOM      1  C   LIG A   1      -6.794  -0.751 124.281  0.00  0.00    +0.173 C 
ATOM      2  C   LIG A   1      -7.436  -1.665 125.318  0.00  0.00    -0.009 A 
ATOM      3  C   LIG A   1      -7.043  -1.571 126.667  0.00  0.00    +0.056 A 
ATOM      4  C   LIG A   1      -7.667  -2.391 127.582  0.00  0.00    +0.167 A 
ATOM      5  C   LIG A   1      -8.641  -3.286 127.209  0.00  0.00    +0.167 A 
ATOM      6  O   LIG A   1      -9.128  -3.990 128.266  0.00  0.00    -0.453 OA
ATOM      7  C   LIG A   1      -8.375  -3.409 129.350  0.00  0.00    +0.466 C 
ATOM      8  O   LIG A   1      -7.417  -2.420 128.918  0.00  0.00    -0.453 OA
ATOM      9  C   LIG A   1      -9.046  -3.418 125.898  0.00  0.00    +0.058 A 
ATOM     10  C   LIG A   1      -8.436  -2.600 124.937  0.00  0.00    -0.015 A 
ATOM     11  C   LIG A   1      -8.834  -2.702 123.531  0.00  0.00    +0.023 C 
ATOM     12  C   LIG A   1      -8.180  -1.981 122.616  0.00  0.00    +0.068 C 
ATOM     13  N   LIG A   1      -7.127  -1.141 122.896  0.00  0.00    -0.336 N 
ATOM     14  H   LIG A   1      -7.028  -0.391 122.215  0.00  0.00    +0.146 HD
ENDROOT
BRANCH   1  16
ATOM     15  O   LIG A   1      -8.301   1.178 124.243  0.00  0.00    -0.290 OA
ATOM     16  C   LIG A   1      -7.188   0.720 124.509  0.00  0.00    +0.188 C 
BRANCH  16  17
ATOM     17  C   LIG A   1      -6.175   1.648 125.088  0.00  0.00    +0.020 A 
ATOM     18  C   LIG A   1      -5.248   1.238 126.051  0.00  0.00    +0.015 A 
ATOM     19  C   LIG A   1      -4.304   2.147 126.538  0.00  0.00    +0.046 A 
ATOM     20  C   LIG A   1      -4.280   3.466 126.081  0.00  0.00    +0.120 A 
ATOM     21  C   LIG A   1      -5.190   3.872 125.107  0.00  0.00    +0.046 A 
ATOM     22  C   LIG A   1      -6.133   2.965 124.611  0.00  0.00    +0.015 A 
BRANCH  20  23
ATOM     23  O   LIG A   1      -3.288   4.245 126.607  0.00  0.00    -0.495 OA
ATOM     24  C   LIG A   1      -2.106   3.558 127.004  0.00  0.00    +0.277 C 
ENDBRANCH  20  23
ENDBRANCH  16  17
ENDBRANCH   1  16
TORSDOF 3
ENDMDL
