MODEL 1
REMARK VINA RESULT:      -5.8      0.000      0.000
REMARK  Name = NuBBE_627
REMARK  8 active torsions:
REMARK  status: ('A' for Active; 'I' for Inactive)
REMARK    1  A    between atoms: C_2  and  O_3
REMARK    2  A    between atoms: C_2  and  C_7
REMARK    3  A    between atoms: O_3  and  C_4
REMARK    4  A    between atoms: C_4  and  C_5
REMARK    5  A    between atoms: C_4  and  C_6
REMARK    6  A    between atoms: C_9  and  O_10
REMARK    7  A    between atoms: C_11  and  O_12
REMARK    8  A    between atoms: C_13  and  O_14
REMARK                            x       y       z     vdW  Elec       q    Type
REMARK                         _______ _______ _______ _____ _____    ______ ____
ROOT
ATOM      1  C   LIG A   1      -6.235   3.609 122.078  0.00  0.00    +0.066 A 
ATOM      2  C   LIG A   1      -5.132   4.480 122.143  0.00  0.00    +0.064 A 
ATOM      3  C   LIG A   1      -4.819   5.268 121.040  0.00  0.00    +0.163 A 
ATOM      4  C   LIG A   1      -5.590   5.192 119.885  0.00  0.00    +0.201 A 
ATOM      5  C   LIG A   1      -6.674   4.327 119.820  0.00  0.00    +0.163 A 
ATOM      6  C   LIG A   1      -7.005   3.531 120.906  0.00  0.00    +0.064 A 
ENDROOT
BRANCH   1   8
ATOM      7  O   LIG A   1      -6.512   3.259 124.426  0.00  0.00    -0.245 OA
ATOM      8  C   LIG A   1      -6.578   2.820 123.291  0.00  0.00    +0.340 C 
BRANCH   8   9
ATOM      9  O   LIG A   1      -7.026   1.596 122.923  0.00  0.00    -0.458 OA
BRANCH   9  10
ATOM     10  C   LIG A   1      -8.149   1.071 123.651  0.00  0.00    +0.171 C 
ATOM     11  C   LIG A   1      -9.431   1.644 123.055  0.00  0.00    +0.051 C 
ATOM     12  C   LIG A   1      -8.108  -0.445 123.489  0.00  0.00    +0.051 C 
ENDBRANCH   9  10
ENDBRANCH   8   9
ENDBRANCH   1   8
BRANCH   3  13
ATOM     13  O   LIG A   1      -3.768   6.141 121.045  0.00  0.00    -0.503 OA
ATOM     14  H   LIG A   1      -3.459   6.256 120.128  0.00  0.00    +0.292 HD
ENDBRANCH   3  13
BRANCH   4  15
ATOM     15  O   LIG A   1      -5.298   5.970 118.799  0.00  0.00    -0.501 OA
ATOM     16  H   LIG A   1      -4.744   6.692 119.161  0.00  0.00    +0.292 HD
ENDBRANCH   4  15
BRANCH   5  17
ATOM     17  O   LIG A   1      -7.433   4.259 118.689  0.00  0.00    -0.503 OA
ATOM     18  H   LIG A   1      -8.335   4.049 119.005  0.00  0.00    +0.292 HD
ENDBRANCH   5  17
TORSDOF 6
ENDMDL
MODEL 2
REMARK VINA RESULT:      -5.7      9.383     11.475
REMARK  Name = NuBBE_627
REMARK  8 active torsions:
REMARK  status: ('A' for Active; 'I' for Inactive)
REMARK    1  A    between atoms: C_2  and  O_3
REMARK    2  A    between atoms: C_2  and  C_7
REMARK    3  A    between atoms: O_3  and  C_4
REMARK    4  A    between atoms: C_4  and  C_5
REMARK    5  A    between atoms: C_4  and  C_6
REMARK    6  A    between atoms: C_9  and  O_10
REMARK    7  A    between atoms: C_11  and  O_12
REMARK    8  A    between atoms: C_13  and  O_14
REMARK                            x       y       z     vdW  Elec       q    Type
REMARK                         _______ _______ _______ _____ _____    ______ ____
ROOT
ATOM      1  C   LIG A   1     -11.573   6.069 131.145  0.00  0.00    +0.066 A 
ATOM      2  C   LIG A   1     -10.818   6.284 132.313  0.00  0.00    +0.064 A 
ATOM      3  C   LIG A   1      -9.731   5.459 132.583  0.00  0.00    +0.163 A 
ATOM      4  C   LIG A   1      -9.398   4.432 131.707  0.00  0.00    +0.201 A 
ATOM      5  C   LIG A   1     -10.148   4.217 130.559  0.00  0.00    +0.163 A 
ATOM      6  C   LIG A   1     -11.236   5.025 130.269  0.00  0.00    +0.064 A 
ENDROOT
BRANCH   1   8
ATOM      7  O   LIG A   1     -13.463   7.423 131.703  0.00  0.00    -0.245 OA
ATOM      8  C   LIG A   1     -12.696   7.001 130.855  0.00  0.00    +0.340 C 
BRANCH   8   9
ATOM      9  O   LIG A   1     -12.675   7.340 129.544  0.00  0.00    -0.458 OA
BRANCH   9  10
ATOM     10  C   LIG A   1     -12.005   8.566 129.202  0.00  0.00    +0.171 C 
ATOM     11  C   LIG A   1     -11.193   8.342 127.930  0.00  0.00    +0.051 C 
ATOM     12  C   LIG A   1     -13.091   9.611 128.973  0.00  0.00    +0.051 C 
ENDBRANCH   9  10
ENDBRANCH   8   9
ENDBRANCH   1   8
BRANCH   3  13
ATOM     13  O   LIG A   1      -8.953   5.623 133.694  0.00  0.00    -0.503 OA
ATOM     14  H   LIG A   1      -8.716   4.743 134.037  0.00  0.00    +0.292 HD
ENDBRANCH   3  13
BRANCH   4  15
ATOM     15  O   LIG A   1      -8.324   3.623 131.958  0.00  0.00    -0.501 OA
ATOM     16  H   LIG A   1      -7.565   4.098 131.563  0.00  0.00    +0.292 HD
ENDBRANCH   4  15
BRANCH   5  17
ATOM     17  O   LIG A   1      -9.815   3.214 129.698  0.00  0.00    -0.503 OA
ATOM     18  H   LIG A   1     -10.528   2.551 129.798  0.00  0.00    +0.292 HD
ENDBRANCH   5  17
TORSDOF 6
ENDMDL
MODEL 3
REMARK VINA RESULT:      -5.7      9.737     11.342
REMARK  Name = NuBBE_627
REMARK  8 active torsions:
REMARK  status: ('A' for Active; 'I' for Inactive)
REMARK    1  A    between atoms: C_2  and  O_3
REMARK    2  A    between atoms: C_2  and  C_7
REMARK    3  A    between atoms: O_3  and  C_4
REMARK    4  A    between atoms: C_4  and  C_5
REMARK    5  A    between atoms: C_4  and  C_6
REMARK    6  A    between atoms: C_9  and  O_10
REMARK    7  A    between atoms: C_11  and  O_12
REMARK    8  A    between atoms: C_13  and  O_14
REMARK                            x       y       z     vdW  Elec       q    Type
REMARK                         _______ _______ _______ _____ _____    ______ ____
ROOT
ATOM      1  C   LIG A   1     -10.400   6.478 131.320  0.00  0.00    +0.066 A 
ATOM      2  C   LIG A   1     -10.227   5.823 132.553  0.00  0.00    +0.064 A 
ATOM      3  C   LIG A   1      -8.944   5.661 133.065  0.00  0.00    +0.163 A 
ATOM      4  C   LIG A   1      -7.845   6.141 132.360  0.00  0.00    +0.201 A 
ATOM      5  C   LIG A   1      -8.017   6.781 131.141  0.00  0.00    +0.163 A 
ATOM      6  C   LIG A   1      -9.286   6.953 130.610  0.00  0.00    +0.064 A 
ENDROOT
BRANCH   1   8
ATOM      7  O   LIG A   1     -12.741   6.906 131.553  0.00  0.00    -0.245 OA
ATOM      8  C   LIG A   1     -11.788   6.686 130.825  0.00  0.00    +0.340 C 
BRANCH   8   9
ATOM      9  O   LIG A   1     -11.794   6.657 129.471  0.00  0.00    -0.458 OA
BRANCH   9  10
ATOM     10  C   LIG A   1     -12.408   7.772 128.802  0.00  0.00    +0.171 C 
ATOM     11  C   LIG A   1     -11.414   8.351 127.801  0.00  0.00    +0.051 C 
ATOM     12  C   LIG A   1     -13.642   7.230 128.089  0.00  0.00    +0.051 C 
ENDBRANCH   9  10
ENDBRANCH   8   9
ENDBRANCH   1   8
BRANCH   3  13
ATOM     13  O   LIG A   1      -8.711   5.043 134.261  0.00  0.00    -0.503 OA
ATOM     14  H   LIG A   1      -8.963   4.106 134.178  0.00  0.00    +0.292 HD
ENDBRANCH   3  13
BRANCH   4  15
ATOM     15  O   LIG A   1      -6.580   5.996 132.860  0.00  0.00    -0.501 OA
ATOM     16  H   LIG A   1      -6.676   5.333 133.574  0.00  0.00    +0.292 HD
ENDBRANCH   4  15
BRANCH   5  17
ATOM     17  O   LIG A   1      -6.938   7.256 130.455  0.00  0.00    -0.503 OA
ATOM     18  H   LIG A   1      -7.319   7.764 129.711  0.00  0.00    +0.292 HD
ENDBRANCH   5  17
TORSDOF 6
ENDMDL
MODEL 4
REMARK VINA RESULT:      -5.7      9.674     11.296
REMARK  Name = NuBBE_627
REMARK  8 active torsions:
REMARK  status: ('A' for Active; 'I' for Inactive)
REMARK    1  A    between atoms: C_2  and  O_3
REMARK    2  A    between atoms: C_2  and  C_7
REMARK    3  A    between atoms: O_3  and  C_4
REMARK    4  A    between atoms: C_4  and  C_5
REMARK    5  A    between atoms: C_4  and  C_6
REMARK    6  A    between atoms: C_9  and  O_10
REMARK    7  A    between atoms: C_11  and  O_12
REMARK    8  A    between atoms: C_13  and  O_14
REMARK                            x       y       z     vdW  Elec       q    Type
REMARK                         _______ _______ _______ _____ _____    ______ ____
ROOT
ATOM      1  C   LIG A   1     -10.407   6.511 131.373  0.00  0.00    +0.066 A 
ATOM      2  C   LIG A   1      -9.307   6.983 130.634  0.00  0.00    +0.064 A 
ATOM      3  C   LIG A   1      -8.021   6.789 131.127  0.00  0.00    +0.163 A 
ATOM      4  C   LIG A   1      -7.828   6.136 132.340  0.00  0.00    +0.201 A 
ATOM      5  C   LIG A   1      -8.915   5.677 133.071  0.00  0.00    +0.163 A 
ATOM      6  C   LIG A   1     -10.206   5.860 132.601  0.00  0.00    +0.064 A 
ENDROOT
BRANCH   1   8
ATOM      7  O   LIG A   1     -12.766   6.890 131.462  0.00  0.00    -0.245 OA
ATOM      8  C   LIG A   1     -11.767   6.684 130.794  0.00  0.00    +0.340 C 
BRANCH   8   9
ATOM      9  O   LIG A   1     -11.692   6.643 129.443  0.00  0.00    -0.458 OA
BRANCH   9  10
ATOM     10  C   LIG A   1     -12.343   7.705 128.725  0.00  0.00    +0.171 C 
ATOM     11  C   LIG A   1     -11.346   8.321 127.749  0.00  0.00    +0.051 C 
ATOM     12  C   LIG A   1     -13.513   7.076 127.977  0.00  0.00    +0.051 C 
ENDBRANCH   9  10
ENDBRANCH   8   9
ENDBRANCH   1   8
BRANCH   3  13
ATOM     13  O   LIG A   1      -6.911   7.214 130.452  0.00  0.00    -0.503 OA
ATOM     14  H   LIG A   1      -6.144   7.147 131.048  0.00  0.00    +0.292 HD
ENDBRANCH   3  13
BRANCH   4  15
ATOM     15  O   LIG A   1      -6.567   5.930 132.828  0.00  0.00    -0.501 OA
ATOM     16  H   LIG A   1      -6.100   6.773 132.654  0.00  0.00    +0.292 HD
ENDBRANCH   4  15
BRANCH   5  17
ATOM     17  O   LIG A   1      -8.723   5.032 134.257  0.00  0.00    -0.503 OA
ATOM     18  H   LIG A   1      -9.600   4.661 134.485  0.00  0.00    +0.292 HD
ENDBRANCH   5  17
TORSDOF 6
ENDMDL
MODEL 5
REMARK VINA RESULT:      -5.6      9.802     11.302
REMARK  Name = NuBBE_627
REMARK  8 active torsions:
REMARK  status: ('A' for Active; 'I' for Inactive)
REMARK    1  A    between atoms: C_2  and  O_3
REMARK    2  A    between atoms: C_2  and  C_7
REMARK    3  A    between atoms: O_3  and  C_4
REMARK    4  A    between atoms: C_4  and  C_5
REMARK    5  A    between atoms: C_4  and  C_6
REMARK    6  A    between atoms: C_9  and  O_10
REMARK    7  A    between atoms: C_11  and  O_12
REMARK    8  A    between atoms: C_13  and  O_14
REMARK                            x       y       z     vdW  Elec       q    Type
REMARK                         _______ _______ _______ _____ _____    ______ ____
ROOT
ATOM      1  C   LIG A   1      -9.829   6.722 131.040  0.00  0.00    +0.066 A 
ATOM      2  C   LIG A   1      -9.644   7.434 129.841  0.00  0.00    +0.064 A 
ATOM      3  C   LIG A   1     -10.741   8.027 129.224  0.00  0.00    +0.163 A 
ATOM      4  C   LIG A   1     -12.007   7.914 129.789  0.00  0.00    +0.201 A 
ATOM      5  C   LIG A   1     -12.189   7.205 130.968  0.00  0.00    +0.163 A 
ATOM      6  C   LIG A   1     -11.111   6.604 131.601  0.00  0.00    +0.064 A 
ENDROOT
BRANCH   1   8
ATOM      7  O   LIG A   1      -7.622   5.808 131.110  0.00  0.00    -0.245 OA
ATOM      8  C   LIG A   1      -8.630   6.145 131.706  0.00  0.00    +0.340 C 
BRANCH   8   9
ATOM      9  O   LIG A   1      -8.822   6.127 133.046  0.00  0.00    -0.458 OA
BRANCH   9  10
ATOM     10  C   LIG A   1      -8.135   5.102 133.785  0.00  0.00    +0.171 C 
ATOM     11  C   LIG A   1      -7.772   5.650 135.161  0.00  0.00    +0.051 C 
ATOM     12  C   LIG A   1      -9.099   3.928 133.907  0.00  0.00    +0.051 C 
ENDBRANCH   9  10
ENDBRANCH   8   9
ENDBRANCH   1   8
BRANCH   3  13
ATOM     13  O   LIG A   1     -10.625   8.741 128.065  0.00  0.00    -0.503 OA
ATOM     14  H   LIG A   1      -9.825   9.295 128.123  0.00  0.00    +0.292 HD
ENDBRANCH   3  13
BRANCH   4  15
ATOM     15  O   LIG A   1     -13.090   8.503 129.196  0.00  0.00    -0.501 OA
ATOM     16  H   LIG A   1     -13.859   8.121 129.665  0.00  0.00    +0.292 HD
ENDBRANCH   4  15
BRANCH   5  17
ATOM     17  O   LIG A   1     -13.430   7.100 131.523  0.00  0.00    -0.503 OA
ATOM     18  H   LIG A   1     -13.284   7.212 132.484  0.00  0.00    +0.292 HD
ENDBRANCH   5  17
TORSDOF 6
ENDMDL
MODEL 6
REMARK VINA RESULT:      -5.6      0.531      2.203
REMARK  Name = NuBBE_627
REMARK  8 active torsions:
REMARK  status: ('A' for Active; 'I' for Inactive)
REMARK    1  A    between atoms: C_2  and  O_3
REMARK    2  A    between atoms: C_2  and  C_7
REMARK    3  A    between atoms: O_3  and  C_4
REMARK    4  A    between atoms: C_4  and  C_5
REMARK    5  A    between atoms: C_4  and  C_6
REMARK    6  A    between atoms: C_9  and  O_10
REMARK    7  A    between atoms: C_11  and  O_12
REMARK    8  A    between atoms: C_13  and  O_14
REMARK                            x       y       z     vdW  Elec       q    Type
REMARK                         _______ _______ _______ _____ _____    ______ ____
ROOT
ATOM      1  C   LIG A   1      -6.305   3.659 122.201  0.00  0.00    +0.066 A 
ATOM      2  C   LIG A   1      -7.062   3.528 121.022  0.00  0.00    +0.064 A 
ATOM      3  C   LIG A   1      -6.695   4.252 119.893  0.00  0.00    +0.163 A 
ATOM      4  C   LIG A   1      -5.591   5.098 119.933  0.00  0.00    +0.201 A 
ATOM      5  C   LIG A   1      -4.850   5.231 121.099  0.00  0.00    +0.163 A 
ATOM      6  C   LIG A   1      -5.197   4.520 122.237  0.00  0.00    +0.064 A 
ENDROOT
BRANCH   1   8
ATOM      7  O   LIG A   1      -6.008   2.725 124.382  0.00  0.00    -0.245 OA
ATOM      8  C   LIG A   1      -6.689   2.830 123.376  0.00  0.00    +0.340 C 
BRANCH   8   9
ATOM      9  O   LIG A   1      -7.913   2.290 123.168  0.00  0.00    -0.458 OA
BRANCH   9  10
ATOM     10  C   LIG A   1      -8.346   1.287 124.103  0.00  0.00    +0.171 C 
ATOM     11  C   LIG A   1      -9.857   1.401 124.279  0.00  0.00    +0.051 C 
ATOM     12  C   LIG A   1      -7.972  -0.063 123.502  0.00  0.00    +0.051 C 
ENDBRANCH   9  10
ENDBRANCH   8   9
ENDBRANCH   1   8
BRANCH   3  13
ATOM     13  O   LIG A   1      -7.382   4.161 118.715  0.00  0.00    -0.503 OA
ATOM     14  H   LIG A   1      -6.746   4.228 117.981  0.00  0.00    +0.292 HD
ENDBRANCH   3  13
BRANCH   4  15
ATOM     15  O   LIG A   1      -5.216   5.806 118.824  0.00  0.00    -0.501 OA
ATOM     16  H   LIG A   1      -5.589   5.298 118.075  0.00  0.00    +0.292 HD
ENDBRANCH   4  15
BRANCH   5  17
ATOM     17  O   LIG A   1      -3.765   6.055 121.133  0.00  0.00    -0.503 OA
ATOM     18  H   LIG A   1      -3.378   5.924 122.023  0.00  0.00    +0.292 HD
ENDBRANCH   5  17
TORSDOF 6
ENDMDL
MODEL 7
REMARK VINA RESULT:      -5.5      9.554     11.688
REMARK  Name = NuBBE_627
REMARK  8 active torsions:
REMARK  status: ('A' for Active; 'I' for Inactive)
REMARK    1  A    between atoms: C_2  and  O_3
REMARK    2  A    between atoms: C_2  and  C_7
REMARK    3  A    between atoms: O_3  and  C_4
REMARK    4  A    between atoms: C_4  and  C_5
REMARK    5  A    between atoms: C_4  and  C_6
REMARK    6  A    between atoms: C_9  and  O_10
REMARK    7  A    between atoms: C_11  and  O_12
REMARK    8  A    between atoms: C_13  and  O_14
REMARK                            x       y       z     vdW  Elec       q    Type
REMARK                         _______ _______ _______ _____ _____    ______ ____
ROOT
ATOM      1  C   LIG A   1     -11.474   6.140 131.181  0.00  0.00    +0.066 A 
ATOM      2  C   LIG A   1     -11.148   4.988 130.442  0.00  0.00    +0.064 A 
ATOM      3  C   LIG A   1     -10.069   4.206 130.841  0.00  0.00    +0.163 A 
ATOM      4  C   LIG A   1      -9.321   4.564 131.957  0.00  0.00    +0.201 A 
ATOM      5  C   LIG A   1      -9.639   5.705 132.680  0.00  0.00    +0.163 A 
ATOM      6  C   LIG A   1     -10.709   6.501 132.302  0.00  0.00    +0.064 A 
ENDROOT
BRANCH   1   8
ATOM      7  O   LIG A   1     -13.557   7.263 131.526  0.00  0.00    -0.245 OA
ATOM      8  C   LIG A   1     -12.667   6.927 130.764  0.00  0.00    +0.340 C 
BRANCH   8   9
ATOM      9  O   LIG A   1     -12.559   7.250 129.453  0.00  0.00    -0.458 OA
BRANCH   9  10
ATOM     10  C   LIG A   1     -11.985   8.532 129.148  0.00  0.00    +0.171 C 
ATOM     11  C   LIG A   1     -11.031   8.374 127.967  0.00  0.00    +0.051 C 
ATOM     12  C   LIG A   1     -13.142   9.457 128.787  0.00  0.00    +0.051 C 
ENDBRANCH   9  10
ENDBRANCH   8   9
ENDBRANCH   1   8
BRANCH   3  13
ATOM     13  O   LIG A   1      -9.709   3.070 130.173  0.00  0.00    -0.503 OA
ATOM     14  H   LIG A   1     -10.516   2.643 129.834  0.00  0.00    +0.292 HD
ENDBRANCH   3  13
BRANCH   4  15
ATOM     15  O   LIG A   1      -8.264   3.795 132.364  0.00  0.00    -0.501 OA
ATOM     16  H   LIG A   1      -8.211   3.084 131.693  0.00  0.00    +0.292 HD
ENDBRANCH   4  15
BRANCH   5  17
ATOM     17  O   LIG A   1      -8.908   6.050 133.778  0.00  0.00    -0.503 OA
ATOM     18  H   LIG A   1      -8.496   6.906 133.545  0.00  0.00    +0.292 HD
ENDBRANCH   5  17
TORSDOF 6
ENDMDL
MODEL 8
REMARK VINA RESULT:      -5.5      9.800     11.298
REMARK  Name = NuBBE_627
REMARK  8 active torsions:
REMARK  status: ('A' for Active; 'I' for Inactive)
REMARK    1  A    between atoms: C_2  and  O_3
REMARK    2  A    between atoms: C_2  and  C_7
REMARK    3  A    between atoms: O_3  and  C_4
REMARK    4  A    between atoms: C_4  and  C_5
REMARK    5  A    between atoms: C_4  and  C_6
REMARK    6  A    between atoms: C_9  and  O_10
REMARK    7  A    between atoms: C_11  and  O_12
REMARK    8  A    between atoms: C_13  and  O_14
REMARK                            x       y       z     vdW  Elec       q    Type
REMARK                         _______ _______ _______ _____ _____    ______ ____
ROOT
ATOM      1  C   LIG A   1      -9.811   6.840 130.983  0.00  0.00    +0.066 A 
ATOM      2  C   LIG A   1     -11.083   6.661 131.559  0.00  0.00    +0.064 A 
ATOM      3  C   LIG A   1     -12.201   7.181 130.915  0.00  0.00    +0.163 A 
ATOM      4  C   LIG A   1     -12.060   7.872 129.716  0.00  0.00    +0.201 A 
ATOM      5  C   LIG A   1     -10.804   8.053 129.153  0.00  0.00    +0.163 A 
ATOM      6  C   LIG A   1      -9.675   7.545 129.776  0.00  0.00    +0.064 A 
ENDROOT
BRANCH   1   8
ATOM      7  O   LIG A   1      -7.591   5.961 131.103  0.00  0.00    -0.245 OA
ATOM      8  C   LIG A   1      -8.640   6.226 131.665  0.00  0.00    +0.340 C 
BRANCH   8   9
ATOM      9  O   LIG A   1      -8.910   6.081 132.984  0.00  0.00    -0.458 OA
BRANCH   9  10
ATOM     10  C   LIG A   1      -8.183   5.058 133.686  0.00  0.00    +0.171 C 
ATOM     11  C   LIG A   1      -7.759   5.604 135.046  0.00  0.00    +0.051 C 
ATOM     12  C   LIG A   1      -9.134   3.878 133.850  0.00  0.00    +0.051 C 
ENDBRANCH   9  10
ENDBRANCH   8   9
ENDBRANCH   1   8
BRANCH   3  13
ATOM     13  O   LIG A   1     -13.463   7.032 131.418  0.00  0.00    -0.503 OA
ATOM     14  H   LIG A   1     -13.989   6.517 130.780  0.00  0.00    +0.292 HD
ENDBRANCH   3  13
BRANCH   4  15
ATOM     15  O   LIG A   1     -13.155   8.377 129.070  0.00  0.00    -0.501 OA
ATOM     16  H   LIG A   1     -13.432   7.659 128.465  0.00  0.00    +0.292 HD
ENDBRANCH   4  15
BRANCH   5  17
ATOM     17  O   LIG A   1     -10.669   8.724 127.974  0.00  0.00    -0.503 OA
ATOM     18  H   LIG A   1     -11.151   9.565 128.109  0.00  0.00    +0.292 HD
ENDBRANCH   5  17
TORSDOF 6
ENDMDL
MODEL 9
REMARK VINA RESULT:      -5.5      1.304      2.229
REMARK  Name = NuBBE_627
REMARK  8 active torsions:
REMARK  status: ('A' for Active; 'I' for Inactive)
REMARK    1  A    between atoms: C_2  and  O_3
REMARK    2  A    between atoms: C_2  and  C_7
REMARK    3  A    between atoms: O_3  and  C_4
REMARK    4  A    between atoms: C_4  and  C_5
REMARK    5  A    between atoms: C_4  and  C_6
REMARK    6  A    between atoms: C_9  and  O_10
REMARK    7  A    between atoms: C_11  and  O_12
REMARK    8  A    between atoms: C_13  and  O_14
REMARK                            x       y       z     vdW  Elec       q    Type
REMARK                         _______ _______ _______ _____ _____    ______ ____
ROOT
ATOM      1  C   LIG A   1      -6.397   3.537 121.894  0.00  0.00    +0.066 A 
ATOM      2  C   LIG A   1      -5.283   4.385 122.034  0.00  0.00    +0.064 A 
ATOM      3  C   LIG A   1      -4.922   5.215 120.978  0.00  0.00    +0.163 A 
ATOM      4  C   LIG A   1      -5.655   5.203 119.796  0.00  0.00    +0.201 A 
ATOM      5  C   LIG A   1      -6.749   4.360 119.658  0.00  0.00    +0.163 A 
ATOM      6  C   LIG A   1      -7.128   3.523 120.696  0.00  0.00    +0.064 A 
ENDROOT
BRANCH   1   8
ATOM      7  O   LIG A   1      -6.887   1.486 123.021  0.00  0.00    -0.245 OA
ATOM      8  C   LIG A   1      -6.792   2.701 123.060  0.00  0.00    +0.340 C 
BRANCH   8   9
ATOM      9  O   LIG A   1      -6.954   3.490 124.149  0.00  0.00    -0.458 OA
BRANCH   9  10
ATOM     10  C   LIG A   1      -6.518   2.953 125.409  0.00  0.00    +0.171 C 
ATOM     11  C   LIG A   1      -5.041   3.285 125.599  0.00  0.00    +0.051 C 
ATOM     12  C   LIG A   1      -7.365   3.620 126.487  0.00  0.00    +0.051 C 
ENDBRANCH   9  10
ENDBRANCH   8   9
ENDBRANCH   1   8
BRANCH   3  13
ATOM     13  O   LIG A   1      -3.858   6.070 121.056  0.00  0.00    -0.503 OA
ATOM     14  H   LIG A   1      -4.110   6.914 120.642  0.00  0.00    +0.292 HD
ENDBRANCH   3  13
BRANCH   4  15
ATOM     15  O   LIG A   1      -5.315   6.023 118.756  0.00  0.00    -0.501 OA
ATOM     16  H   LIG A   1      -4.454   5.675 118.445  0.00  0.00    +0.292 HD
ENDBRANCH   4  15
BRANCH   5  17
ATOM     17  O   LIG A   1      -7.471   4.354 118.501  0.00  0.00    -0.503 OA
ATOM     18  H   LIG A   1      -7.064   3.650 117.956  0.00  0.00    +0.292 HD
ENDBRANCH   5  17
TORSDOF 6
ENDMDL
