MODEL 1
REMARK VINA RESULT:      -6.3      0.000      0.000
REMARK  Name = NuBBE_630
REMARK  10 active torsions:
REMARK  status: ('A' for Active; 'I' for Inactive)
REMARK    1  A    between atoms: C_2  and  O_3
REMARK    2  A    between atoms: C_2  and  C_9
REMARK    3  A    between atoms: O_3  and  C_4
REMARK    4  A    between atoms: C_4  and  C_5
REMARK    5  A    between atoms: C_5  and  C_6
REMARK    6  A    between atoms: C_6  and  C_7
REMARK    7  A    between atoms: C_7  and  C_8
REMARK    8  A    between atoms: C_11  and  O_12
REMARK    9  A    between atoms: C_13  and  O_14
REMARK   10  A    between atoms: C_15  and  O_16
REMARK                            x       y       z     vdW  Elec       q    Type
REMARK                         _______ _______ _______ _____ _____    ______ ____
ROOT
ATOM      1  C   LIG A   1      -6.213   3.560 122.080  0.00  0.00    +0.066 A 
ATOM      2  C   LIG A   1      -5.129   4.453 122.153  0.00  0.00    +0.064 A 
ATOM      3  C   LIG A   1      -4.840   5.265 121.066  0.00  0.00    +0.163 A 
ATOM      4  C   LIG A   1      -5.606   5.178 119.909  0.00  0.00    +0.201 A 
ATOM      5  C   LIG A   1      -6.660   4.278 119.828  0.00  0.00    +0.163 A 
ATOM      6  C   LIG A   1      -6.974   3.459 120.905  0.00  0.00    +0.064 A 
ENDROOT
BRANCH   1   8
ATOM      7  O   LIG A   1      -6.229   3.141 124.420  0.00  0.00    -0.245 OA
ATOM      8  C   LIG A   1      -6.517   2.768 123.298  0.00  0.00    +0.339 C 
BRANCH   8   9
ATOM      9  O   LIG A   1      -7.192   1.642 122.968  0.00  0.00    -0.461 OA
BRANCH   9  10
ATOM     10  C   LIG A   1      -7.023   0.528 123.858  0.00  0.00    +0.232 C 
BRANCH  10  11
ATOM     11  C   LIG A   1      -6.755  -0.766 123.088  0.00  0.00    +0.041 C 
BRANCH  11  12
ATOM     12  C   LIG A   1      -5.988  -1.783 123.936  0.00  0.00    +0.003 C 
BRANCH  12  13
ATOM     13  C   LIG A   1      -5.349  -2.884 123.091  0.00  0.00    -0.003 C 
ATOM     14  C   LIG A   1      -4.677  -3.922 123.978  0.00  0.00    +0.004 C 
ENDBRANCH  12  13
ENDBRANCH  11  12
ENDBRANCH  10  11
ENDBRANCH   9  10
ENDBRANCH   8   9
ENDBRANCH   1   8
BRANCH   3  15
ATOM     15  O   LIG A   1      -3.819   6.172 121.096  0.00  0.00    -0.503 OA
ATOM     16  H   LIG A   1      -3.043   5.744 121.502  0.00  0.00    +0.292 HD
ENDBRANCH   3  15
BRANCH   4  17
ATOM     17  O   LIG A   1      -5.333   5.984 118.838  0.00  0.00    -0.501 OA
ATOM     18  H   LIG A   1      -4.357   5.953 118.758  0.00  0.00    +0.292 HD
ENDBRANCH   4  17
BRANCH   5  19
ATOM     19  O   LIG A   1      -7.408   4.198 118.689  0.00  0.00    -0.503 OA
ATOM     20  H   LIG A   1      -7.010   4.857 118.084  0.00  0.00    +0.292 HD
ENDBRANCH   5  19
TORSDOF 9
ENDMDL
MODEL 2
REMARK VINA RESULT:      -6.2      1.167      2.559
REMARK  Name = NuBBE_630
REMARK  10 active torsions:
REMARK  status: ('A' for Active; 'I' for Inactive)
REMARK    1  A    between atoms: C_2  and  O_3
REMARK    2  A    between atoms: C_2  and  C_9
REMARK    3  A    between atoms: O_3  and  C_4
REMARK    4  A    between atoms: C_4  and  C_5
REMARK    5  A    between atoms: C_5  and  C_6
REMARK    6  A    between atoms: C_6  and  C_7
REMARK    7  A    between atoms: C_7  and  C_8
REMARK    8  A    between atoms: C_11  and  O_12
REMARK    9  A    between atoms: C_13  and  O_14
REMARK   10  A    between atoms: C_15  and  O_16
REMARK                            x       y       z     vdW  Elec       q    Type
REMARK                         _______ _______ _______ _____ _____    ______ ____
ROOT
ATOM      1  C   LIG A   1      -6.257   3.533 122.083  0.00  0.00    +0.066 A 
ATOM      2  C   LIG A   1      -7.044   3.471 120.919  0.00  0.00    +0.064 A 
ATOM      3  C   LIG A   1      -6.716   4.267 119.831  0.00  0.00    +0.163 A 
ATOM      4  C   LIG A   1      -5.629   5.131 119.903  0.00  0.00    +0.201 A 
ATOM      5  C   LIG A   1      -4.868   5.211 121.062  0.00  0.00    +0.163 A 
ATOM      6  C   LIG A   1      -5.172   4.419 122.162  0.00  0.00    +0.064 A 
ENDROOT
BRANCH   1   8
ATOM      7  O   LIG A   1      -6.202   2.743 124.324  0.00  0.00    -0.245 OA
ATOM      8  C   LIG A   1      -6.613   2.608 123.187  0.00  0.00    +0.339 C 
BRANCH   8   9
ATOM      9  O   LIG A   1      -7.484   1.668 122.748  0.00  0.00    -0.461 OA
BRANCH   9  10
ATOM     10  C   LIG A   1      -7.654   0.526 123.601  0.00  0.00    +0.232 C 
BRANCH  10  11
ATOM     11  C   LIG A   1      -6.725  -0.618 123.192  0.00  0.00    +0.041 C 
BRANCH  11  12
ATOM     12  C   LIG A   1      -7.509  -1.845 122.720  0.00  0.00    +0.003 C 
BRANCH  12  13
ATOM     13  C   LIG A   1      -8.966  -1.818 123.178  0.00  0.00    -0.003 C 
ATOM     14  C   LIG A   1      -9.472  -3.228 123.449  0.00  0.00    +0.004 C 
ENDBRANCH  12  13
ENDBRANCH  11  12
ENDBRANCH  10  11
ENDBRANCH   9  10
ENDBRANCH   8   9
ENDBRANCH   1   8
BRANCH   3  15
ATOM     15  O   LIG A   1      -7.428   4.221 118.666  0.00  0.00    -0.503 OA
ATOM     16  H   LIG A   1      -6.797   4.170 117.925  0.00  0.00    +0.292 HD
ENDBRANCH   3  15
BRANCH   4  17
ATOM     17  O   LIG A   1      -5.295   5.910 118.829  0.00  0.00    -0.501 OA
ATOM     18  H   LIG A   1      -5.773   5.501 118.079  0.00  0.00    +0.292 HD
ENDBRANCH   4  17
BRANCH   5  19
ATOM     19  O   LIG A   1      -3.803   6.062 121.124  0.00  0.00    -0.503 OA
ATOM     20  H   LIG A   1      -4.064   6.828 120.573  0.00  0.00    +0.292 HD
ENDBRANCH   5  19
TORSDOF 9
ENDMDL
MODEL 3
REMARK VINA RESULT:      -6.0      1.840      2.286
REMARK  Name = NuBBE_630
REMARK  10 active torsions:
REMARK  status: ('A' for Active; 'I' for Inactive)
REMARK    1  A    between atoms: C_2  and  O_3
REMARK    2  A    between atoms: C_2  and  C_9
REMARK    3  A    between atoms: O_3  and  C_4
REMARK    4  A    between atoms: C_4  and  C_5
REMARK    5  A    between atoms: C_5  and  C_6
REMARK    6  A    between atoms: C_6  and  C_7
REMARK    7  A    between atoms: C_7  and  C_8
REMARK    8  A    between atoms: C_11  and  O_12
REMARK    9  A    between atoms: C_13  and  O_14
REMARK   10  A    between atoms: C_15  and  O_16
REMARK                            x       y       z     vdW  Elec       q    Type
REMARK                         _______ _______ _______ _____ _____    ______ ____
ROOT
ATOM      1  C   LIG A   1      -7.895   3.138 122.426  0.00  0.00    +0.066 A 
ATOM      2  C   LIG A   1      -6.569   3.426 122.056  0.00  0.00    +0.064 A 
ATOM      3  C   LIG A   1      -6.310   3.939 120.793  0.00  0.00    +0.163 A 
ATOM      4  C   LIG A   1      -7.354   4.146 119.898  0.00  0.00    +0.201 A 
ATOM      5  C   LIG A   1      -8.660   3.837 120.256  0.00  0.00    +0.163 A 
ATOM      6  C   LIG A   1      -8.945   3.329 121.516  0.00  0.00    +0.064 A 
ENDROOT
BRANCH   1   8
ATOM      7  O   LIG A   1      -8.963   3.129 124.550  0.00  0.00    -0.245 OA
ATOM      8  C   LIG A   1      -8.117   2.659 123.813  0.00  0.00    +0.339 C 
BRANCH   8   9
ATOM      9  O   LIG A   1      -7.298   1.614 124.084  0.00  0.00    -0.461 OA
BRANCH   9  10
ATOM     10  C   LIG A   1      -7.846   0.310 123.839  0.00  0.00    +0.232 C 
BRANCH  10  11
ATOM     11  C   LIG A   1      -6.806  -0.625 123.222  0.00  0.00    +0.041 C 
BRANCH  11  12
ATOM     12  C   LIG A   1      -7.267  -2.084 123.246  0.00  0.00    +0.003 C 
BRANCH  12  13
ATOM     13  C   LIG A   1      -8.704  -2.250 122.753  0.00  0.00    -0.003 C 
ATOM     14  C   LIG A   1      -9.445  -3.282 123.591  0.00  0.00    +0.004 C 
ENDBRANCH  12  13
ENDBRANCH  11  12
ENDBRANCH  10  11
ENDBRANCH   9  10
ENDBRANCH   8   9
ENDBRANCH   1   8
BRANCH   3  15
ATOM     15  O   LIG A   1      -5.045   4.266 120.394  0.00  0.00    -0.503 OA
ATOM     16  H   LIG A   1      -5.099   5.055 119.825  0.00  0.00    +0.292 HD
ENDBRANCH   3  15
BRANCH   4  17
ATOM     17  O   LIG A   1      -7.106   4.662 118.656  0.00  0.00    -0.501 OA
ATOM     18  H   LIG A   1      -7.525   4.022 118.043  0.00  0.00    +0.292 HD
ENDBRANCH   4  17
BRANCH   5  19
ATOM     19  O   LIG A   1      -9.679   4.044 119.371  0.00  0.00    -0.503 OA
ATOM     20  H   LIG A   1     -10.480   3.730 119.839  0.00  0.00    +0.292 HD
ENDBRANCH   5  19
TORSDOF 9
ENDMDL
MODEL 4
REMARK VINA RESULT:      -5.9      2.660      4.171
REMARK  Name = NuBBE_630
REMARK  10 active torsions:
REMARK  status: ('A' for Active; 'I' for Inactive)
REMARK    1  A    between atoms: C_2  and  O_3
REMARK    2  A    between atoms: C_2  and  C_9
REMARK    3  A    between atoms: O_3  and  C_4
REMARK    4  A    between atoms: C_4  and  C_5
REMARK    5  A    between atoms: C_5  and  C_6
REMARK    6  A    between atoms: C_6  and  C_7
REMARK    7  A    between atoms: C_7  and  C_8
REMARK    8  A    between atoms: C_11  and  O_12
REMARK    9  A    between atoms: C_13  and  O_14
REMARK   10  A    between atoms: C_15  and  O_16
REMARK                            x       y       z     vdW  Elec       q    Type
REMARK                         _______ _______ _______ _____ _____    ______ ____
ROOT
ATOM      1  C   LIG A   1      -8.547   1.072 124.081  0.00  0.00    +0.066 A 
ATOM      2  C   LIG A   1      -9.006   1.905 123.045  0.00  0.00    +0.064 A 
ATOM      3  C   LIG A   1      -8.259   3.017 122.682  0.00  0.00    +0.163 A 
ATOM      4  C   LIG A   1      -7.078   3.311 123.353  0.00  0.00    +0.201 A 
ATOM      5  C   LIG A   1      -6.639   2.503 124.393  0.00  0.00    +0.163 A 
ATOM      6  C   LIG A   1      -7.364   1.381 124.771  0.00  0.00    +0.064 A 
ENDROOT
BRANCH   1   8
ATOM      7  O   LIG A   1      -9.754  -0.411 125.492  0.00  0.00    -0.245 OA
ATOM      8  C   LIG A   1      -9.350  -0.139 124.377  0.00  0.00    +0.339 C 
BRANCH   8   9
ATOM      9  O   LIG A   1      -9.598  -0.827 123.237  0.00  0.00    -0.461 OA
BRANCH   9  10
ATOM     10  C   LIG A   1      -8.597  -1.781 122.852  0.00  0.00    +0.232 C 
BRANCH  10  11
ATOM     11  C   LIG A   1      -8.755  -3.096 123.617  0.00  0.00    +0.041 C 
BRANCH  11  12
ATOM     12  C   LIG A   1      -7.451  -3.517 124.299  0.00  0.00    +0.003 C 
BRANCH  12  13
ATOM     13  C   LIG A   1      -6.273  -2.627 123.906  0.00  0.00    -0.003 C 
ATOM     14  C   LIG A   1      -5.004  -3.452 123.748  0.00  0.00    +0.004 C 
ENDBRANCH  12  13
ENDBRANCH  11  12
ENDBRANCH  10  11
ENDBRANCH   9  10
ENDBRANCH   8   9
ENDBRANCH   1   8
BRANCH   3  15
ATOM     15  O   LIG A   1      -8.644   3.840 121.662  0.00  0.00    -0.503 OA
ATOM     16  H   LIG A   1      -8.044   4.608 121.646  0.00  0.00    +0.292 HD
ENDBRANCH   3  15
BRANCH   4  17
ATOM     17  O   LIG A   1      -6.332   4.400 122.992  0.00  0.00    -0.501 OA
ATOM     18  H   LIG A   1      -6.334   4.967 123.791  0.00  0.00    +0.292 HD
ENDBRANCH   4  17
BRANCH   5  19
ATOM     19  O   LIG A   1      -5.477   2.799 125.047  0.00  0.00    -0.503 OA
ATOM     20  H   LIG A   1      -5.548   3.752 125.259  0.00  0.00    +0.292 HD
ENDBRANCH   5  19
TORSDOF 9
ENDMDL
MODEL 5
REMARK VINA RESULT:      -5.8      3.800      5.574
REMARK  Name = NuBBE_630
REMARK  10 active torsions:
REMARK  status: ('A' for Active; 'I' for Inactive)
REMARK    1  A    between atoms: C_2  and  O_3
REMARK    2  A    between atoms: C_2  and  C_9
REMARK    3  A    between atoms: O_3  and  C_4
REMARK    4  A    between atoms: C_4  and  C_5
REMARK    5  A    between atoms: C_5  and  C_6
REMARK    6  A    between atoms: C_6  and  C_7
REMARK    7  A    between atoms: C_7  and  C_8
REMARK    8  A    between atoms: C_11  and  O_12
REMARK    9  A    between atoms: C_13  and  O_14
REMARK   10  A    between atoms: C_15  and  O_16
REMARK                            x       y       z     vdW  Elec       q    Type
REMARK                         _______ _______ _______ _____ _____    ______ ____
ROOT
ATOM      1  C   LIG A   1      -8.476   0.264 123.893  0.00  0.00    +0.066 A 
ATOM      2  C   LIG A   1      -8.519   1.267 122.909  0.00  0.00    +0.064 A 
ATOM      3  C   LIG A   1      -8.625   2.596 123.294  0.00  0.00    +0.163 A 
ATOM      4  C   LIG A   1      -8.707   2.926 124.642  0.00  0.00    +0.201 A 
ATOM      5  C   LIG A   1      -8.691   1.933 125.612  0.00  0.00    +0.163 A 
ATOM      6  C   LIG A   1      -8.579   0.596 125.253  0.00  0.00    +0.064 A 
ENDROOT
BRANCH   1   8
ATOM      7  O   LIG A   1      -7.248  -1.540 122.953  0.00  0.00    -0.245 OA
ATOM      8  C   LIG A   1      -8.292  -1.132 123.425  0.00  0.00    +0.339 C 
BRANCH   8   9
ATOM      9  O   LIG A   1      -9.413  -1.856 123.659  0.00  0.00    -0.461 OA
BRANCH   9  10
ATOM     10  C   LIG A   1      -9.221  -3.101 124.345  0.00  0.00    +0.232 C 
BRANCH  10  11
ATOM     11  C   LIG A   1      -9.651  -3.003 125.809  0.00  0.00    +0.041 C 
BRANCH  11  12
ATOM     12  C   LIG A   1      -8.459  -3.127 126.762  0.00  0.00    +0.003 C 
BRANCH  12  13
ATOM     13  C   LIG A   1      -8.819  -3.859 128.054  0.00  0.00    -0.003 C 
ATOM     14  C   LIG A   1      -7.960  -3.363 129.210  0.00  0.00    +0.004 C 
ENDBRANCH  12  13
ENDBRANCH  11  12
ENDBRANCH  10  11
ENDBRANCH   9  10
ENDBRANCH   8   9
ENDBRANCH   1   8
BRANCH   3  15
ATOM     15  O   LIG A   1      -8.638   3.611 122.379  0.00  0.00    -0.503 OA
ATOM     16  H   LIG A   1      -8.044   3.369 121.646  0.00  0.00    +0.292 HD
ENDBRANCH   3  15
BRANCH   4  17
ATOM     17  O   LIG A   1      -8.801   4.235 125.027  0.00  0.00    -0.501 OA
ATOM     18  H   LIG A   1      -7.912   4.444 125.383  0.00  0.00    +0.292 HD
ENDBRANCH   4  17
BRANCH   5  19
ATOM     19  O   LIG A   1      -8.772   2.265 126.934  0.00  0.00    -0.503 OA
ATOM     20  H   LIG A   1      -7.847   2.433 127.205  0.00  0.00    +0.292 HD
ENDBRANCH   5  19
TORSDOF 9
ENDMDL
MODEL 6
REMARK VINA RESULT:      -5.8      3.380      4.726
REMARK  Name = NuBBE_630
REMARK  10 active torsions:
REMARK  status: ('A' for Active; 'I' for Inactive)
REMARK    1  A    between atoms: C_2  and  O_3
REMARK    2  A    between atoms: C_2  and  C_9
REMARK    3  A    between atoms: O_3  and  C_4
REMARK    4  A    between atoms: C_4  and  C_5
REMARK    5  A    between atoms: C_5  and  C_6
REMARK    6  A    between atoms: C_6  and  C_7
REMARK    7  A    between atoms: C_7  and  C_8
REMARK    8  A    between atoms: C_11  and  O_12
REMARK    9  A    between atoms: C_13  and  O_14
REMARK   10  A    between atoms: C_15  and  O_16
REMARK                            x       y       z     vdW  Elec       q    Type
REMARK                         _______ _______ _______ _____ _____    ______ ____
ROOT
ATOM      1  C   LIG A   1      -8.847   0.538 124.015  0.00  0.00    +0.066 A 
ATOM      2  C   LIG A   1      -8.746   0.956 125.354  0.00  0.00    +0.064 A 
ATOM      3  C   LIG A   1      -8.560   2.302 125.635  0.00  0.00    +0.163 A 
ATOM      4  C   LIG A   1      -8.456   3.222 124.599  0.00  0.00    +0.201 A 
ATOM      5  C   LIG A   1      -8.530   2.804 123.277  0.00  0.00    +0.163 A 
ATOM      6  C   LIG A   1      -8.722   1.464 122.969  0.00  0.00    +0.064 A 
ENDROOT
BRANCH   1   8
ATOM      7  O   LIG A   1      -9.900  -1.301 122.938  0.00  0.00    -0.245 OA
ATOM      8  C   LIG A   1      -9.116  -0.903 123.778  0.00  0.00    +0.339 C 
BRANCH   8   9
ATOM      9  O   LIG A   1      -8.330  -1.663 124.578  0.00  0.00    -0.461 OA
BRANCH   9  10
ATOM     10  C   LIG A   1      -7.776  -2.840 123.972  0.00  0.00    +0.232 C 
BRANCH  10  11
ATOM     11  C   LIG A   1      -6.531  -2.510 123.147  0.00  0.00    +0.041 C 
BRANCH  11  12
ATOM     12  C   LIG A   1      -5.267  -2.489 124.009  0.00  0.00    +0.003 C 
BRANCH  12  13
ATOM     13  C   LIG A   1      -4.160  -3.378 123.443  0.00  0.00    -0.003 C 
ATOM     14  C   LIG A   1      -4.517  -4.849 123.606  0.00  0.00    +0.004 C 
ENDBRANCH  12  13
ENDBRANCH  11  12
ENDBRANCH  10  11
ENDBRANCH   9  10
ENDBRANCH   8   9
ENDBRANCH   1   8
BRANCH   3  15
ATOM     15  O   LIG A   1      -8.488   2.765 126.919  0.00  0.00    -0.503 OA
ATOM     16  H   LIG A   1      -9.203   3.414 127.050  0.00  0.00    +0.292 HD
ENDBRANCH   3  15
BRANCH   4  17
ATOM     17  O   LIG A   1      -8.283   4.552 124.871  0.00  0.00    -0.501 OA
ATOM     18  H   LIG A   1      -7.625   4.564 125.596  0.00  0.00    +0.292 HD
ENDBRANCH   4  17
BRANCH   5  19
ATOM     19  O   LIG A   1      -8.426   3.714 122.264  0.00  0.00    -0.503 OA
ATOM     20  H   LIG A   1      -7.522   4.081 122.351  0.00  0.00    +0.292 HD
ENDBRANCH   5  19
TORSDOF 9
ENDMDL
MODEL 7
REMARK VINA RESULT:      -5.8      9.194     10.770
REMARK  Name = NuBBE_630
REMARK  10 active torsions:
REMARK  status: ('A' for Active; 'I' for Inactive)
REMARK    1  A    between atoms: C_2  and  O_3
REMARK    2  A    between atoms: C_2  and  C_9
REMARK    3  A    between atoms: O_3  and  C_4
REMARK    4  A    between atoms: C_4  and  C_5
REMARK    5  A    between atoms: C_5  and  C_6
REMARK    6  A    between atoms: C_6  and  C_7
REMARK    7  A    between atoms: C_7  and  C_8
REMARK    8  A    between atoms: C_11  and  O_12
REMARK    9  A    between atoms: C_13  and  O_14
REMARK   10  A    between atoms: C_15  and  O_16
REMARK                            x       y       z     vdW  Elec       q    Type
REMARK                         _______ _______ _______ _____ _____    ______ ____
ROOT
ATOM      1  C   LIG A   1     -10.401   5.867 129.917  0.00  0.00    +0.066 A 
ATOM      2  C   LIG A   1     -10.180   6.833 128.919  0.00  0.00    +0.064 A 
ATOM      3  C   LIG A   1     -10.999   7.952 128.860  0.00  0.00    +0.163 A 
ATOM      4  C   LIG A   1     -12.040   8.102 129.768  0.00  0.00    +0.201 A 
ATOM      5  C   LIG A   1     -12.274   7.135 130.737  0.00  0.00    +0.163 A 
ATOM      6  C   LIG A   1     -11.464   6.009 130.821  0.00  0.00    +0.064 A 
ENDROOT
BRANCH   1   8
ATOM      7  O   LIG A   1      -8.243   4.873 129.984  0.00  0.00    -0.245 OA
ATOM      8  C   LIG A   1      -9.451   4.729 129.974  0.00  0.00    +0.339 C 
BRANCH   8   9
ATOM      9  O   LIG A   1     -10.127   3.559 130.072  0.00  0.00    -0.461 OA
BRANCH   9  10
ATOM     10  C   LIG A   1      -9.369   2.437 130.546  0.00  0.00    +0.232 C 
BRANCH  10  11
ATOM     11  C   LIG A   1      -9.808   2.020 131.951  0.00  0.00    +0.041 C 
BRANCH  11  12
ATOM     12  C   LIG A   1      -8.839   2.527 133.022  0.00  0.00    +0.003 C 
BRANCH  12  13
ATOM     13  C   LIG A   1      -9.351   3.784 133.724  0.00  0.00    -0.003 C 
ATOM     14  C   LIG A   1      -8.372   4.936 133.545  0.00  0.00    +0.004 C 
ENDBRANCH  12  13
ENDBRANCH  11  12
ENDBRANCH  10  11
ENDBRANCH   9  10
ENDBRANCH   8   9
ENDBRANCH   1   8
BRANCH   3  15
ATOM     15  O   LIG A   1     -10.807   8.935 127.931  0.00  0.00    -0.503 OA
ATOM     16  H   LIG A   1      -9.949   9.361 128.111  0.00  0.00    +0.292 HD
ENDBRANCH   3  15
BRANCH   4  17
ATOM     17  O   LIG A   1     -12.843   9.208 129.721  0.00  0.00    -0.501 OA
ATOM     18  H   LIG A   1     -12.746   9.536 128.803  0.00  0.00    +0.292 HD
ENDBRANCH   4  17
BRANCH   5  19
ATOM     19  O   LIG A   1     -13.299   7.289 131.626  0.00  0.00    -0.503 OA
ATOM     20  H   LIG A   1     -13.246   8.226 131.905  0.00  0.00    +0.292 HD
ENDBRANCH   5  19
TORSDOF 9
ENDMDL
MODEL 8
REMARK VINA RESULT:      -5.7      9.428     10.950
REMARK  Name = NuBBE_630
REMARK  10 active torsions:
REMARK  status: ('A' for Active; 'I' for Inactive)
REMARK    1  A    between atoms: C_2  and  O_3
REMARK    2  A    between atoms: C_2  and  C_9
REMARK    3  A    between atoms: O_3  and  C_4
REMARK    4  A    between atoms: C_4  and  C_5
REMARK    5  A    between atoms: C_5  and  C_6
REMARK    6  A    between atoms: C_6  and  C_7
REMARK    7  A    between atoms: C_7  and  C_8
REMARK    8  A    between atoms: C_11  and  O_12
REMARK    9  A    between atoms: C_13  and  O_14
REMARK   10  A    between atoms: C_15  and  O_16
REMARK                            x       y       z     vdW  Elec       q    Type
REMARK                         _______ _______ _______ _____ _____    ______ ____
ROOT
ATOM      1  C   LIG A   1      -9.922   6.654 130.497  0.00  0.00    +0.066 A 
ATOM      2  C   LIG A   1     -11.037   6.815 131.338  0.00  0.00    +0.064 A 
ATOM      3  C   LIG A   1     -12.298   6.963 130.778  0.00  0.00    +0.163 A 
ATOM      4  C   LIG A   1     -12.450   6.970 129.396  0.00  0.00    +0.201 A 
ATOM      5  C   LIG A   1     -11.345   6.837 128.566  0.00  0.00    +0.163 A 
ATOM      6  C   LIG A   1     -10.073   6.681 129.102  0.00  0.00    +0.064 A 
ENDROOT
BRANCH   1   8
ATOM      7  O   LIG A   1      -7.569   6.323 130.534  0.00  0.00    -0.245 OA
ATOM      8  C   LIG A   1      -8.610   6.431 131.154  0.00  0.00    +0.339 C 
BRANCH   8   9
ATOM      9  O   LIG A   1      -8.755   6.431 132.500  0.00  0.00    -0.461 OA
BRANCH   9  10
ATOM     10  C   LIG A   1      -8.198   5.300 133.188  0.00  0.00    +0.232 C 
BRANCH  10  11
ATOM     11  C   LIG A   1      -9.267   4.248 133.488  0.00  0.00    +0.041 C 
BRANCH  11  12
ATOM     12  C   LIG A   1      -8.764   2.831 133.204  0.00  0.00    +0.003 C 
BRANCH  12  13
ATOM     13  C   LIG A   1      -9.694   2.058 132.269  0.00  0.00    -0.003 C 
ATOM     14  C   LIG A   1     -10.087   2.915 131.074  0.00  0.00    +0.004 C 
ENDBRANCH  12  13
ENDBRANCH  11  12
ENDBRANCH  10  11
ENDBRANCH   9  10
ENDBRANCH   8   9
ENDBRANCH   1   8
BRANCH   3  15
ATOM     15  O   LIG A   1     -13.418   7.090 131.550  0.00  0.00    -0.503 OA
ATOM     16  H   LIG A   1     -14.197   7.053 130.966  0.00  0.00    +0.292 HD
ENDBRANCH   3  15
BRANCH   4  17
ATOM     17  O   LIG A   1     -13.692   7.103 128.838  0.00  0.00    -0.501 OA
ATOM     18  H   LIG A   1     -13.964   6.184 128.639  0.00  0.00    +0.292 HD
ENDBRANCH   4  17
BRANCH   5  19
ATOM     19  O   LIG A   1     -11.501   6.845 127.210  0.00  0.00    -0.503 OA
ATOM     20  H   LIG A   1     -12.190   6.171 127.035  0.00  0.00    +0.292 HD
ENDBRANCH   5  19
TORSDOF 9
ENDMDL
MODEL 9
REMARK VINA RESULT:      -5.7      2.730      3.827
REMARK  Name = NuBBE_630
REMARK  10 active torsions:
REMARK  status: ('A' for Active; 'I' for Inactive)
REMARK    1  A    between atoms: C_2  and  O_3
REMARK    2  A    between atoms: C_2  and  C_9
REMARK    3  A    between atoms: O_3  and  C_4
REMARK    4  A    between atoms: C_4  and  C_5
REMARK    5  A    between atoms: C_5  and  C_6
REMARK    6  A    between atoms: C_6  and  C_7
REMARK    7  A    between atoms: C_7  and  C_8
REMARK    8  A    between atoms: C_11  and  O_12
REMARK    9  A    between atoms: C_13  and  O_14
REMARK   10  A    between atoms: C_15  and  O_16
REMARK                            x       y       z     vdW  Elec       q    Type
REMARK                         _______ _______ _______ _____ _____    ______ ____
ROOT
ATOM      1  C   LIG A   1      -8.376   1.064 124.240  0.00  0.00    +0.066 A 
ATOM      2  C   LIG A   1      -7.185   1.397 124.911  0.00  0.00    +0.064 A 
ATOM      3  C   LIG A   1      -6.493   2.542 124.543  0.00  0.00    +0.163 A 
ATOM      4  C   LIG A   1      -6.965   3.339 123.506  0.00  0.00    +0.201 A 
ATOM      5  C   LIG A   1      -8.126   2.995 122.827  0.00  0.00    +0.163 A 
ATOM      6  C   LIG A   1      -8.841   1.858 123.181  0.00  0.00    +0.064 A 
ENDROOT
BRANCH   1   8
ATOM      7  O   LIG A   1      -9.132  -0.468 125.892  0.00  0.00    -0.245 OA
ATOM      8  C   LIG A   1      -9.109  -0.132 124.723  0.00  0.00    +0.339 C 
BRANCH   8   9
ATOM      9  O   LIG A   1      -9.768  -0.723 123.698  0.00  0.00    -0.461 OA
BRANCH   9  10
ATOM     10  C   LIG A   1      -9.032  -1.720 122.974  0.00  0.00    +0.232 C 
BRANCH  10  11
ATOM     11  C   LIG A   1      -9.152  -3.093 123.637  0.00  0.00    +0.041 C 
BRANCH  11  12
ATOM     12  C   LIG A   1      -7.817  -3.560 124.222  0.00  0.00    +0.003 C 
BRANCH  12  13
ATOM     13  C   LIG A   1      -6.640  -2.713 123.739  0.00  0.00    -0.003 C 
ATOM     14  C   LIG A   1      -5.382  -3.040 124.531  0.00  0.00    +0.004 C 
ENDBRANCH  12  13
ENDBRANCH  11  12
ENDBRANCH  10  11
ENDBRANCH   9  10
ENDBRANCH   8   9
ENDBRANCH   1   8
BRANCH   3  15
ATOM     15  O   LIG A   1      -5.350   2.928 125.184  0.00  0.00    -0.503 OA
ATOM     16  H   LIG A   1      -5.595   3.290 126.054  0.00  0.00    +0.292 HD
ENDBRANCH   3  15
BRANCH   4  17
ATOM     17  O   LIG A   1      -6.293   4.474 123.147  0.00  0.00    -0.501 OA
ATOM     18  H   LIG A   1      -5.367   4.299 123.415  0.00  0.00    +0.292 HD
ENDBRANCH   4  17
BRANCH   5  19
ATOM     19  O   LIG A   1      -8.584   3.782 121.810  0.00  0.00    -0.503 OA
ATOM     20  H   LIG A   1      -9.547   3.860 121.970  0.00  0.00    +0.292 HD
ENDBRANCH   5  19
TORSDOF 9
ENDMDL
