MODEL 1
REMARK VINA RESULT:      -5.7      0.000      0.000
REMARK  Name = NuBBE_949
REMARK  4 active torsions:
REMARK  status: ('A' for Active; 'I' for Inactive)
REMARK    1  A    between atoms: O_1  and  C_2
REMARK    2  A    between atoms: C_2  and  C_3
REMARK    3  A    between atoms: C_3  and  C_4
REMARK    4  A    between atoms: C_4  and  C_5
REMARK                            x       y       z     vdW  Elec       q    Type
REMARK                         _______ _______ _______ _____ _____    ______ ____
ROOT
ATOM      1  C   LIG A   1     -10.398   8.361 128.481  0.00  0.00    +0.046 C 
ENDROOT
BRANCH   1   2
ATOM      2  C   LIG A   1     -10.412   7.561 129.760  0.00  0.00    -0.047 A 
ATOM      3  C   LIG A   1     -11.623   7.243 130.390  0.00  0.00    +0.003 A 
ATOM      4  C   LIG A   1     -11.631   6.522 131.586  0.00  0.00    +0.000 A 
ATOM      5  C   LIG A   1     -10.430   6.109 132.161  0.00  0.00    +0.000 A 
ATOM      6  C   LIG A   1      -9.220   6.411 131.537  0.00  0.00    +0.000 A 
ATOM      7  C   LIG A   1      -9.211   7.130 130.341  0.00  0.00    +0.003 A 
ENDBRANCH   1   2
BRANCH   1   8
ATOM      8  C   LIG A   1     -11.702   8.241 127.694  0.00  0.00    +0.125 C 
BRANCH   8   9
ATOM      9  C   LIG A   1     -11.456   7.611 126.351  0.00  0.00    +0.305 C 
ATOM     10  O   LIG A   1     -10.725   8.020 125.463  0.00  0.00    -0.251 OA
BRANCH   9  11
ATOM     11  O   LIG A   1     -12.167   6.482 126.178  0.00  0.00    -0.481 OA
ATOM     12  H   LIG A   1     -11.599   5.927 125.601  0.00  0.00    +0.295 HD
ENDBRANCH   9  11
ENDBRANCH   8   9
ENDBRANCH   1   8
TORSDOF 4
ENDMDL
MODEL 2
REMARK VINA RESULT:      -5.5      7.725     10.197
REMARK  Name = NuBBE_949
REMARK  4 active torsions:
REMARK  status: ('A' for Active; 'I' for Inactive)
REMARK    1  A    between atoms: O_1  and  C_2
REMARK    2  A    between atoms: C_2  and  C_3
REMARK    3  A    between atoms: C_3  and  C_4
REMARK    4  A    between atoms: C_4  and  C_5
REMARK                            x       y       z     vdW  Elec       q    Type
REMARK                         _______ _______ _______ _____ _____    ______ ____
ROOT
ATOM      1  C   LIG A   1      -6.788   3.064 122.370  0.00  0.00    +0.046 C 
ENDROOT
BRANCH   1   2
ATOM      2  C   LIG A   1      -6.596   3.837 121.089  0.00  0.00    -0.047 A 
ATOM      3  C   LIG A   1      -5.401   4.526 120.842  0.00  0.00    +0.003 A 
ATOM      4  C   LIG A   1      -5.236   5.259 119.665  0.00  0.00    +0.000 A 
ATOM      5  C   LIG A   1      -6.262   5.307 118.722  0.00  0.00    +0.000 A 
ATOM      6  C   LIG A   1      -7.451   4.616 118.953  0.00  0.00    +0.000 A 
ATOM      7  C   LIG A   1      -7.616   3.882 120.128  0.00  0.00    +0.003 A 
ENDBRANCH   1   2
BRANCH   1   8
ATOM      8  C   LIG A   1      -8.255   2.751 122.657  0.00  0.00    +0.125 C 
BRANCH   8   9
ATOM      9  C   LIG A   1      -8.604   3.096 124.078  0.00  0.00    +0.305 C 
ATOM     10  O   LIG A   1      -9.277   2.439 124.858  0.00  0.00    -0.251 OA
BRANCH   9  11
ATOM     11  O   LIG A   1      -8.094   4.283 124.457  0.00  0.00    -0.481 OA
ATOM     12  H   LIG A   1      -8.056   4.226 125.436  0.00  0.00    +0.295 HD
ENDBRANCH   9  11
ENDBRANCH   8   9
ENDBRANCH   1   8
TORSDOF 4
ENDMDL
MODEL 3
REMARK VINA RESULT:      -5.3      2.957      4.674
REMARK  Name = NuBBE_949
REMARK  4 active torsions:
REMARK  status: ('A' for Active; 'I' for Inactive)
REMARK    1  A    between atoms: O_1  and  C_2
REMARK    2  A    between atoms: C_2  and  C_3
REMARK    3  A    between atoms: C_3  and  C_4
REMARK    4  A    between atoms: C_4  and  C_5
REMARK                            x       y       z     vdW  Elec       q    Type
REMARK                         _______ _______ _______ _____ _____    ______ ____
ROOT
ATOM      1  C   LIG A   1     -11.960   6.867 131.340  0.00  0.00    +0.046 C 
ENDROOT
BRANCH   1   2
ATOM      2  C   LIG A   1     -12.568   7.427 130.078  0.00  0.00    -0.047 A 
ATOM      3  C   LIG A   1     -12.687   8.812 129.896  0.00  0.00    +0.003 A 
ATOM      4  C   LIG A   1     -13.272   9.326 128.737  0.00  0.00    +0.000 A 
ATOM      5  C   LIG A   1     -13.739   8.463 127.748  0.00  0.00    +0.000 A 
ATOM      6  C   LIG A   1     -13.617   7.084 127.914  0.00  0.00    +0.000 A 
ATOM      7  C   LIG A   1     -13.031   6.569 129.071  0.00  0.00    +0.003 A 
ENDBRANCH   1   2
BRANCH   1   8
ATOM      8  C   LIG A   1     -10.787   5.928 131.064  0.00  0.00    +0.125 C 
BRANCH   8   9
ATOM      9  C   LIG A   1      -9.497   6.696 130.992  0.00  0.00    +0.305 C 
ATOM     10  O   LIG A   1      -9.086   7.371 130.061  0.00  0.00    -0.251 OA
BRANCH   9  11
ATOM     11  O   LIG A   1      -8.760   6.566 132.111  0.00  0.00    -0.481 OA
ATOM     12  H   LIG A   1      -8.141   5.834 131.907  0.00  0.00    +0.295 HD
ENDBRANCH   9  11
ENDBRANCH   8   9
ENDBRANCH   1   8
TORSDOF 4
ENDMDL
MODEL 4
REMARK VINA RESULT:      -5.3      3.509      5.212
REMARK  Name = NuBBE_949
REMARK  4 active torsions:
REMARK  status: ('A' for Active; 'I' for Inactive)
REMARK    1  A    between atoms: O_1  and  C_2
REMARK    2  A    between atoms: C_2  and  C_3
REMARK    3  A    between atoms: C_3  and  C_4
REMARK    4  A    between atoms: C_4  and  C_5
REMARK                            x       y       z     vdW  Elec       q    Type
REMARK                         _______ _______ _______ _____ _____    ______ ____
ROOT
ATOM      1  C   LIG A   1     -11.948   6.759 131.327  0.00  0.00    +0.046 C 
ENDROOT
BRANCH   1   2
ATOM      2  C   LIG A   1     -12.573   7.364 130.094  0.00  0.00    -0.047 A 
ATOM      3  C   LIG A   1     -13.075   6.545 129.073  0.00  0.00    +0.003 A 
ATOM      4  C   LIG A   1     -13.631   7.110 127.923  0.00  0.00    +0.000 A 
ATOM      5  C   LIG A   1     -13.694   8.495 127.784  0.00  0.00    +0.000 A 
ATOM      6  C   LIG A   1     -13.207   9.318 128.798  0.00  0.00    +0.000 A 
ATOM      7  C   LIG A   1     -12.653   8.756 129.949  0.00  0.00    +0.003 A 
ENDBRANCH   1   2
BRANCH   1   8
ATOM      8  C   LIG A   1     -10.443   6.542 131.182  0.00  0.00    +0.125 C 
BRANCH   8   9
ATOM      9  C   LIG A   1      -9.915   5.707 132.315  0.00  0.00    +0.305 C 
ATOM     10  O   LIG A   1      -9.599   4.528 132.284  0.00  0.00    -0.251 OA
BRANCH   9  11
ATOM     11  O   LIG A   1      -9.820   6.403 133.464  0.00  0.00    -0.481 OA
ATOM     12  H   LIG A   1      -9.128   7.074 133.281  0.00  0.00    +0.295 HD
ENDBRANCH   9  11
ENDBRANCH   8   9
ENDBRANCH   1   8
TORSDOF 4
ENDMDL
MODEL 5
REMARK VINA RESULT:      -5.3      2.465      4.184
REMARK  Name = NuBBE_949
REMARK  4 active torsions:
REMARK  status: ('A' for Active; 'I' for Inactive)
REMARK    1  A    between atoms: O_1  and  C_2
REMARK    2  A    between atoms: C_2  and  C_3
REMARK    3  A    between atoms: C_3  and  C_4
REMARK    4  A    between atoms: C_4  and  C_5
REMARK                            x       y       z     vdW  Elec       q    Type
REMARK                         _______ _______ _______ _____ _____    ______ ____
ROOT
ATOM      1  C   LIG A   1     -11.730   6.568 130.989  0.00  0.00    +0.046 C 
ENDROOT
BRANCH   1   2
ATOM      2  C   LIG A   1     -12.476   7.262 129.877  0.00  0.00    -0.047 A 
ATOM      3  C   LIG A   1     -13.101   6.520 128.865  0.00  0.00    +0.003 A 
ATOM      4  C   LIG A   1     -13.771   7.167 127.825  0.00  0.00    +0.000 A 
ATOM      5  C   LIG A   1     -13.827   8.559 127.789  0.00  0.00    +0.000 A 
ATOM      6  C   LIG A   1     -13.219   9.306 128.796  0.00  0.00    +0.000 A 
ATOM      7  C   LIG A   1     -12.550   8.661 129.837  0.00  0.00    +0.003 A 
ENDBRANCH   1   2
BRANCH   1   8
ATOM      8  C   LIG A   1     -10.657   5.610 130.474  0.00  0.00    +0.125 C 
BRANCH   8   9
ATOM      9  C   LIG A   1      -9.598   6.358 129.713  0.00  0.00    +0.305 C 
ATOM     10  O   LIG A   1      -8.963   7.332 130.087  0.00  0.00    -0.251 OA
BRANCH   9  11
ATOM     11  O   LIG A   1      -9.392   5.846 128.485  0.00  0.00    -0.481 OA
ATOM     12  H   LIG A   1      -8.423   5.927 128.351  0.00  0.00    +0.295 HD
ENDBRANCH   9  11
ENDBRANCH   8   9
ENDBRANCH   1   8
TORSDOF 4
ENDMDL
MODEL 6
REMARK VINA RESULT:      -5.2      2.532      3.026
REMARK  Name = NuBBE_949
REMARK  4 active torsions:
REMARK  status: ('A' for Active; 'I' for Inactive)
REMARK    1  A    between atoms: O_1  and  C_2
REMARK    2  A    between atoms: C_2  and  C_3
REMARK    3  A    between atoms: C_3  and  C_4
REMARK    4  A    between atoms: C_4  and  C_5
REMARK                            x       y       z     vdW  Elec       q    Type
REMARK                         _______ _______ _______ _____ _____    ______ ____
ROOT
ATOM      1  C   LIG A   1     -12.413   7.385 129.740  0.00  0.00    +0.046 C 
ENDROOT
BRANCH   1   2
ATOM      2  C   LIG A   1     -11.141   7.009 130.457  0.00  0.00    -0.047 A 
ATOM      3  C   LIG A   1     -11.185   6.313 131.673  0.00  0.00    +0.003 A 
ATOM      4  C   LIG A   1     -10.005   5.988 132.346  0.00  0.00    +0.000 A 
ATOM      5  C   LIG A   1      -8.772   6.350 131.808  0.00  0.00    +0.000 A 
ATOM      6  C   LIG A   1      -8.715   7.032 130.594  0.00  0.00    +0.000 A 
ATOM      7  C   LIG A   1      -9.894   7.357 129.920  0.00  0.00    +0.003 A 
ENDBRANCH   1   2
BRANCH   1   8
ATOM      8  C   LIG A   1     -12.264   8.649 128.895  0.00  0.00    +0.125 C 
BRANCH   8   9
ATOM      9  C   LIG A   1     -13.024   9.792 129.509  0.00  0.00    +0.305 C 
ATOM     10  O   LIG A   1     -13.207  10.009 130.697  0.00  0.00    -0.251 OA
BRANCH   9  11
ATOM     11  O   LIG A   1     -13.543  10.619 128.582  0.00  0.00    -0.481 OA
ATOM     12  H   LIG A   1     -12.769  11.117 128.245  0.00  0.00    +0.295 HD
ENDBRANCH   9  11
ENDBRANCH   8   9
ENDBRANCH   1   8
TORSDOF 4
ENDMDL
MODEL 7
REMARK VINA RESULT:      -5.1     10.462     10.961
REMARK  Name = NuBBE_949
REMARK  4 active torsions:
REMARK  status: ('A' for Active; 'I' for Inactive)
REMARK    1  A    between atoms: O_1  and  C_2
REMARK    2  A    between atoms: C_2  and  C_3
REMARK    3  A    between atoms: C_3  and  C_4
REMARK    4  A    between atoms: C_4  and  C_5
REMARK                            x       y       z     vdW  Elec       q    Type
REMARK                         _______ _______ _______ _____ _____    ______ ____
ROOT
ATOM      1  C   LIG A   1      -7.407  -2.428 125.057  0.00  0.00    +0.046 C 
ENDROOT
BRANCH   1   2
ATOM      2  C   LIG A   1      -7.754  -2.705 126.498  0.00  0.00    -0.047 A 
ATOM      3  C   LIG A   1      -7.132  -1.992 127.533  0.00  0.00    +0.003 A 
ATOM      4  C   LIG A   1      -7.439  -2.269 128.867  0.00  0.00    +0.000 A 
ATOM      5  C   LIG A   1      -8.373  -3.254 129.179  0.00  0.00    +0.000 A 
ATOM      6  C   LIG A   1      -9.006  -3.961 128.158  0.00  0.00    +0.000 A 
ATOM      7  C   LIG A   1      -8.701  -3.686 126.825  0.00  0.00    +0.003 A 
ENDBRANCH   1   2
BRANCH   1   8
ATOM      8  C   LIG A   1      -8.083  -3.397 124.089  0.00  0.00    +0.125 C 
BRANCH   8   9
ATOM      9  C   LIG A   1      -9.302  -2.769 123.472  0.00  0.00    +0.305 C 
ATOM     10  O   LIG A   1      -9.444  -1.607 123.127  0.00  0.00    -0.251 OA
BRANCH   9  11
ATOM     11  O   LIG A   1     -10.313  -3.647 123.329  0.00  0.00    -0.481 OA
ATOM     12  H   LIG A   1     -10.053  -4.187 122.552  0.00  0.00    +0.295 HD
ENDBRANCH   9  11
ENDBRANCH   8   9
ENDBRANCH   1   8
TORSDOF 4
ENDMDL
MODEL 8
REMARK VINA RESULT:      -5.0     10.653     10.995
REMARK  Name = NuBBE_949
REMARK  4 active torsions:
REMARK  status: ('A' for Active; 'I' for Inactive)
REMARK    1  A    between atoms: O_1  and  C_2
REMARK    2  A    between atoms: C_2  and  C_3
REMARK    3  A    between atoms: C_3  and  C_4
REMARK    4  A    between atoms: C_4  and  C_5
REMARK                            x       y       z     vdW  Elec       q    Type
REMARK                         _______ _______ _______ _____ _____    ______ ____
ROOT
ATOM      1  C   LIG A   1      -9.123  -3.216 125.975  0.00  0.00    +0.046 C 
ENDROOT
BRANCH   1   2
ATOM      2  C   LIG A   1      -8.257  -3.045 127.199  0.00  0.00    -0.047 A 
ATOM      3  C   LIG A   1      -8.659  -3.564 128.437  0.00  0.00    +0.003 A 
ATOM      4  C   LIG A   1      -7.866  -3.383 129.572  0.00  0.00    +0.000 A 
ATOM      5  C   LIG A   1      -6.662  -2.686 129.479  0.00  0.00    +0.000 A 
ATOM      6  C   LIG A   1      -6.247  -2.175 128.250  0.00  0.00    +0.000 A 
ATOM      7  C   LIG A   1      -7.038  -2.357 127.115  0.00  0.00    +0.003 A 
ENDBRANCH   1   2
BRANCH   1   8
ATOM      8  C   LIG A   1      -8.325  -3.623 124.738  0.00  0.00    +0.125 C 
BRANCH   8   9
ATOM      9  C   LIG A   1      -8.966  -3.082 123.490  0.00  0.00    +0.305 C 
ATOM     10  O   LIG A   1      -8.465  -2.338 122.662  0.00  0.00    -0.251 OA
BRANCH   9  11
ATOM     11  O   LIG A   1     -10.238  -3.498 123.346  0.00  0.00    -0.481 OA
ATOM     12  H   LIG A   1     -10.534  -3.686 124.262  0.00  0.00    +0.295 HD
ENDBRANCH   9  11
ENDBRANCH   8   9
ENDBRANCH   1   8
TORSDOF 4
ENDMDL
MODEL 9
REMARK VINA RESULT:      -5.0     12.708     13.491
REMARK  Name = NuBBE_949
REMARK  4 active torsions:
REMARK  status: ('A' for Active; 'I' for Inactive)
REMARK    1  A    between atoms: O_1  and  C_2
REMARK    2  A    between atoms: C_2  and  C_3
REMARK    3  A    between atoms: C_3  and  C_4
REMARK    4  A    between atoms: C_4  and  C_5
REMARK                            x       y       z     vdW  Elec       q    Type
REMARK                         _______ _______ _______ _____ _____    ______ ____
ROOT
ATOM      1  C   LIG A   1      -5.255  -2.743 123.310  0.00  0.00    +0.046 C 
ENDROOT
BRANCH   1   2
ATOM      2  C   LIG A   1      -6.754  -2.808 123.468  0.00  0.00    -0.047 A 
ATOM      3  C   LIG A   1      -7.590  -1.982 122.705  0.00  0.00    +0.003 A 
ATOM      4  C   LIG A   1      -8.976  -2.028 122.871  0.00  0.00    +0.000 A 
ATOM      5  C   LIG A   1      -9.539  -2.904 123.798  0.00  0.00    +0.000 A 
ATOM      6  C   LIG A   1      -8.718  -3.738 124.554  0.00  0.00    +0.000 A 
ATOM      7  C   LIG A   1      -7.333  -3.694 124.388  0.00  0.00    +0.003 A 
ENDBRANCH   1   2
BRANCH   1   8
ATOM      8  C   LIG A   1      -4.521  -3.716 124.231  0.00  0.00    +0.125 C 
BRANCH   8   9
ATOM      9  C   LIG A   1      -3.864  -4.809 123.434  0.00  0.00    +0.305 C 
ATOM     10  O   LIG A   1      -4.411  -5.667 122.760  0.00  0.00    -0.251 OA
BRANCH   9  11
ATOM     11  O   LIG A   1      -2.522  -4.781 123.536  0.00  0.00    -0.481 OA
ATOM     12  H   LIG A   1      -2.208  -5.076 122.655  0.00  0.00    +0.295 HD
ENDBRANCH   9  11
ENDBRANCH   8   9
ENDBRANCH   1   8
TORSDOF 4
ENDMDL
