MODEL 1
REMARK VINA RESULT:      -9.0      0.000      0.000
REMARK  Name = NuBBE_1728
REMARK  12 active torsions:
REMARK  status: ('A' for Active; 'I' for Inactive)
REMARK    1  A    between atoms: C_1  and  C_2
REMARK    2  A    between atoms: C_5  and  C_6
REMARK    3  A    between atoms: C_11  and  C_12
REMARK    4  A    between atoms: C_11  and  C_13
REMARK    5  A    between atoms: N_15  and  O_16
REMARK    6  A    between atoms: C_23  and  C_24
REMARK    7  A    between atoms: C_27  and  C_29
REMARK    8  A    between atoms: C_29  and  C_30
REMARK    9  A    between atoms: C_32  and  C_36
REMARK   10  A    between atoms: C_36  and  C_37
REMARK   11  A    between atoms: C_36  and  C_38
REMARK   12  A    between atoms: C_36  and  O_39
REMARK                            x       y       z     vdW  Elec       q    Type
REMARK                         _______ _______ _______ _____ _____    ______ ____
ROOT
ATOM      1  C   LIG A   1      -7.283  -0.674 131.008  0.00  0.00    +0.012 C 
ATOM      2  C   LIG A   1      -6.482  -1.993 131.224  0.00  0.00    -0.023 C 
ATOM      3  C   LIG A   1      -4.949  -1.738 131.448  0.00  0.00    +0.002 C 
ATOM      4  C   LIG A   1      -4.548  -0.945 132.765  0.00  0.00    -0.025 C 
ATOM      5  C   LIG A   1      -4.959   0.541 132.657  0.00  0.00    +0.012 C 
ATOM      6  C   LIG A   1      -5.185  -1.703 133.990  0.00  0.00    +0.006 C 
ATOM      7  C   LIG A   1      -6.707  -1.902 133.814  0.00  0.00    +0.005 C 
ATOM      8  C   LIG A   1      -7.050  -2.649 132.514  0.00  0.00    +0.008 C 
ATOM      9  C   LIG A   1      -4.756  -1.193 135.416  0.00  0.00    +0.010 C 
ATOM     10  C   LIG A   1      -5.311   0.187 135.806  0.00  0.00    +0.017 C 
ATOM     11  C   LIG A   1      -5.254  -2.192 136.494  0.00  0.00    +0.017 C 
ATOM     12  C   LIG A   1      -3.211  -1.116 135.462  0.00  0.00    +0.063 C 
ATOM     13  N   LIG A   1      -2.597  -1.497 136.556  0.00  0.00    -0.096 NA
ATOM     14  C   LIG A   1      -2.494  -0.486 134.282  0.00  0.00    +0.055 C 
ATOM     15  C   LIG A   1      -3.003  -1.025 132.949  0.00  0.00    +0.013 C 
ATOM     16  C   LIG A   1      -4.200  -1.297 130.165  0.00  0.00    +0.005 C 
ATOM     17  C   LIG A   1      -5.017  -1.207 128.878  0.00  0.00    +0.005 C 
ATOM     18  C   LIG A   1      -6.036  -2.327 128.653  0.00  0.00    +0.001 C 
ATOM     19  C   LIG A   1      -6.632  -2.966 129.957  0.00  0.00    -0.023 C 
ATOM     20  C   LIG A   1      -5.906  -4.335 130.146  0.00  0.00    +0.012 C 
ATOM     21  C   LIG A   1      -8.108  -3.305 129.596  0.00  0.00    +0.008 C 
ATOM     22  C   LIG A   1      -8.250  -3.056 128.097  0.00  0.00    +0.007 C 
ATOM     23  C   LIG A   1      -7.263  -1.922 127.796  0.00  0.00    +0.024 C 
ENDROOT
BRANCH  23  24
ATOM     24  C   LIG A   1      -7.038  -1.674 126.277  0.00  0.00    +0.070 C 
ATOM     25  C   LIG A   1      -5.824  -2.429 125.709  0.00  0.00    +0.042 C 
ATOM     26  O   LIG A   1      -8.196  -2.178 125.557  0.00  0.00    -0.367 OA
ATOM     27  C   LIG A   1      -8.658  -1.187 124.606  0.00  0.00    +0.150 C 
ATOM     28  C   LIG A   1      -7.556  -0.141 124.524  0.00  0.00    +0.037 C 
ATOM     29  C   LIG A   1      -6.980  -0.186 125.918  0.00  0.00    +0.037 C 
BRANCH  27  30
ATOM     30  C   LIG A   1      -9.011  -1.871 123.262  0.00  0.00    +0.086 C 
ATOM     31  C   LIG A   1      -7.786  -1.949 122.345  0.00  0.00    +0.043 C 
ATOM     32  C   LIG A   1      -9.598  -3.268 123.464  0.00  0.00    +0.043 C 
BRANCH  30  33
ATOM     33  O   LIG A   1      -9.998  -1.082 122.580  0.00  0.00    -0.387 OA
ATOM     34  H   LIG A   1      -9.492  -0.477 122.004  0.00  0.00    +0.210 HD
ENDBRANCH  30  33
ENDBRANCH  27  30
ENDBRANCH  23  24
BRANCH  13  35
ATOM     35  O   LIG A   1      -1.219  -1.300 136.492  0.00  0.00    -0.409 OA
ATOM     36  H   LIG A   1      -0.874  -2.185 136.715  0.00  0.00    +0.328 HD
ENDBRANCH  13  35
TORSDOF 4
ENDMDL
MODEL 2
REMARK VINA RESULT:      -8.9      5.046      9.294
REMARK  Name = NuBBE_1728
REMARK  12 active torsions:
REMARK  status: ('A' for Active; 'I' for Inactive)
REMARK    1  A    between atoms: C_1  and  C_2
REMARK    2  A    between atoms: C_5  and  C_6
REMARK    3  A    between atoms: C_11  and  C_12
REMARK    4  A    between atoms: C_11  and  C_13
REMARK    5  A    between atoms: N_15  and  O_16
REMARK    6  A    between atoms: C_23  and  C_24
REMARK    7  A    between atoms: C_27  and  C_29
REMARK    8  A    between atoms: C_29  and  C_30
REMARK    9  A    between atoms: C_32  and  C_36
REMARK   10  A    between atoms: C_36  and  C_37
REMARK   11  A    between atoms: C_36  and  C_38
REMARK   12  A    between atoms: C_36  and  O_39
REMARK                            x       y       z     vdW  Elec       q    Type
REMARK                         _______ _______ _______ _____ _____    ______ ____
ROOT
ATOM      1  C   LIG A   1      -5.306   0.435 129.153  0.00  0.00    +0.012 C 
ATOM      2  C   LIG A   1      -6.862   0.497 129.233  0.00  0.00    -0.023 C 
ATOM      3  C   LIG A   1      -7.512   1.040 127.910  0.00  0.00    +0.002 C 
ATOM      4  C   LIG A   1      -7.331   0.143 126.612  0.00  0.00    -0.025 C 
ATOM      5  C   LIG A   1      -5.868   0.184 126.117  0.00  0.00    +0.012 C 
ATOM      6  C   LIG A   1      -7.856  -1.302 126.953  0.00  0.00    +0.006 C 
ATOM      7  C   LIG A   1      -7.175  -1.877 128.216  0.00  0.00    +0.005 C 
ATOM      8  C   LIG A   1      -7.352  -0.964 129.440  0.00  0.00    +0.008 C 
ATOM      9  C   LIG A   1      -7.945  -2.307 125.746  0.00  0.00    +0.010 C 
ATOM     10  C   LIG A   1      -6.589  -2.782 125.196  0.00  0.00    +0.017 C 
ATOM     11  C   LIG A   1      -8.714  -3.580 126.189  0.00  0.00    +0.017 C 
ATOM     12  C   LIG A   1      -8.713  -1.619 124.593  0.00  0.00    +0.063 C 
ATOM     13  N   LIG A   1      -9.568  -2.329 123.898  0.00  0.00    -0.096 NA
ATOM     14  C   LIG A   1      -8.344  -0.188 124.247  0.00  0.00    +0.055 C 
ATOM     15  C   LIG A   1      -8.256   0.697 125.486  0.00  0.00    +0.013 C 
ATOM     16  C   LIG A   1      -7.296   2.559 127.692  0.00  0.00    +0.005 C 
ATOM     17  C   LIG A   1      -6.535   3.317 128.777  0.00  0.00    +0.005 C 
ATOM     18  C   LIG A   1      -6.869   2.935 130.221  0.00  0.00    +0.001 C 
ATOM     19  C   LIG A   1      -7.334   1.450 130.433  0.00  0.00    -0.023 C 
ATOM     20  C   LIG A   1      -8.885   1.497 130.605  0.00  0.00    +0.012 C 
ATOM     21  C   LIG A   1      -6.756   1.047 131.821  0.00  0.00    +0.008 C 
ATOM     22  C   LIG A   1      -6.182   2.321 132.433  0.00  0.00    +0.007 C 
ATOM     23  C   LIG A   1      -5.715   3.152 131.232  0.00  0.00    +0.024 C 
ENDROOT
BRANCH  23  24
ATOM     24  C   LIG A   1      -5.332   4.616 131.595  0.00  0.00    +0.070 C 
ATOM     25  C   LIG A   1      -4.525   4.730 132.899  0.00  0.00    +0.042 C 
ATOM     26  O   LIG A   1      -4.474   5.137 130.544  0.00  0.00    -0.367 OA
ATOM     27  C   LIG A   1      -4.938   6.446 130.129  0.00  0.00    +0.150 C 
ATOM     28  C   LIG A   1      -5.952   6.881 131.176  0.00  0.00    +0.037 C 
ATOM     29  C   LIG A   1      -6.539   5.560 131.610  0.00  0.00    +0.037 C 
BRANCH  27  30
ATOM     30  C   LIG A   1      -3.731   7.400 129.950  0.00  0.00    +0.086 C 
ATOM     31  C   LIG A   1      -3.278   7.973 131.297  0.00  0.00    +0.043 C 
ATOM     32  C   LIG A   1      -2.553   6.716 129.255  0.00  0.00    +0.043 C 
BRANCH  30  33
ATOM     33  O   LIG A   1      -4.129   8.511 129.132  0.00  0.00    -0.387 OA
ATOM     34  H   LIG A   1      -3.486   9.219 129.328  0.00  0.00    +0.210 HD
ENDBRANCH  30  33
ENDBRANCH  27  30
ENDBRANCH  23  24
BRANCH  13  35
ATOM     35  O   LIG A   1     -10.127  -1.611 122.843  0.00  0.00    -0.409 OA
ATOM     36  H   LIG A   1     -10.684  -2.284 122.407  0.00  0.00    +0.328 HD
ENDBRANCH  13  35
TORSDOF 4
ENDMDL
MODEL 3
REMARK VINA RESULT:      -8.9      5.359      7.068
REMARK  Name = NuBBE_1728
REMARK  12 active torsions:
REMARK  status: ('A' for Active; 'I' for Inactive)
REMARK    1  A    between atoms: C_1  and  C_2
REMARK    2  A    between atoms: C_5  and  C_6
REMARK    3  A    between atoms: C_11  and  C_12
REMARK    4  A    between atoms: C_11  and  C_13
REMARK    5  A    between atoms: N_15  and  O_16
REMARK    6  A    between atoms: C_23  and  C_24
REMARK    7  A    between atoms: C_27  and  C_29
REMARK    8  A    between atoms: C_29  and  C_30
REMARK    9  A    between atoms: C_32  and  C_36
REMARK   10  A    between atoms: C_36  and  C_37
REMARK   11  A    between atoms: C_36  and  C_38
REMARK   12  A    between atoms: C_36  and  O_39
REMARK                            x       y       z     vdW  Elec       q    Type
REMARK                         _______ _______ _______ _____ _____    ______ ____
ROOT
ATOM      1  C   LIG A   1      -8.108   0.592 129.139  0.00  0.00    +0.012 C 
ATOM      2  C   LIG A   1      -6.633   1.043 129.368  0.00  0.00    -0.023 C 
ATOM      3  C   LIG A   1      -6.119   0.709 130.814  0.00  0.00    +0.002 C 
ATOM      4  C   LIG A   1      -6.006  -0.831 131.188  0.00  0.00    -0.025 C 
ATOM      5  C   LIG A   1      -7.408  -1.460 131.352  0.00  0.00    +0.012 C 
ATOM      6  C   LIG A   1      -5.112  -1.524 130.091  0.00  0.00    +0.006 C 
ATOM      7  C   LIG A   1      -5.646  -1.259 128.665  0.00  0.00    +0.005 C 
ATOM      8  C   LIG A   1      -5.764   0.243 128.356  0.00  0.00    +0.008 C 
ATOM      9  C   LIG A   1      -4.713  -3.020 130.370  0.00  0.00    +0.010 C 
ATOM     10  C   LIG A   1      -5.868  -4.030 130.263  0.00  0.00    +0.017 C 
ATOM     11  C   LIG A   1      -3.636  -3.467 129.347  0.00  0.00    +0.017 C 
ATOM     12  C   LIG A   1      -4.131  -3.111 131.801  0.00  0.00    +0.063 C 
ATOM     13  N   LIG A   1      -3.092  -3.884 132.006  0.00  0.00    -0.096 NA
ATOM     14  C   LIG A   1      -4.870  -2.396 132.917  0.00  0.00    +0.055 C 
ATOM     15  C   LIG A   1      -5.237  -0.965 132.536  0.00  0.00    +0.013 C 
ATOM     16  C   LIG A   1      -6.739   1.606 131.915  0.00  0.00    +0.005 C 
ATOM     17  C   LIG A   1      -7.712   2.692 131.461  0.00  0.00    +0.005 C 
ATOM     18  C   LIG A   1      -7.329   3.444 130.185  0.00  0.00    +0.001 C 
ATOM     19  C   LIG A   1      -6.478   2.624 129.151  0.00  0.00    -0.023 C 
ATOM     20  C   LIG A   1      -5.007   3.123 129.300  0.00  0.00    +0.012 C 
ATOM     21  C   LIG A   1      -6.964   3.118 127.756  0.00  0.00    +0.008 C 
ATOM     22  C   LIG A   1      -7.886   4.305 128.019  0.00  0.00    +0.007 C 
ATOM     23  C   LIG A   1      -8.528   4.004 129.379  0.00  0.00    +0.024 C 
ENDROOT
BRANCH  23  24
ATOM     24  C   LIG A   1      -9.311   5.206 129.981  0.00  0.00    +0.070 C 
ATOM     25  C   LIG A   1      -8.404   6.242 130.668  0.00  0.00    +0.042 C 
ATOM     26  O   LIG A   1      -9.972   5.910 128.894  0.00  0.00    -0.367 OA
ATOM     27  C   LIG A   1     -11.359   6.157 129.235  0.00  0.00    +0.150 C 
ATOM     28  C   LIG A   1     -11.484   5.855 130.721  0.00  0.00    +0.037 C 
ATOM     29  C   LIG A   1     -10.451   4.771 130.907  0.00  0.00    +0.037 C 
BRANCH  27  30
ATOM     30  C   LIG A   1     -11.755   7.596 128.824  0.00  0.00    +0.086 C 
ATOM     31  C   LIG A   1     -10.575   8.327 128.173  0.00  0.00    +0.043 C 
ATOM     32  C   LIG A   1     -12.960   7.616 127.882  0.00  0.00    +0.043 C 
BRANCH  30  33
ATOM     33  O   LIG A   1     -12.113   8.338 129.999  0.00  0.00    -0.387 OA
ATOM     34  H   LIG A   1     -12.216   9.262 129.700  0.00  0.00    +0.210 HD
ENDBRANCH  30  33
ENDBRANCH  27  30
ENDBRANCH  23  24
BRANCH  13  35
ATOM     35  O   LIG A   1      -2.722  -3.937 133.348  0.00  0.00    -0.409 OA
ATOM     36  H   LIG A   1      -2.427  -3.021 133.517  0.00  0.00    +0.328 HD
ENDBRANCH  13  35
TORSDOF 4
ENDMDL
MODEL 4
REMARK VINA RESULT:      -8.7      3.264      9.358
REMARK  Name = NuBBE_1728
REMARK  12 active torsions:
REMARK  status: ('A' for Active; 'I' for Inactive)
REMARK    1  A    between atoms: C_1  and  C_2
REMARK    2  A    between atoms: C_5  and  C_6
REMARK    3  A    between atoms: C_11  and  C_12
REMARK    4  A    between atoms: C_11  and  C_13
REMARK    5  A    between atoms: N_15  and  O_16
REMARK    6  A    between atoms: C_23  and  C_24
REMARK    7  A    between atoms: C_27  and  C_29
REMARK    8  A    between atoms: C_29  and  C_30
REMARK    9  A    between atoms: C_32  and  C_36
REMARK   10  A    between atoms: C_36  and  C_37
REMARK   11  A    between atoms: C_36  and  C_38
REMARK   12  A    between atoms: C_36  and  O_39
REMARK                            x       y       z     vdW  Elec       q    Type
REMARK                         _______ _______ _______ _____ _____    ______ ____
ROOT
ATOM      1  C   LIG A   1      -5.283  -1.889 127.801  0.00  0.00    +0.012 C 
ATOM      2  C   LIG A   1      -6.791  -2.248 127.971  0.00  0.00    -0.023 C 
ATOM      3  C   LIG A   1      -7.739  -1.036 127.654  0.00  0.00    +0.002 C 
ATOM      4  C   LIG A   1      -7.740  -0.511 126.155  0.00  0.00    -0.025 C 
ATOM      5  C   LIG A   1      -6.415   0.213 125.826  0.00  0.00    +0.012 C 
ATOM      6  C   LIG A   1      -8.054  -1.740 125.220  0.00  0.00    +0.006 C 
ATOM      7  C   LIG A   1      -7.085  -2.917 125.474  0.00  0.00    +0.005 C 
ATOM      8  C   LIG A   1      -7.096  -3.374 126.942  0.00  0.00    +0.008 C 
ATOM      9  C   LIG A   1      -8.290  -1.408 123.700  0.00  0.00    +0.010 C 
ATOM     10  C   LIG A   1      -7.034  -0.967 122.930  0.00  0.00    +0.017 C 
ATOM     11  C   LIG A   1      -8.836  -2.666 122.975  0.00  0.00    +0.017 C 
ATOM     12  C   LIG A   1      -9.332  -0.267 123.606  0.00  0.00    +0.063 C 
ATOM     13  N   LIG A   1     -10.241  -0.326 122.663  0.00  0.00    -0.096 NA
ATOM     14  C   LIG A   1      -9.171   0.922 124.534  0.00  0.00    +0.055 C 
ATOM     15  C   LIG A   1      -8.917   0.494 125.976  0.00  0.00    +0.013 C 
ATOM     16  C   LIG A   1      -7.709   0.073 128.736  0.00  0.00    +0.005 C 
ATOM     17  C   LIG A   1      -6.818  -0.166 129.953  0.00  0.00    +0.005 C 
ATOM     18  C   LIG A   1      -6.822  -1.588 130.517  0.00  0.00    +0.001 C 
ATOM     19  C   LIG A   1      -7.099  -2.726 129.471  0.00  0.00    -0.023 C 
ATOM     20  C   LIG A   1      -8.581  -3.165 129.683  0.00  0.00    +0.012 C 
ATOM     21  C   LIG A   1      -6.221  -3.922 129.943  0.00  0.00    +0.008 C 
ATOM     22  C   LIG A   1      -5.654  -3.528 131.303  0.00  0.00    +0.007 C 
ATOM     23  C   LIG A   1      -5.513  -2.002 131.238  0.00  0.00    +0.024 C 
ENDROOT
BRANCH  23  24
ATOM     24  C   LIG A   1      -5.200  -1.343 132.612  0.00  0.00    +0.070 C 
ATOM     25  C   LIG A   1      -4.291  -2.202 133.507  0.00  0.00    +0.042 C 
ATOM     26  O   LIG A   1      -4.474  -0.108 132.370  0.00  0.00    -0.367 OA
ATOM     27  C   LIG A   1      -5.059   0.970 133.142  0.00  0.00    +0.150 C 
ATOM     28  C   LIG A   1      -6.006   0.309 134.133  0.00  0.00    +0.037 C 
ATOM     29  C   LIG A   1      -6.462  -0.907 133.364  0.00  0.00    +0.037 C 
BRANCH  27  30
ATOM     30  C   LIG A   1      -3.940   1.830 133.780  0.00  0.00    +0.086 C 
ATOM     31  C   LIG A   1      -3.197   2.644 132.716  0.00  0.00    +0.043 C 
ATOM     32  C   LIG A   1      -4.478   2.764 134.865  0.00  0.00    +0.043 C 
BRANCH  30  33
ATOM     33  O   LIG A   1      -2.976   0.963 134.396  0.00  0.00    -0.387 OA
ATOM     34  H   LIG A   1      -3.501   0.310 134.899  0.00  0.00    +0.210 HD
ENDBRANCH  30  33
ENDBRANCH  27  30
ENDBRANCH  23  24
BRANCH  13  35
ATOM     35  O   LIG A   1     -11.061   0.800 122.642  0.00  0.00    -0.409 OA
ATOM     36  H   LIG A   1     -10.570   1.402 122.051  0.00  0.00    +0.328 HD
ENDBRANCH  13  35
TORSDOF 4
ENDMDL
MODEL 5
REMARK VINA RESULT:      -8.7      5.875      7.836
REMARK  Name = NuBBE_1728
REMARK  12 active torsions:
REMARK  status: ('A' for Active; 'I' for Inactive)
REMARK    1  A    between atoms: C_1  and  C_2
REMARK    2  A    between atoms: C_5  and  C_6
REMARK    3  A    between atoms: C_11  and  C_12
REMARK    4  A    between atoms: C_11  and  C_13
REMARK    5  A    between atoms: N_15  and  O_16
REMARK    6  A    between atoms: C_23  and  C_24
REMARK    7  A    between atoms: C_27  and  C_29
REMARK    8  A    between atoms: C_29  and  C_30
REMARK    9  A    between atoms: C_32  and  C_36
REMARK   10  A    between atoms: C_36  and  C_37
REMARK   11  A    between atoms: C_36  and  C_38
REMARK   12  A    between atoms: C_36  and  O_39
REMARK                            x       y       z     vdW  Elec       q    Type
REMARK                         _______ _______ _______ _____ _____    ______ ____
ROOT
ATOM      1  C   LIG A   1      -3.197   4.364 132.229  0.00  0.00    +0.012 C 
ATOM      2  C   LIG A   1      -3.955   5.716 132.057  0.00  0.00    -0.023 C 
ATOM      3  C   LIG A   1      -5.477   5.604 132.426  0.00  0.00    +0.002 C 
ATOM      4  C   LIG A   1      -5.817   5.280 133.943  0.00  0.00    -0.025 C 
ATOM      5  C   LIG A   1      -5.446   3.820 134.288  0.00  0.00    +0.012 C 
ATOM      6  C   LIG A   1      -5.092   6.358 134.835  0.00  0.00    +0.006 C 
ATOM      7  C   LIG A   1      -3.579   6.431 134.530  0.00  0.00    +0.005 C 
ATOM      8  C   LIG A   1      -3.297   6.719 133.046  0.00  0.00    +0.008 C 
ATOM      9  C   LIG A   1      -5.447   6.337 136.367  0.00  0.00    +0.010 C 
ATOM     10  C   LIG A   1      -4.900   5.128 137.144  0.00  0.00    +0.017 C 
ATOM     11  C   LIG A   1      -4.864   7.603 137.050  0.00  0.00    +0.017 C 
ATOM     12  C   LIG A   1      -6.988   6.339 136.512  0.00  0.00    +0.063 C 
ATOM     13  N   LIG A   1      -7.527   7.068 137.459  0.00  0.00    -0.096 NA
ATOM     14  C   LIG A   1      -7.787   5.401 135.627  0.00  0.00    +0.055 C 
ATOM     15  C   LIG A   1      -7.346   5.474 134.168  0.00  0.00    +0.013 C 
ATOM     16  C   LIG A   1      -6.310   4.814 131.385  0.00  0.00    +0.005 C 
ATOM     17  C   LIG A   1      -5.573   4.294 130.153  0.00  0.00    +0.005 C 
ATOM     18  C   LIG A   1      -4.544   5.245 129.538  0.00  0.00    +0.001 C 
ATOM     19  C   LIG A   1      -3.858   6.236 130.543  0.00  0.00    -0.023 C 
ATOM     20  C   LIG A   1      -4.541   7.623 130.326  0.00  0.00    +0.012 C 
ATOM     21  C   LIG A   1      -2.399   6.386 130.021  0.00  0.00    +0.008 C 
ATOM     22  C   LIG A   1      -2.351   5.675 128.672  0.00  0.00    +0.007 C 
ATOM     23  C   LIG A   1      -3.380   4.544 128.792  0.00  0.00    +0.024 C 
ENDROOT
BRANCH  23  24
ATOM     24  C   LIG A   1      -3.699   3.842 127.441  0.00  0.00    +0.070 C 
ATOM     25  C   LIG A   1      -2.446   3.344 126.701  0.00  0.00    +0.042 C 
ATOM     26  O   LIG A   1      -4.498   2.660 127.718  0.00  0.00    -0.367 OA
ATOM     27  C   LIG A   1      -5.647   2.620 126.836  0.00  0.00    +0.150 C 
ATOM     28  C   LIG A   1      -5.388   3.668 125.765  0.00  0.00    +0.037 C 
ATOM     29  C   LIG A   1      -4.580   4.694 126.521  0.00  0.00    +0.037 C 
BRANCH  27  30
ATOM     30  C   LIG A   1      -5.854   1.180 126.305  0.00  0.00    +0.086 C 
ATOM     31  C   LIG A   1      -6.689   0.347 127.285  0.00  0.00    +0.043 C 
ATOM     32  C   LIG A   1      -6.507   1.163 124.923  0.00  0.00    +0.043 C 
BRANCH  30  33
ATOM     33  O   LIG A   1      -4.576   0.535 126.187  0.00  0.00    -0.387 OA
ATOM     34  H   LIG A   1      -4.698  -0.155 125.507  0.00  0.00    +0.210 HD
ENDBRANCH  30  33
ENDBRANCH  27  30
ENDBRANCH  23  24
BRANCH  13  35
ATOM     35  O   LIG A   1      -8.910   6.915 137.528  0.00  0.00    -0.409 OA
ATOM     36  H   LIG A   1      -9.003   6.122 138.090  0.00  0.00    +0.328 HD
ENDBRANCH  13  35
TORSDOF 4
ENDMDL
MODEL 6
REMARK VINA RESULT:      -8.6      3.832      8.833
REMARK  Name = NuBBE_1728
REMARK  12 active torsions:
REMARK  status: ('A' for Active; 'I' for Inactive)
REMARK    1  A    between atoms: C_1  and  C_2
REMARK    2  A    between atoms: C_5  and  C_6
REMARK    3  A    between atoms: C_11  and  C_12
REMARK    4  A    between atoms: C_11  and  C_13
REMARK    5  A    between atoms: N_15  and  O_16
REMARK    6  A    between atoms: C_23  and  C_24
REMARK    7  A    between atoms: C_27  and  C_29
REMARK    8  A    between atoms: C_29  and  C_30
REMARK    9  A    between atoms: C_32  and  C_36
REMARK   10  A    between atoms: C_36  and  C_37
REMARK   11  A    between atoms: C_36  and  C_38
REMARK   12  A    between atoms: C_36  and  O_39
REMARK                            x       y       z     vdW  Elec       q    Type
REMARK                         _______ _______ _______ _____ _____    ______ ____
ROOT
ATOM      1  C   LIG A   1      -4.647  -1.421 129.687  0.00  0.00    +0.012 C 
ATOM      2  C   LIG A   1      -6.077  -1.771 129.175  0.00  0.00    -0.023 C 
ATOM      3  C   LIG A   1      -7.070  -0.559 129.282  0.00  0.00    +0.002 C 
ATOM      4  C   LIG A   1      -6.746   0.704 128.375  0.00  0.00    -0.025 C 
ATOM      5  C   LIG A   1      -5.500   1.452 128.900  0.00  0.00    +0.012 C 
ATOM      6  C   LIG A   1      -6.618   0.203 126.887  0.00  0.00    +0.006 C 
ATOM      7  C   LIG A   1      -5.593  -0.946 126.755  0.00  0.00    +0.005 C 
ATOM      8  C   LIG A   1      -5.930  -2.136 127.670  0.00  0.00    +0.008 C 
ATOM      9  C   LIG A   1      -6.485   1.323 125.790  0.00  0.00    +0.010 C 
ATOM     10  C   LIG A   1      -5.146   2.080 125.795  0.00  0.00    +0.017 C 
ATOM     11  C   LIG A   1      -6.631   0.687 124.382  0.00  0.00    +0.017 C 
ATOM     12  C   LIG A   1      -7.617   2.355 126.007  0.00  0.00    +0.063 C 
ATOM     13  N   LIG A   1      -8.222   2.851 124.955  0.00  0.00    -0.096 NA
ATOM     14  C   LIG A   1      -7.883   2.833 127.423  0.00  0.00    +0.055 C 
ATOM     15  C   LIG A   1      -7.965   1.675 128.412  0.00  0.00    +0.013 C 
ATOM     16  C   LIG A   1      -7.491  -0.230 130.736  0.00  0.00    +0.005 C 
ATOM     17  C   LIG A   1      -6.933  -1.124 131.842  0.00  0.00    +0.005 C 
ATOM     18  C   LIG A   1      -6.882  -2.621 131.530  0.00  0.00    +0.001 C 
ATOM     19  C   LIG A   1      -6.702  -2.987 130.014  0.00  0.00    -0.023 C 
ATOM     20  C   LIG A   1      -8.108  -3.428 129.500  0.00  0.00    +0.012 C 
ATOM     21  C   LIG A   1      -5.819  -4.269 130.016  0.00  0.00    +0.008 C 
ATOM     22  C   LIG A   1      -5.699  -4.705 131.473  0.00  0.00    +0.007 C 
ATOM     23  C   LIG A   1      -5.768  -3.399 132.276  0.00  0.00    +0.024 C 
ENDROOT
BRANCH  23  24
ATOM     24  C   LIG A   1      -5.932  -3.615 133.807  0.00  0.00    +0.070 C 
ATOM     25  C   LIG A   1      -5.416  -2.435 134.648  0.00  0.00    +0.042 C 
ATOM     26  O   LIG A   1      -7.350  -3.728 134.103  0.00  0.00    -0.367 OA
ATOM     27  C   LIG A   1      -7.589  -4.879 134.952  0.00  0.00    +0.150 C 
ATOM     28  C   LIG A   1      -6.221  -5.324 135.446  0.00  0.00    +0.037 C 
ATOM     29  C   LIG A   1      -5.331  -4.939 134.290  0.00  0.00    +0.037 C 
BRANCH  27  30
ATOM     30  C   LIG A   1      -8.600  -4.511 136.066  0.00  0.00    +0.086 C 
ATOM     31  C   LIG A   1      -9.779  -5.490 136.085  0.00  0.00    +0.043 C 
ATOM     32  C   LIG A   1      -7.943  -4.463 137.446  0.00  0.00    +0.043 C 
BRANCH  30  33
ATOM     33  O   LIG A   1      -9.138  -3.207 135.799  0.00  0.00    -0.387 OA
ATOM     34  H   LIG A   1      -8.368  -2.607 135.785  0.00  0.00    +0.210 HD
ENDBRANCH  30  33
ENDBRANCH  27  30
ENDBRANCH  23  24
BRANCH  13  35
ATOM     35  O   LIG A   1      -9.161   3.825 125.289  0.00  0.00    -0.409 OA
ATOM     36  H   LIG A   1      -9.919   3.287 125.591  0.00  0.00    +0.328 HD
ENDBRANCH  13  35
TORSDOF 4
ENDMDL
MODEL 7
REMARK VINA RESULT:      -8.6      2.392      3.324
REMARK  Name = NuBBE_1728
REMARK  12 active torsions:
REMARK  status: ('A' for Active; 'I' for Inactive)
REMARK    1  A    between atoms: C_1  and  C_2
REMARK    2  A    between atoms: C_5  and  C_6
REMARK    3  A    between atoms: C_11  and  C_12
REMARK    4  A    between atoms: C_11  and  C_13
REMARK    5  A    between atoms: N_15  and  O_16
REMARK    6  A    between atoms: C_23  and  C_24
REMARK    7  A    between atoms: C_27  and  C_29
REMARK    8  A    between atoms: C_29  and  C_30
REMARK    9  A    between atoms: C_32  and  C_36
REMARK   10  A    between atoms: C_36  and  C_37
REMARK   11  A    between atoms: C_36  and  C_38
REMARK   12  A    between atoms: C_36  and  O_39
REMARK                            x       y       z     vdW  Elec       q    Type
REMARK                         _______ _______ _______ _____ _____    ______ ____
ROOT
ATOM      1  C   LIG A   1      -7.684  -1.994 130.550  0.00  0.00    +0.012 C 
ATOM      2  C   LIG A   1      -6.365  -2.413 129.834  0.00  0.00    -0.023 C 
ATOM      3  C   LIG A   1      -5.105  -1.673 130.410  0.00  0.00    +0.002 C 
ATOM      4  C   LIG A   1      -4.723  -1.995 131.918  0.00  0.00    -0.025 C 
ATOM      5  C   LIG A   1      -5.751  -1.372 132.889  0.00  0.00    +0.012 C 
ATOM      6  C   LIG A   1      -4.576  -3.558 132.050  0.00  0.00    +0.006 C 
ATOM      7  C   LIG A   1      -5.837  -4.297 131.548  0.00  0.00    +0.005 C 
ATOM      8  C   LIG A   1      -6.185  -3.936 130.095  0.00  0.00    +0.008 C 
ATOM      9  C   LIG A   1      -4.014  -4.085 133.422  0.00  0.00    +0.010 C 
ATOM     10  C   LIG A   1      -4.974  -3.937 134.615  0.00  0.00    +0.017 C 
ATOM     11  C   LIG A   1      -3.688  -5.597 133.300  0.00  0.00    +0.017 C 
ATOM     12  C   LIG A   1      -2.720  -3.305 133.752  0.00  0.00    +0.063 C 
ATOM     13  N   LIG A   1      -1.711  -3.958 134.275  0.00  0.00    -0.096 NA
ATOM     14  C   LIG A   1      -2.729  -1.799 133.567  0.00  0.00    +0.055 C 
ATOM     15  C   LIG A   1      -3.319  -1.390 132.220  0.00  0.00    +0.013 C 
ATOM     16  C   LIG A   1      -5.035  -0.175 130.023  0.00  0.00    +0.005 C 
ATOM     17  C   LIG A   1      -6.147   0.365 129.125  0.00  0.00    +0.005 C 
ATOM     18  C   LIG A   1      -6.593  -0.555 127.987  0.00  0.00    +0.001 C 
ATOM     19  C   LIG A   1      -6.440  -2.092 128.264  0.00  0.00    -0.023 C 
ATOM     20  C   LIG A   1      -5.171  -2.555 127.482  0.00  0.00    +0.012 C 
ATOM     21  C   LIG A   1      -7.655  -2.749 127.546  0.00  0.00    +0.008 C 
ATOM     22  C   LIG A   1      -8.324  -1.643 126.735  0.00  0.00    +0.007 C 
ATOM     23  C   LIG A   1      -8.065  -0.362 127.539  0.00  0.00    +0.024 C 
ENDROOT
BRANCH  23  24
ATOM     24  C   LIG A   1      -8.427   0.941 126.772  0.00  0.00    +0.070 C 
ATOM     25  C   LIG A   1      -8.610   2.160 127.692  0.00  0.00    +0.042 C 
ATOM     26  O   LIG A   1      -7.323   1.270 125.885  0.00  0.00    -0.367 OA
ATOM     27  C   LIG A   1      -7.825   1.568 124.558  0.00  0.00    +0.150 C 
ATOM     28  C   LIG A   1      -9.331   1.718 124.705  0.00  0.00    +0.037 C 
ATOM     29  C   LIG A   1      -9.630   0.769 125.840  0.00  0.00    +0.037 C 
BRANCH  27  30
ATOM     30  C   LIG A   1      -7.096   2.808 123.985  0.00  0.00    +0.086 C 
ATOM     31  C   LIG A   1      -5.880   3.177 124.841  0.00  0.00    +0.043 C 
ATOM     32  C   LIG A   1      -6.664   2.602 122.532  0.00  0.00    +0.043 C 
BRANCH  30  33
ATOM     33  O   LIG A   1      -7.988   3.932 124.014  0.00  0.00    -0.387 OA
ATOM     34  H   LIG A   1      -7.427   4.711 123.837  0.00  0.00    +0.210 HD
ENDBRANCH  30  33
ENDBRANCH  27  30
ENDBRANCH  23  24
BRANCH  13  35
ATOM     35  O   LIG A   1      -0.642  -3.124 134.596  0.00  0.00    -0.409 OA
ATOM     36  H   LIG A   1      -0.924  -2.271 134.213  0.00  0.00    +0.328 HD
ENDBRANCH  13  35
TORSDOF 4
ENDMDL
MODEL 8
REMARK VINA RESULT:      -8.6      5.748     10.666
REMARK  Name = NuBBE_1728
REMARK  12 active torsions:
REMARK  status: ('A' for Active; 'I' for Inactive)
REMARK    1  A    between atoms: C_1  and  C_2
REMARK    2  A    between atoms: C_5  and  C_6
REMARK    3  A    between atoms: C_11  and  C_12
REMARK    4  A    between atoms: C_11  and  C_13
REMARK    5  A    between atoms: N_15  and  O_16
REMARK    6  A    between atoms: C_23  and  C_24
REMARK    7  A    between atoms: C_27  and  C_29
REMARK    8  A    between atoms: C_29  and  C_30
REMARK    9  A    between atoms: C_32  and  C_36
REMARK   10  A    between atoms: C_36  and  C_37
REMARK   11  A    between atoms: C_36  and  C_38
REMARK   12  A    between atoms: C_36  and  O_39
REMARK                            x       y       z     vdW  Elec       q    Type
REMARK                         _______ _______ _______ _____ _____    ______ ____
ROOT
ATOM      1  C   LIG A   1      -6.067   4.211 127.987  0.00  0.00    +0.012 C 
ATOM      2  C   LIG A   1      -4.859   3.424 127.395  0.00  0.00    -0.023 C 
ATOM      3  C   LIG A   1      -4.902   1.895 127.751  0.00  0.00    +0.002 C 
ATOM      4  C   LIG A   1      -6.110   1.060 127.143  0.00  0.00    -0.025 C 
ATOM      5  C   LIG A   1      -7.440   1.439 127.833  0.00  0.00    +0.012 C 
ATOM      6  C   LIG A   1      -6.105   1.282 125.584  0.00  0.00    +0.006 C 
ATOM      7  C   LIG A   1      -6.130   2.783 125.217  0.00  0.00    +0.005 C 
ATOM      8  C   LIG A   1      -4.960   3.557 125.849  0.00  0.00    +0.008 C 
ATOM      9  C   LIG A   1      -7.106   0.394 124.757  0.00  0.00    +0.010 C 
ATOM     10  C   LIG A   1      -8.592   0.748 124.941  0.00  0.00    +0.017 C 
ATOM     11  C   LIG A   1      -6.800   0.540 123.243  0.00  0.00    +0.017 C 
ATOM     12  C   LIG A   1      -6.913  -1.082 125.180  0.00  0.00    +0.063 C 
ATOM     13  N   LIG A   1      -6.952  -2.009 124.254  0.00  0.00    -0.096 NA
ATOM     14  C   LIG A   1      -6.811  -1.390 126.662  0.00  0.00    +0.055 C 
ATOM     15  C   LIG A   1      -5.839  -0.457 127.376  0.00  0.00    +0.013 C 
ATOM     16  C   LIG A   1      -4.583   1.596 129.238  0.00  0.00    +0.005 C 
ATOM     17  C   LIG A   1      -4.239   2.787 130.129  0.00  0.00    +0.005 C 
ATOM     18  C   LIG A   1      -3.343   3.857 129.501  0.00  0.00    +0.001 C 
ATOM     19  C   LIG A   1      -3.470   4.011 127.944  0.00  0.00    -0.023 C 
ATOM     20  C   LIG A   1      -2.221   3.305 127.330  0.00  0.00    +0.012 C 
ATOM     21  C   LIG A   1      -3.282   5.533 127.677  0.00  0.00    +0.008 C 
ATOM     22  C   LIG A   1      -2.860   6.152 129.007  0.00  0.00    +0.007 C 
ATOM     23  C   LIG A   1      -3.541   5.284 130.073  0.00  0.00    +0.024 C 
ENDROOT
BRANCH  23  24
ATOM     24  C   LIG A   1      -3.043   5.563 131.519  0.00  0.00    +0.070 C 
ATOM     25  C   LIG A   1      -1.968   4.572 131.997  0.00  0.00    +0.042 C 
ATOM     26  O   LIG A   1      -2.417   6.875 131.540  0.00  0.00    -0.367 OA
ATOM     27  C   LIG A   1      -2.917   7.645 132.661  0.00  0.00    +0.150 C 
ATOM     28  C   LIG A   1      -3.666   6.659 133.545  0.00  0.00    +0.037 C 
ATOM     29  C   LIG A   1      -4.186   5.667 132.533  0.00  0.00    +0.037 C 
BRANCH  27  30
ATOM     30  C   LIG A   1      -1.749   8.388 133.354  0.00  0.00    +0.086 C 
ATOM     31  C   LIG A   1      -0.397   7.800 132.936  0.00  0.00    +0.043 C 
ATOM     32  C   LIG A   1      -1.771   9.890 133.068  0.00  0.00    +0.043 C 
BRANCH  30  33
ATOM     33  O   LIG A   1      -1.861   8.217 134.775  0.00  0.00    -0.387 OA
ATOM     34  H   LIG A   1      -1.739   7.260 134.930  0.00  0.00    +0.210 HD
ENDBRANCH  30  33
ENDBRANCH  27  30
ENDBRANCH  23  24
BRANCH  13  35
ATOM     35  O   LIG A   1      -6.846  -3.295 124.780  0.00  0.00    -0.409 OA
ATOM     36  H   LIG A   1      -5.887  -3.368 124.953  0.00  0.00    +0.328 HD
ENDBRANCH  13  35
TORSDOF 4
ENDMDL
MODEL 9
REMARK VINA RESULT:      -8.6      5.884      7.135
REMARK  Name = NuBBE_1728
REMARK  12 active torsions:
REMARK  status: ('A' for Active; 'I' for Inactive)
REMARK    1  A    between atoms: C_1  and  C_2
REMARK    2  A    between atoms: C_5  and  C_6
REMARK    3  A    between atoms: C_11  and  C_12
REMARK    4  A    between atoms: C_11  and  C_13
REMARK    5  A    between atoms: N_15  and  O_16
REMARK    6  A    between atoms: C_23  and  C_24
REMARK    7  A    between atoms: C_27  and  C_29
REMARK    8  A    between atoms: C_29  and  C_30
REMARK    9  A    between atoms: C_32  and  C_36
REMARK   10  A    between atoms: C_36  and  C_37
REMARK   11  A    between atoms: C_36  and  C_38
REMARK   12  A    between atoms: C_36  and  O_39
REMARK                            x       y       z     vdW  Elec       q    Type
REMARK                         _______ _______ _______ _____ _____    ______ ____
ROOT
ATOM      1  C   LIG A   1      -5.289   6.367 130.706  0.00  0.00    +0.012 C 
ATOM      2  C   LIG A   1      -4.518   5.151 131.304  0.00  0.00    -0.023 C 
ATOM      3  C   LIG A   1      -2.961   5.350 131.274  0.00  0.00    +0.002 C 
ATOM      4  C   LIG A   1      -2.378   6.523 132.172  0.00  0.00    -0.025 C 
ATOM      5  C   LIG A   1      -2.742   7.902 131.576  0.00  0.00    +0.012 C 
ATOM      6  C   LIG A   1      -2.895   6.299 133.643  0.00  0.00    +0.006 C 
ATOM      7  C   LIG A   1      -4.434   6.170 133.697  0.00  0.00    +0.005 C 
ATOM      8  C   LIG A   1      -4.956   5.040 132.793  0.00  0.00    +0.008 C 
ATOM      9  C   LIG A   1      -2.283   7.245 134.741  0.00  0.00    +0.010 C 
ATOM     10  C   LIG A   1      -2.736   8.713 134.659  0.00  0.00    +0.017 C 
ATOM     11  C   LIG A   1      -2.689   6.733 136.149  0.00  0.00    +0.017 C 
ATOM     12  C   LIG A   1      -0.742   7.214 134.608  0.00  0.00    +0.063 C 
ATOM     13  N   LIG A   1      -0.019   7.197 135.702  0.00  0.00    -0.096 NA
ATOM     14  C   LIG A   1      -0.145   7.328 133.217  0.00  0.00    +0.055 C 
ATOM     15  C   LIG A   1      -0.826   6.394 132.223  0.00  0.00    +0.013 C 
ATOM     16  C   LIG A   1      -2.352   5.249 129.853  0.00  0.00    +0.005 C 
ATOM     17  C   LIG A   1      -3.310   4.941 128.704  0.00  0.00    +0.005 C 
ATOM     18  C   LIG A   1      -4.390   3.897 128.996  0.00  0.00    +0.001 C 
ATOM     19  C   LIG A   1      -4.853   3.808 130.493  0.00  0.00    -0.023 C 
ATOM     20  C   LIG A   1      -4.163   2.543 131.091  0.00  0.00    +0.012 C 
ATOM     21  C   LIG A   1      -6.373   3.479 130.421  0.00  0.00    +0.008 C 
ATOM     22  C   LIG A   1      -6.681   3.192 128.955  0.00  0.00    +0.007 C 
ATOM     23  C   LIG A   1      -5.692   4.067 128.172  0.00  0.00    +0.024 C 
ENDROOT
BRANCH  23  24
ATOM     24  C   LIG A   1      -5.639   3.743 126.652  0.00  0.00    +0.070 C 
ATOM     25  C   LIG A   1      -4.647   2.620 126.302  0.00  0.00    +0.042 C 
ATOM     26  O   LIG A   1      -6.948   3.264 126.241  0.00  0.00    -0.367 OA
ATOM     27  C   LIG A   1      -7.371   3.950 125.036  0.00  0.00    +0.150 C 
ATOM     28  C   LIG A   1      -6.138   4.672 124.512  0.00  0.00    +0.037 C 
ATOM     29  C   LIG A   1      -5.394   4.983 125.787  0.00  0.00    +0.037 C 
BRANCH  27  30
ATOM     30  C   LIG A   1      -8.006   2.940 124.050  0.00  0.00    +0.086 C 
ATOM     31  C   LIG A   1      -6.969   1.924 123.558  0.00  0.00    +0.043 C 
ATOM     32  C   LIG A   1      -9.199   2.206 124.665  0.00  0.00    +0.043 C 
BRANCH  30  33
ATOM     33  O   LIG A   1      -8.483   3.647 122.896  0.00  0.00    -0.387 OA
ATOM     34  H   LIG A   1      -9.086   3.026 122.443  0.00  0.00    +0.210 HD
ENDBRANCH  30  33
ENDBRANCH  27  30
ENDBRANCH  23  24
BRANCH  13  35
ATOM     35  O   LIG A   1       1.349   7.252 135.439  0.00  0.00    -0.409 OA
ATOM     36  H   LIG A   1       1.520   8.213 135.436  0.00  0.00    +0.328 HD
ENDBRANCH  13  35
TORSDOF 4
ENDMDL
