MODEL 1
REMARK VINA RESULT:      -7.8      0.000      0.000
REMARK  Name = NuBBE_1548
REMARK  10 active torsions:
REMARK  status: ('A' for Active; 'I' for Inactive)
REMARK    1  A    between atoms: C_1  and  C_2
REMARK    2  A    between atoms: C_12  and  O_14
REMARK    3  A    between atoms: O_14  and  C_15
REMARK    4  A    between atoms: C_15  and  C_16
REMARK    5  A    between atoms: C_18  and  O_20
REMARK    6  A    between atoms: O_20  and  C_21
REMARK    7  A    between atoms: C_21  and  C_22
REMARK    8  A    between atoms: C_27  and  C_28
REMARK    9  A    between atoms: C_29  and  C_31
REMARK   10  A    between atoms: C_31  and  C_32
REMARK                            x       y       z     vdW  Elec       q    Type
REMARK                         _______ _______ _______ _____ _____    ______ ____
ROOT
ATOM      1  C   LIG A   1      -8.987  -2.328 124.052  0.00  0.00    +0.012 C 
ATOM      2  C   LIG A   1      -8.266  -1.585 125.232  0.00  0.00    -0.023 C 
ATOM      3  C   LIG A   1      -7.756  -2.756 126.198  0.00  0.00    -0.001 C 
ATOM      4  C   LIG A   1      -6.289  -2.711 126.694  0.00  0.00    -0.003 C 
ATOM      5  C   LIG A   1      -5.258  -2.266 125.635  0.00  0.00    +0.004 C 
ATOM      6  C   LIG A   1      -5.857  -1.714 124.350  0.00  0.00    +0.004 C 
ATOM      7  C   LIG A   1      -7.058  -0.803 124.615  0.00  0.00    -0.001 C 
ATOM      8  C   LIG A   1      -6.597   0.454 125.382  0.00  0.00    +0.052 C 
ATOM      9  C   LIG A   1      -7.658   1.099 126.263  0.00  0.00    +0.217 C 
ATOM     10  C   LIG A   1      -9.052   0.904 125.668  0.00  0.00    +0.217 C 
ATOM     11  C   LIG A   1      -9.369  -0.602 125.786  0.00  0.00    +0.055 C 
ATOM     12  C   LIG A   1      -6.069  -2.036 128.077  0.00  0.00    +0.006 C 
ATOM     13  C   LIG A   1      -7.145  -2.409 129.156  0.00  0.00    -0.019 C 
ATOM     14  C   LIG A   1      -8.058  -1.212 129.474  0.00  0.00    +0.012 C 
ATOM     15  C   LIG A   1      -6.359  -2.858 130.439  0.00  0.00    +0.061 C 
ATOM     16  C   LIG A   1      -5.052  -3.289 129.834  0.00  0.00    +0.137 C 
ATOM     17  C   LIG A   1      -4.697  -2.464 128.639  0.00  0.00    +0.079 C 
ATOM     18  O   LIG A   1      -4.318  -4.145 130.313  0.00  0.00    -0.297 OA
ATOM     19  C   LIG A   1      -8.024  -3.580 128.637  0.00  0.00    +0.008 C 
ATOM     20  C   LIG A   1      -8.715  -3.278 127.296  0.00  0.00    +0.005 C 
ENDROOT
BRANCH  15  21
ATOM     21  C   LIG A   1      -6.080  -1.754 131.478  0.00  0.00    +0.008 C 
ATOM     22  C   LIG A   1      -6.638  -2.058 132.863  0.00  0.00    +0.004 C 
ENDBRANCH  15  21
BRANCH   9  23
ATOM     23  O   LIG A   1      -7.333   2.485 126.454  0.00  0.00    -0.458 OA
BRANCH  23  24
ATOM     24  C   LIG A   1      -7.631   2.980 127.689  0.00  0.00    +0.304 C 
ATOM     25  C   LIG A   1      -6.912   2.207 128.749  0.00  0.00    +0.136 C 
ATOM     26  O   LIG A   1      -8.412   3.893 127.920  0.00  0.00    -0.251 OA
ENDBRANCH  23  24
ENDBRANCH   9  23
BRANCH  10  27
ATOM     27  O   LIG A   1      -9.129   1.273 124.274  0.00  0.00    -0.458 OA
BRANCH  27  28
ATOM     28  C   LIG A   1     -10.324   1.111 123.650  0.00  0.00    +0.304 C 
ATOM     29  C   LIG A   1     -10.125   0.559 122.270  0.00  0.00    +0.136 C 
ATOM     30  O   LIG A   1     -11.425   1.341 124.136  0.00  0.00    -0.251 OA
ENDBRANCH  27  28
ENDBRANCH  10  27
TORSDOF 5
ENDMDL
MODEL 2
REMARK VINA RESULT:      -7.5      2.277      6.297
REMARK  Name = NuBBE_1548
REMARK  10 active torsions:
REMARK  status: ('A' for Active; 'I' for Inactive)
REMARK    1  A    between atoms: C_1  and  C_2
REMARK    2  A    between atoms: C_12  and  O_14
REMARK    3  A    between atoms: O_14  and  C_15
REMARK    4  A    between atoms: C_15  and  C_16
REMARK    5  A    between atoms: C_18  and  O_20
REMARK    6  A    between atoms: O_20  and  C_21
REMARK    7  A    between atoms: C_21  and  C_22
REMARK    8  A    between atoms: C_27  and  C_28
REMARK    9  A    between atoms: C_29  and  C_31
REMARK   10  A    between atoms: C_31  and  C_32
REMARK                            x       y       z     vdW  Elec       q    Type
REMARK                         _______ _______ _______ _____ _____    ______ ____
ROOT
ATOM      1  C   LIG A   1      -4.366  -2.314 129.377  0.00  0.00    +0.012 C 
ATOM      2  C   LIG A   1      -5.660  -1.572 128.884  0.00  0.00    -0.023 C 
ATOM      3  C   LIG A   1      -5.962  -2.198 127.441  0.00  0.00    -0.001 C 
ATOM      4  C   LIG A   1      -7.408  -2.663 127.132  0.00  0.00    -0.003 C 
ATOM      5  C   LIG A   1      -8.125  -3.375 128.299  0.00  0.00    +0.004 C 
ATOM      6  C   LIG A   1      -7.403  -3.301 129.636  0.00  0.00    +0.004 C 
ATOM      7  C   LIG A   1      -6.803  -1.917 129.896  0.00  0.00    -0.001 C 
ATOM      8  C   LIG A   1      -7.935  -0.877 130.025  0.00  0.00    +0.052 C 
ATOM      9  C   LIG A   1      -7.554   0.545 129.637  0.00  0.00    +0.217 C 
ATOM     10  C   LIG A   1      -6.082   0.816 129.942  0.00  0.00    +0.217 C 
ATOM     11  C   LIG A   1      -5.266  -0.045 128.955  0.00  0.00    +0.055 C 
ATOM     12  C   LIG A   1      -8.308  -1.618 126.413  0.00  0.00    +0.006 C 
ATOM     13  C   LIG A   1      -7.586  -0.823 125.270  0.00  0.00    -0.019 C 
ATOM     14  C   LIG A   1      -7.362   0.648 125.666  0.00  0.00    +0.012 C 
ATOM     15  C   LIG A   1      -8.508  -0.917 124.003  0.00  0.00    +0.061 C 
ATOM     16  C   LIG A   1      -9.274  -2.174 124.303  0.00  0.00    +0.137 C 
ATOM     17  C   LIG A   1      -9.510  -2.342 125.770  0.00  0.00    +0.079 C 
ATOM     18  O   LIG A   1      -9.734  -2.924 123.450  0.00  0.00    -0.297 OA
ATOM     19  C   LIG A   1      -6.207  -1.471 124.970  0.00  0.00    +0.008 C 
ATOM     20  C   LIG A   1      -5.290  -1.558 126.202  0.00  0.00    +0.005 C 
ENDROOT
BRANCH  15  21
ATOM     21  C   LIG A   1      -9.513   0.238 123.815  0.00  0.00    +0.008 C 
ATOM     22  C   LIG A   1     -10.096   0.322 122.409  0.00  0.00    +0.004 C 
ENDBRANCH  15  21
BRANCH   9  23
ATOM     23  O   LIG A   1      -8.431   1.467 130.303  0.00  0.00    -0.458 OA
BRANCH  23  24
ATOM     24  C   LIG A   1      -8.950   2.444 129.506  0.00  0.00    +0.304 C 
ATOM     25  C   LIG A   1      -9.577   3.517 130.337  0.00  0.00    +0.136 C 
ATOM     26  O   LIG A   1      -8.954   2.437 128.282  0.00  0.00    -0.251 OA
ENDBRANCH  23  24
ENDBRANCH   9  23
BRANCH  10  27
ATOM     27  O   LIG A   1      -5.705   0.443 131.285  0.00  0.00    -0.458 OA
BRANCH  27  28
ATOM     28  C   LIG A   1      -4.488   0.853 131.729  0.00  0.00    +0.304 C 
ATOM     29  C   LIG A   1      -3.776  -0.271 132.419  0.00  0.00    +0.136 C 
ATOM     30  O   LIG A   1      -4.003   1.967 131.568  0.00  0.00    -0.251 OA
ENDBRANCH  27  28
ENDBRANCH  10  27
TORSDOF 5
ENDMDL
MODEL 3
REMARK VINA RESULT:      -7.3      2.384      6.251
REMARK  Name = NuBBE_1548
REMARK  10 active torsions:
REMARK  status: ('A' for Active; 'I' for Inactive)
REMARK    1  A    between atoms: C_1  and  C_2
REMARK    2  A    between atoms: C_12  and  O_14
REMARK    3  A    between atoms: O_14  and  C_15
REMARK    4  A    between atoms: C_15  and  C_16
REMARK    5  A    between atoms: C_18  and  O_20
REMARK    6  A    between atoms: O_20  and  C_21
REMARK    7  A    between atoms: C_21  and  C_22
REMARK    8  A    between atoms: C_27  and  C_28
REMARK    9  A    between atoms: C_29  and  C_31
REMARK   10  A    between atoms: C_31  and  C_32
REMARK                            x       y       z     vdW  Elec       q    Type
REMARK                         _______ _______ _______ _____ _____    ______ ____
ROOT
ATOM      1  C   LIG A   1      -7.293   3.788 127.978  0.00  0.00    +0.012 C 
ATOM      2  C   LIG A   1      -7.287   2.224 127.836  0.00  0.00    -0.023 C 
ATOM      3  C   LIG A   1      -7.228   1.961 126.256  0.00  0.00    -0.001 C 
ATOM      4  C   LIG A   1      -6.190   0.942 125.721  0.00  0.00    -0.003 C 
ATOM      5  C   LIG A   1      -4.810   0.997 126.410  0.00  0.00    +0.004 C 
ATOM      6  C   LIG A   1      -4.750   1.867 127.657  0.00  0.00    +0.004 C 
ATOM      7  C   LIG A   1      -5.989   1.702 128.539  0.00  0.00    -0.001 C 
ATOM      8  C   LIG A   1      -6.047   0.262 129.091  0.00  0.00    +0.052 C 
ATOM      9  C   LIG A   1      -7.444  -0.255 129.407  0.00  0.00    +0.217 C 
ATOM     10  C   LIG A   1      -8.358   0.886 129.852  0.00  0.00    +0.217 C 
ATOM     11  C   LIG A   1      -8.586   1.772 128.608  0.00  0.00    +0.055 C 
ATOM     12  C   LIG A   1      -6.715  -0.509 125.528  0.00  0.00    +0.006 C 
ATOM     13  C   LIG A   1      -8.149  -0.598 124.898  0.00  0.00    -0.019 C 
ATOM     14  C   LIG A   1      -9.184  -1.084 125.929  0.00  0.00    +0.012 C 
ATOM     15  C   LIG A   1      -8.053  -1.605 123.698  0.00  0.00    +0.061 C 
ATOM     16  C   LIG A   1      -6.590  -1.511 123.366  0.00  0.00    +0.137 C 
ATOM     17  C   LIG A   1      -5.760  -1.272 124.586  0.00  0.00    +0.079 C 
ATOM     18  O   LIG A   1      -6.121  -1.700 122.250  0.00  0.00    -0.297 OA
ATOM     19  C   LIG A   1      -8.583   0.802 124.382  0.00  0.00    +0.008 C 
ATOM     20  C   LIG A   1      -8.559   1.890 125.469  0.00  0.00    +0.005 C 
ENDROOT
BRANCH  15  21
ATOM     21  C   LIG A   1      -8.389  -3.074 124.023  0.00  0.00    +0.008 C 
ATOM     22  C   LIG A   1      -9.692  -3.559 123.397  0.00  0.00    +0.004 C 
ENDBRANCH  15  21
BRANCH   9  23
ATOM     23  O   LIG A   1      -7.350  -1.297 130.390  0.00  0.00    -0.458 OA
BRANCH  23  24
ATOM     24  C   LIG A   1      -7.092  -2.538 129.889  0.00  0.00    +0.304 C 
ATOM     25  C   LIG A   1      -8.259  -3.033 129.095  0.00  0.00    +0.136 C 
ATOM     26  O   LIG A   1      -6.077  -3.190 130.090  0.00  0.00    -0.251 OA
ENDBRANCH  23  24
ENDBRANCH   9  23
BRANCH  10  27
ATOM     27  O   LIG A   1      -7.776   1.706 130.889  0.00  0.00    -0.458 OA
BRANCH  27  28
ATOM     28  C   LIG A   1      -8.281   1.578 132.142  0.00  0.00    +0.304 C 
ATOM     29  C   LIG A   1      -9.686   2.096 132.198  0.00  0.00    +0.136 C 
ATOM     30  O   LIG A   1      -7.703   1.080 133.102  0.00  0.00    -0.251 OA
ENDBRANCH  27  28
ENDBRANCH  10  27
TORSDOF 5
ENDMDL
MODEL 4
REMARK VINA RESULT:      -7.0      2.115      2.681
REMARK  Name = NuBBE_1548
REMARK  10 active torsions:
REMARK  status: ('A' for Active; 'I' for Inactive)
REMARK    1  A    between atoms: C_1  and  C_2
REMARK    2  A    between atoms: C_12  and  O_14
REMARK    3  A    between atoms: O_14  and  C_15
REMARK    4  A    between atoms: C_15  and  C_16
REMARK    5  A    between atoms: C_18  and  O_20
REMARK    6  A    between atoms: O_20  and  C_21
REMARK    7  A    between atoms: C_21  and  C_22
REMARK    8  A    between atoms: C_27  and  C_28
REMARK    9  A    between atoms: C_29  and  C_31
REMARK   10  A    between atoms: C_31  and  C_32
REMARK                            x       y       z     vdW  Elec       q    Type
REMARK                         _______ _______ _______ _____ _____    ______ ____
ROOT
ATOM      1  C   LIG A   1      -8.877  -1.075 126.153  0.00  0.00    +0.012 C 
ATOM      2  C   LIG A   1      -7.539  -0.599 126.824  0.00  0.00    -0.023 C 
ATOM      3  C   LIG A   1      -7.265  -1.669 127.985  0.00  0.00    -0.001 C 
ATOM      4  C   LIG A   1      -5.848  -2.286 128.094  0.00  0.00    -0.003 C 
ATOM      5  C   LIG A   1      -5.181  -2.627 126.744  0.00  0.00    +0.004 C 
ATOM      6  C   LIG A   1      -5.906  -2.091 125.518  0.00  0.00    +0.004 C 
ATOM      7  C   LIG A   1      -6.424  -0.666 125.727  0.00  0.00    -0.001 C 
ATOM      8  C   LIG A   1      -5.233   0.298 125.908  0.00  0.00    +0.052 C 
ATOM      9  C   LIG A   1      -5.526   1.540 126.738  0.00  0.00    +0.217 C 
ATOM     10  C   LIG A   1      -6.981   1.975 126.571  0.00  0.00    +0.217 C 
ATOM     11  C   LIG A   1      -7.841   0.889 127.252  0.00  0.00    +0.055 C 
ATOM     12  C   LIG A   1      -4.884  -1.577 129.086  0.00  0.00    +0.006 C 
ATOM     13  C   LIG A   1      -5.550  -1.149 130.440  0.00  0.00    -0.019 C 
ATOM     14  C   LIG A   1      -5.688   0.381 130.538  0.00  0.00    +0.012 C 
ATOM     15  C   LIG A   1      -4.627  -1.692 131.589  0.00  0.00    +0.061 C 
ATOM     16  C   LIG A   1      -3.939  -2.829 130.885  0.00  0.00    +0.137 C 
ATOM     17  C   LIG A   1      -3.723  -2.532 129.436  0.00  0.00    +0.079 C 
ATOM     18  O   LIG A   1      -3.520  -3.835 131.443  0.00  0.00    -0.297 OA
ATOM     19  C   LIG A   1      -6.964  -1.783 130.552  0.00  0.00    +0.008 C 
ATOM     20  C   LIG A   1      -7.891  -1.422 129.379  0.00  0.00    +0.005 C 
ENDROOT
BRANCH  15  21
ATOM     21  C   LIG A   1      -3.554  -0.715 132.109  0.00  0.00    +0.008 C 
ATOM     22  C   LIG A   1      -2.944  -1.127 133.444  0.00  0.00    +0.004 C 
ENDBRANCH  15  21
BRANCH   9  23
ATOM     23  O   LIG A   1      -4.600   2.577 126.378  0.00  0.00    -0.458 OA
BRANCH  23  24
ATOM     24  C   LIG A   1      -3.652   2.852 127.319  0.00  0.00    +0.304 C 
ATOM     25  C   LIG A   1      -2.363   3.234 126.665  0.00  0.00    +0.136 C 
ATOM     26  O   LIG A   1      -3.803   2.758 128.530  0.00  0.00    -0.251 OA
ENDBRANCH  23  24
ENDBRANCH   9  23
BRANCH  10  27
ATOM     27  O   LIG A   1      -7.388   2.071 125.188  0.00  0.00    -0.458 OA
BRANCH  27  28
ATOM     28  C   LIG A   1      -8.512   2.782 124.916  0.00  0.00    +0.304 C 
ATOM     29  C   LIG A   1      -9.431   1.994 124.032  0.00  0.00    +0.136 C 
ATOM     30  O   LIG A   1      -8.778   3.898 125.349  0.00  0.00    -0.251 OA
ENDBRANCH  27  28
ENDBRANCH  10  27
TORSDOF 5
ENDMDL
MODEL 5
REMARK VINA RESULT:      -7.0      2.844      4.758
REMARK  Name = NuBBE_1548
REMARK  10 active torsions:
REMARK  status: ('A' for Active; 'I' for Inactive)
REMARK    1  A    between atoms: C_1  and  C_2
REMARK    2  A    between atoms: C_12  and  O_14
REMARK    3  A    between atoms: O_14  and  C_15
REMARK    4  A    between atoms: C_15  and  C_16
REMARK    5  A    between atoms: C_18  and  O_20
REMARK    6  A    between atoms: O_20  and  C_21
REMARK    7  A    between atoms: C_21  and  C_22
REMARK    8  A    between atoms: C_27  and  C_28
REMARK    9  A    between atoms: C_29  and  C_31
REMARK   10  A    between atoms: C_31  and  C_32
REMARK                            x       y       z     vdW  Elec       q    Type
REMARK                         _______ _______ _______ _____ _____    ______ ____
ROOT
ATOM      1  C   LIG A   1      -6.406  -4.431 129.860  0.00  0.00    +0.012 C 
ATOM      2  C   LIG A   1      -6.566  -2.871 129.767  0.00  0.00    -0.023 C 
ATOM      3  C   LIG A   1      -6.209  -2.339 131.235  0.00  0.00    -0.001 C 
ATOM      4  C   LIG A   1      -5.218  -1.155 131.365  0.00  0.00    -0.003 C 
ATOM      5  C   LIG A   1      -4.017  -1.202 130.396  0.00  0.00    +0.004 C 
ATOM      6  C   LIG A   1      -4.113  -2.263 129.309  0.00  0.00    +0.004 C 
ATOM      7  C   LIG A   1      -5.521  -2.362 128.718  0.00  0.00    -0.001 C 
ATOM      8  C   LIG A   1      -5.872  -1.048 127.989  0.00  0.00    +0.052 C 
ATOM      9  C   LIG A   1      -7.357  -0.720 127.928  0.00  0.00    +0.217 C 
ATOM     10  C   LIG A   1      -8.195  -1.997 127.874  0.00  0.00    +0.217 C 
ATOM     11  C   LIG A   1      -8.045  -2.674 129.253  0.00  0.00    +0.055 C 
ATOM     12  C   LIG A   1      -5.867   0.255 131.459  0.00  0.00    +0.006 C 
ATOM     13  C   LIG A   1      -7.136   0.321 132.379  0.00  0.00    -0.019 C 
ATOM     14  C   LIG A   1      -8.417   0.530 131.551  0.00  0.00    +0.012 C 
ATOM     15  C   LIG A   1      -6.917   1.522 133.365  0.00  0.00    +0.061 C 
ATOM     16  C   LIG A   1      -5.416   1.617 133.366  0.00  0.00    +0.137 C 
ATOM     17  C   LIG A   1      -4.838   1.250 132.037  0.00  0.00    +0.079 C 
ATOM     18  O   LIG A   1      -4.751   2.035 134.305  0.00  0.00    -0.297 OA
ATOM     19  C   LIG A   1      -7.274  -1.003 133.179  0.00  0.00    +0.008 C 
ATOM     20  C   LIG A   1      -7.343  -2.254 132.286  0.00  0.00    +0.005 C 
ENDROOT
BRANCH  15  21
ATOM     21  C   LIG A   1      -7.494   2.879 132.913  0.00  0.00    +0.008 C 
ATOM     22  C   LIG A   1      -8.537   3.450 133.867  0.00  0.00    +0.004 C 
ENDBRANCH  15  21
BRANCH   9  23
ATOM     23  O   LIG A   1      -7.603   0.144 126.807  0.00  0.00    -0.458 OA
BRANCH  23  24
ATOM     24  C   LIG A   1      -8.656   0.996 126.959  0.00  0.00    +0.304 C 
ATOM     25  C   LIG A   1      -8.497   1.808 128.205  0.00  0.00    +0.136 C 
ATOM     26  O   LIG A   1      -9.628   1.066 126.218  0.00  0.00    -0.251 OA
ENDBRANCH  23  24
ENDBRANCH   9  23
BRANCH  10  27
ATOM     27  O   LIG A   1      -7.746  -2.926 126.863  0.00  0.00    -0.458 OA
BRANCH  27  28
ATOM     28  C   LIG A   1      -8.541  -3.096 125.776  0.00  0.00    +0.304 C 
ATOM     29  C   LIG A   1      -7.803  -3.828 124.696  0.00  0.00    +0.136 C 
ATOM     30  O   LIG A   1      -9.710  -2.742 125.678  0.00  0.00    -0.251 OA
ENDBRANCH  27  28
ENDBRANCH  10  27
TORSDOF 5
ENDMDL
MODEL 6
REMARK VINA RESULT:      -7.0      5.405      9.491
REMARK  Name = NuBBE_1548
REMARK  10 active torsions:
REMARK  status: ('A' for Active; 'I' for Inactive)
REMARK    1  A    between atoms: C_1  and  C_2
REMARK    2  A    between atoms: C_12  and  O_14
REMARK    3  A    between atoms: O_14  and  C_15
REMARK    4  A    between atoms: C_15  and  C_16
REMARK    5  A    between atoms: C_18  and  O_20
REMARK    6  A    between atoms: O_20  and  C_21
REMARK    7  A    between atoms: C_21  and  C_22
REMARK    8  A    between atoms: C_27  and  C_28
REMARK    9  A    between atoms: C_29  and  C_31
REMARK   10  A    between atoms: C_31  and  C_32
REMARK                            x       y       z     vdW  Elec       q    Type
REMARK                         _______ _______ _______ _____ _____    ______ ____
ROOT
ATOM      1  C   LIG A   1      -8.967   3.987 133.911  0.00  0.00    +0.012 C 
ATOM      2  C   LIG A   1      -7.543   3.863 133.261  0.00  0.00    -0.023 C 
ATOM      3  C   LIG A   1      -7.061   5.376 133.046  0.00  0.00    -0.001 C 
ATOM      4  C   LIG A   1      -5.636   5.765 133.515  0.00  0.00    -0.003 C 
ATOM      5  C   LIG A   1      -5.201   5.143 134.859  0.00  0.00    +0.004 C 
ATOM      6  C   LIG A   1      -6.129   4.064 135.396  0.00  0.00    +0.004 C 
ATOM      7  C   LIG A   1      -6.627   3.125 134.295  0.00  0.00    -0.001 C 
ATOM      8  C   LIG A   1      -5.438   2.336 133.709  0.00  0.00    +0.052 C 
ATOM      9  C   LIG A   1      -5.607   1.890 132.263  0.00  0.00    +0.217 C 
ATOM     10  C   LIG A   1      -7.076   1.614 131.947  0.00  0.00    +0.217 C 
ATOM     11  C   LIG A   1      -7.792   2.981 131.976  0.00  0.00    +0.055 C 
ATOM     12  C   LIG A   1      -4.530   5.693 132.425  0.00  0.00    +0.006 C 
ATOM     13  C   LIG A   1      -4.966   6.249 131.025  0.00  0.00    -0.019 C 
ATOM     14  C   LIG A   1      -5.110   5.117 129.992  0.00  0.00    +0.012 C 
ATOM     15  C   LIG A   1      -3.855   7.264 130.576  0.00  0.00    +0.061 C 
ATOM     16  C   LIG A   1      -3.277   7.657 131.908  0.00  0.00    +0.137 C 
ATOM     17  C   LIG A   1      -3.312   6.523 132.882  0.00  0.00    +0.079 C 
ATOM     18  O   LIG A   1      -2.755   8.739 132.142  0.00  0.00    -0.297 OA
ATOM     19  C   LIG A   1      -6.331   6.980 131.152  0.00  0.00    +0.008 C 
ATOM     20  C   LIG A   1      -7.448   6.095 131.731  0.00  0.00    +0.005 C 
ENDROOT
BRANCH  15  21
ATOM     21  C   LIG A   1      -2.725   6.683 129.703  0.00  0.00    +0.008 C 
ATOM     22  C   LIG A   1      -2.775   7.141 128.250  0.00  0.00    +0.004 C 
ENDBRANCH  15  21
BRANCH   9  23
ATOM     23  O   LIG A   1      -4.770   0.749 132.021  0.00  0.00    -0.458 OA
BRANCH  23  24
ATOM     24  C   LIG A   1      -4.649   0.393 130.710  0.00  0.00    +0.304 C 
ATOM     25  C   LIG A   1      -4.212   1.565 129.889  0.00  0.00    +0.136 C 
ATOM     26  O   LIG A   1      -4.904  -0.710 130.245  0.00  0.00    -0.251 OA
ENDBRANCH  23  24
ENDBRANCH   9  23
BRANCH  10  27
ATOM     27  O   LIG A   1      -7.711   0.752 132.915  0.00  0.00    -0.458 OA
BRANCH  27  28
ATOM     28  C   LIG A   1      -7.975  -0.525 132.536  0.00  0.00    +0.304 C 
ATOM     29  C   LIG A   1      -8.329  -0.577 131.080  0.00  0.00    +0.136 C 
ATOM     30  O   LIG A   1      -7.907  -1.516 133.253  0.00  0.00    -0.251 OA
ENDBRANCH  27  28
ENDBRANCH  10  27
TORSDOF 5
ENDMDL
MODEL 7
REMARK VINA RESULT:      -6.9      2.050      4.585
REMARK  Name = NuBBE_1548
REMARK  10 active torsions:
REMARK  status: ('A' for Active; 'I' for Inactive)
REMARK    1  A    between atoms: C_1  and  C_2
REMARK    2  A    between atoms: C_12  and  O_14
REMARK    3  A    between atoms: O_14  and  C_15
REMARK    4  A    between atoms: C_15  and  C_16
REMARK    5  A    between atoms: C_18  and  O_20
REMARK    6  A    between atoms: O_20  and  C_21
REMARK    7  A    between atoms: C_21  and  C_22
REMARK    8  A    between atoms: C_27  and  C_28
REMARK    9  A    between atoms: C_29  and  C_31
REMARK   10  A    between atoms: C_31  and  C_32
REMARK                            x       y       z     vdW  Elec       q    Type
REMARK                         _______ _______ _______ _____ _____    ______ ____
ROOT
ATOM      1  C   LIG A   1      -5.788   3.736 127.910  0.00  0.00    +0.012 C 
ATOM      2  C   LIG A   1      -6.314   2.258 127.838  0.00  0.00    -0.023 C 
ATOM      3  C   LIG A   1      -5.923   1.619 129.254  0.00  0.00    -0.001 C 
ATOM      4  C   LIG A   1      -7.012   0.834 130.029  0.00  0.00    -0.003 C 
ATOM      5  C   LIG A   1      -8.423   1.457 129.979  0.00  0.00    +0.004 C 
ATOM      6  C   LIG A   1      -8.583   2.603 128.991  0.00  0.00    +0.004 C 
ATOM      7  C   LIG A   1      -7.868   2.329 127.665  0.00  0.00    -0.001 C 
ATOM      8  C   LIG A   1      -8.531   1.130 126.956  0.00  0.00    +0.052 C 
ATOM      9  C   LIG A   1      -7.615   0.338 126.032  0.00  0.00    +0.217 C 
ATOM     10  C   LIG A   1      -6.559   1.247 125.405  0.00  0.00    +0.217 C 
ATOM     11  C   LIG A   1      -5.615   1.673 126.549  0.00  0.00    +0.055 C 
ATOM     12  C   LIG A   1      -7.018  -0.704 129.801  0.00  0.00    +0.006 C 
ATOM     13  C   LIG A   1      -5.594  -1.359 129.771  0.00  0.00    -0.019 C 
ATOM     14  C   LIG A   1      -5.224  -1.832 128.353  0.00  0.00    +0.012 C 
ATOM     15  C   LIG A   1      -5.635  -2.575 130.763  0.00  0.00    +0.061 C 
ATOM     16  C   LIG A   1      -6.756  -2.158 131.674  0.00  0.00    +0.137 C 
ATOM     17  C   LIG A   1      -7.804  -1.383 130.943  0.00  0.00    +0.079 C 
ATOM     18  O   LIG A   1      -6.851  -2.491 132.849  0.00  0.00    -0.297 OA
ATOM     19  C   LIG A   1      -4.533  -0.326 130.242  0.00  0.00    +0.008 C 
ATOM     20  C   LIG A   1      -4.527   0.969 129.411  0.00  0.00    +0.005 C 
ENDROOT
BRANCH  15  21
ATOM     21  C   LIG A   1      -5.989  -3.940 130.141  0.00  0.00    +0.008 C 
ATOM     22  C   LIG A   1      -5.511  -5.132 130.962  0.00  0.00    +0.004 C 
ENDBRANCH  15  21
BRANCH   9  23
ATOM     23  O   LIG A   1      -8.410  -0.339 125.047  0.00  0.00    -0.458 OA
BRANCH  23  24
ATOM     24  C   LIG A   1      -8.672  -1.649 125.321  0.00  0.00    +0.304 C 
ATOM     25  C   LIG A   1      -7.403  -2.440 125.350  0.00  0.00    +0.136 C 
ATOM     26  O   LIG A   1      -9.784  -2.135 125.475  0.00  0.00    -0.251 OA
ENDBRANCH  23  24
ENDBRANCH   9  23
BRANCH  10  27
ATOM     27  O   LIG A   1      -7.118   2.440 124.813  0.00  0.00    -0.458 OA
BRANCH  27  28
ATOM     28  C   LIG A   1      -6.607   2.843 123.621  0.00  0.00    +0.304 C 
ATOM     29  C   LIG A   1      -5.813   4.103 123.791  0.00  0.00    +0.136 C 
ATOM     30  O   LIG A   1      -6.733   2.259 122.551  0.00  0.00    -0.251 OA
ENDBRANCH  27  28
ENDBRANCH  10  27
TORSDOF 5
ENDMDL
MODEL 8
REMARK VINA RESULT:      -6.9      4.162      6.645
REMARK  Name = NuBBE_1548
REMARK  10 active torsions:
REMARK  status: ('A' for Active; 'I' for Inactive)
REMARK    1  A    between atoms: C_1  and  C_2
REMARK    2  A    between atoms: C_12  and  O_14
REMARK    3  A    between atoms: O_14  and  C_15
REMARK    4  A    between atoms: C_15  and  C_16
REMARK    5  A    between atoms: C_18  and  O_20
REMARK    6  A    between atoms: O_20  and  C_21
REMARK    7  A    between atoms: C_21  and  C_22
REMARK    8  A    between atoms: C_27  and  C_28
REMARK    9  A    between atoms: C_29  and  C_31
REMARK   10  A    between atoms: C_31  and  C_32
REMARK                            x       y       z     vdW  Elec       q    Type
REMARK                         _______ _______ _______ _____ _____    ______ ____
ROOT
ATOM      1  C   LIG A   1      -7.917   3.341 134.162  0.00  0.00    +0.012 C 
ATOM      2  C   LIG A   1      -7.482   2.731 132.782  0.00  0.00    -0.023 C 
ATOM      3  C   LIG A   1      -7.210   1.182 133.090  0.00  0.00    -0.001 C 
ATOM      4  C   LIG A   1      -7.836   0.126 132.145  0.00  0.00    -0.003 C 
ATOM      5  C   LIG A   1      -9.274   0.440 131.680  0.00  0.00    +0.004 C 
ATOM      6  C   LIG A   1      -9.767   1.839 132.021  0.00  0.00    +0.004 C 
ATOM      7  C   LIG A   1      -8.689   2.903 131.801  0.00  0.00    -0.001 C 
ATOM      8  C   LIG A   1      -8.341   2.986 130.300  0.00  0.00    +0.052 C 
ATOM      9  C   LIG A   1      -6.927   3.459 129.989  0.00  0.00    +0.217 C 
ATOM     10  C   LIG A   1      -6.436   4.440 131.053  0.00  0.00    +0.217 C 
ATOM     11  C   LIG A   1      -6.253   3.621 132.349  0.00  0.00    +0.055 C 
ATOM     12  C   LIG A   1      -6.918  -0.367 130.991  0.00  0.00    +0.006 C 
ATOM     13  C   LIG A   1      -5.430  -0.624 131.414  0.00  0.00    -0.019 C 
ATOM     14  C   LIG A   1      -4.486   0.429 130.807  0.00  0.00    +0.012 C 
ATOM     15  C   LIG A   1      -5.056  -2.060 130.900  0.00  0.00    +0.061 C 
ATOM     16  C   LIG A   1      -6.417  -2.694 130.818  0.00  0.00    +0.137 C 
ATOM     17  C   LIG A   1      -7.468  -1.700 130.440  0.00  0.00    +0.079 C 
ATOM     18  O   LIG A   1      -6.630  -3.893 130.949  0.00  0.00    -0.297 OA
ATOM     19  C   LIG A   1      -5.308  -0.566 132.961  0.00  0.00    +0.008 C 
ATOM     20  C   LIG A   1      -5.799   0.760 133.566  0.00  0.00    +0.005 C 
ENDROOT
BRANCH  15  21
ATOM     21  C   LIG A   1      -4.398  -2.126 129.508  0.00  0.00    +0.008 C 
ATOM     22  C   LIG A   1      -3.381  -3.253 129.363  0.00  0.00    +0.004 C 
ENDBRANCH  15  21
BRANCH   9  23
ATOM     23  O   LIG A   1      -6.899   4.023 128.669  0.00  0.00    -0.458 OA
BRANCH  23  24
ATOM     24  C   LIG A   1      -5.651   4.229 128.159  0.00  0.00    +0.304 C 
ATOM     25  C   LIG A   1      -4.926   2.929 128.012  0.00  0.00    +0.136 C 
ATOM     26  O   LIG A   1      -5.159   5.318 127.899  0.00  0.00    -0.251 OA
ENDBRANCH  23  24
ENDBRANCH   9  23
BRANCH  10  27
ATOM     27  O   LIG A   1      -7.377   5.503 131.321  0.00  0.00    -0.458 OA
BRANCH  27  28
ATOM     28  C   LIG A   1      -7.039   6.752 130.912  0.00  0.00    +0.304 C 
ATOM     29  C   LIG A   1      -5.563   6.972 131.060  0.00  0.00    +0.136 C 
ATOM     30  O   LIG A   1      -7.806   7.589 130.451  0.00  0.00    -0.251 OA
ENDBRANCH  27  28
ENDBRANCH  10  27
TORSDOF 5
ENDMDL
MODEL 9
REMARK VINA RESULT:      -6.8      6.273      9.206
REMARK  Name = NuBBE_1548
REMARK  10 active torsions:
REMARK  status: ('A' for Active; 'I' for Inactive)
REMARK    1  A    between atoms: C_1  and  C_2
REMARK    2  A    between atoms: C_12  and  O_14
REMARK    3  A    between atoms: O_14  and  C_15
REMARK    4  A    between atoms: C_15  and  C_16
REMARK    5  A    between atoms: C_18  and  O_20
REMARK    6  A    between atoms: O_20  and  C_21
REMARK    7  A    between atoms: C_21  and  C_22
REMARK    8  A    between atoms: C_27  and  C_28
REMARK    9  A    between atoms: C_29  and  C_31
REMARK   10  A    between atoms: C_31  and  C_32
REMARK                            x       y       z     vdW  Elec       q    Type
REMARK                         _______ _______ _______ _____ _____    ______ ____
ROOT
ATOM      1  C   LIG A   1      -3.987   3.170 130.914  0.00  0.00    +0.012 C 
ATOM      2  C   LIG A   1      -4.861   4.257 131.635  0.00  0.00    -0.023 C 
ATOM      3  C   LIG A   1      -4.481   4.120 133.185  0.00  0.00    -0.001 C 
ATOM      4  C   LIG A   1      -4.144   5.411 133.974  0.00  0.00    -0.003 C 
ATOM      5  C   LIG A   1      -3.297   6.443 133.200  0.00  0.00    +0.004 C 
ATOM      6  C   LIG A   1      -3.127   6.149 131.717  0.00  0.00    +0.004 C 
ATOM      7  C   LIG A   1      -4.422   5.650 131.072  0.00  0.00    -0.001 C 
ATOM      8  C   LIG A   1      -5.486   6.766 131.111  0.00  0.00    +0.052 C 
ATOM      9  C   LIG A   1      -6.930   6.284 131.135  0.00  0.00    +0.217 C 
ATOM     10  C   LIG A   1      -7.075   4.967 130.373  0.00  0.00    +0.217 C 
ATOM     11  C   LIG A   1      -6.337   3.898 131.205  0.00  0.00    +0.055 C 
ATOM     12  C   LIG A   1      -5.331   6.054 134.745  0.00  0.00    +0.006 C 
ATOM     13  C   LIG A   1      -6.256   5.024 135.482  0.00  0.00    -0.019 C 
ATOM     14  C   LIG A   1      -7.635   4.923 134.804  0.00  0.00    +0.012 C 
ATOM     15  C   LIG A   1      -6.407   5.529 136.961  0.00  0.00    +0.061 C 
ATOM     16  C   LIG A   1      -5.158   6.353 137.106  0.00  0.00    +0.137 C 
ATOM     17  C   LIG A   1      -4.778   7.013 135.820  0.00  0.00    +0.079 C 
ATOM     18  O   LIG A   1      -4.573   6.542 138.166  0.00  0.00    -0.297 OA
ATOM     19  C   LIG A   1      -5.593   3.619 135.468  0.00  0.00    +0.008 C 
ATOM     20  C   LIG A   1      -5.270   3.109 134.053  0.00  0.00    +0.005 C 
ENDROOT
BRANCH  15  21
ATOM     21  C   LIG A   1      -7.625   6.430 137.244  0.00  0.00    +0.008 C 
ATOM     22  C   LIG A   1      -7.951   6.574 138.726  0.00  0.00    +0.004 C 
ENDBRANCH  15  21
BRANCH   9  23
ATOM     23  O   LIG A   1      -7.780   7.316 130.613  0.00  0.00    -0.458 OA
BRANCH  23  24
ATOM     24  C   LIG A   1      -9.068   6.935 130.379  0.00  0.00    +0.304 C 
ATOM     25  C   LIG A   1      -9.707   6.446 131.640  0.00  0.00    +0.136 C 
ATOM     26  O   LIG A   1      -9.624   6.938 129.288  0.00  0.00    -0.251 OA
ENDBRANCH  23  24
ENDBRANCH   9  23
BRANCH  10  27
ATOM     27  O   LIG A   1      -6.480   5.006 129.057  0.00  0.00    -0.458 OA
BRANCH  27  28
ATOM     28  C   LIG A   1      -7.006   4.187 128.110  0.00  0.00    +0.304 C 
ATOM     29  C   LIG A   1      -5.952   3.272 127.564  0.00  0.00    +0.136 C 
ATOM     30  O   LIG A   1      -8.180   4.157 127.759  0.00  0.00    -0.251 OA
ENDBRANCH  27  28
ENDBRANCH  10  27
TORSDOF 5
ENDMDL
