MODEL 1
REMARK VINA RESULT:      -6.1      0.000      0.000
REMARK  Name = NuBBE_850
REMARK  1 active torsions:
REMARK  status: ('A' for Active; 'I' for Inactive)
REMARK    1  A    between atoms: CB_9  and  CG2_10
REMARK                            x       y       z     vdW  Elec       q    Type
REMARK                         _______ _______ _______ _____ _____    ______ ____
ROOT
ATOM      1  O   GLY A   1      -8.768   5.336 129.266  0.00  0.00    -0.274 OA
ATOM      2  C   GLY A   1      -9.749   5.820 129.824  0.00  0.00    +0.233 C 
ATOM      3  CA  GLY A   1     -10.305   5.242 131.136  0.00  0.00    +0.200 C 
ATOM      4  N   GLY A   1     -11.355   5.993 131.811  0.00  0.00    -0.305 N 
ATOM      5  C   ILE A   2     -12.172   6.861 131.117  0.00  0.00    +0.234 C 
ATOM      6  O   ILE A   2     -13.278   7.157 131.556  0.00  0.00    -0.274 OA
ATOM      7  N   ILE A   2     -10.566   6.754 129.233  0.00  0.00    -0.288 N 
ATOM      8  CA  ILE A   2     -11.451   7.617 130.000  0.00  0.00    +0.165 C 
ATOM      9  CB  ILE A   2     -12.335   8.235 128.918  0.00  0.00    +0.017 C 
ATOM     10  CG2 ILE A   2     -13.012   9.532 129.327  0.00  0.00    +0.010 C 
ATOM     11  CG1 ILE A   2     -11.326   8.438 127.773  0.00  0.00    +0.024 C 
ATOM     12  CD1 ILE A   2     -10.392   7.236 127.879  0.00  0.00    +0.109 C 
ATOM     13  H   GLY A   1     -11.817   5.547 132.594  0.00  0.00    +0.149 HD
ENDROOT
TORSDOF 0
ENDMDL
MODEL 2
REMARK VINA RESULT:      -5.7      1.102      3.118
REMARK  Name = NuBBE_850
REMARK  1 active torsions:
REMARK  status: ('A' for Active; 'I' for Inactive)
REMARK    1  A    between atoms: CB_9  and  CG2_10
REMARK                            x       y       z     vdW  Elec       q    Type
REMARK                         _______ _______ _______ _____ _____    ______ ____
ROOT
ATOM      1  O   GLY A   1     -13.172   7.472 131.979  0.00  0.00    -0.274 OA
ATOM      2  C   GLY A   1     -12.260   7.075 131.259  0.00  0.00    +0.233 C 
ATOM      3  CA  GLY A   1     -11.144   6.161 131.792  0.00  0.00    +0.200 C 
ATOM      4  N   GLY A   1     -10.212   5.601 130.822  0.00  0.00    -0.305 N 
ATOM      5  C   ILE A   2      -9.987   6.218 129.609  0.00  0.00    +0.234 C 
ATOM      6  O   ILE A   2      -8.945   6.015 128.994  0.00  0.00    -0.274 OA
ATOM      7  N   ILE A   2     -12.019   7.579 130.003  0.00  0.00    -0.288 N 
ATOM      8  CA  ILE A   2     -11.238   6.861 129.009  0.00  0.00    +0.165 C 
ATOM      9  CB  ILE A   2     -11.007   7.923 127.935  0.00  0.00    +0.017 C 
ATOM     10  CG2 ILE A   2     -10.665   7.364 126.564  0.00  0.00    +0.010 C 
ATOM     11  CG1 ILE A   2     -12.354   8.668 127.942  0.00  0.00    +0.024 C 
ATOM     12  CD1 ILE A   2     -12.780   8.657 129.408  0.00  0.00    +0.109 C 
ATOM     13  H   GLY A   1      -9.400   5.116 131.183  0.00  0.00    +0.149 HD
ENDROOT
TORSDOF 0
ENDMDL
MODEL 3
REMARK VINA RESULT:      -5.4      1.671      4.269
REMARK  Name = NuBBE_850
REMARK  1 active torsions:
REMARK  status: ('A' for Active; 'I' for Inactive)
REMARK    1  A    between atoms: CB_9  and  CG2_10
REMARK                            x       y       z     vdW  Elec       q    Type
REMARK                         _______ _______ _______ _____ _____    ______ ____
ROOT
ATOM      1  O   GLY A   1     -13.486   9.268 128.666  0.00  0.00    -0.274 OA
ATOM      2  C   GLY A   1     -12.494   8.543 128.669  0.00  0.00    +0.233 C 
ATOM      3  CA  GLY A   1     -11.696   8.252 127.387  0.00  0.00    +0.200 C 
ATOM      4  N   GLY A   1     -10.438   7.532 127.526  0.00  0.00    -0.305 N 
ATOM      5  C   ILE A   2     -10.201   6.709 128.607  0.00  0.00    +0.234 C 
ATOM      6  O   ILE A   2      -9.375   5.806 128.531  0.00  0.00    -0.274 OA
ATOM      7  N   ILE A   2     -12.141   7.756 129.739  0.00  0.00    -0.288 N 
ATOM      8  CA  ILE A   2     -10.795   7.233 129.915  0.00  0.00    +0.165 C 
ATOM      9  CB  ILE A   2     -10.978   6.211 131.036  0.00  0.00    +0.017 C 
ATOM     10  CG2 ILE A   2      -9.701   5.864 131.782  0.00  0.00    +0.010 C 
ATOM     11  CG1 ILE A   2     -12.007   6.920 131.936  0.00  0.00    +0.024 C 
ATOM     12  CD1 ILE A   2     -12.917   7.657 130.957  0.00  0.00    +0.109 C 
ATOM     13  H   GLY A   1      -9.985   7.218 126.676  0.00  0.00    +0.149 HD
ENDROOT
TORSDOF 0
ENDMDL
MODEL 4
REMARK VINA RESULT:      -5.4      9.127     10.290
REMARK  Name = NuBBE_850
REMARK  1 active torsions:
REMARK  status: ('A' for Active; 'I' for Inactive)
REMARK    1  A    between atoms: CB_9  and  CG2_10
REMARK                            x       y       z     vdW  Elec       q    Type
REMARK                         _______ _______ _______ _____ _____    ______ ____
ROOT
ATOM      1  O   GLY A   1      -3.970   4.900 121.746  0.00  0.00    -0.274 OA
ATOM      2  C   GLY A   1      -5.094   4.560 121.384  0.00  0.00    +0.233 C 
ATOM      3  CA  GLY A   1      -5.637   4.905 119.988  0.00  0.00    +0.200 C 
ATOM      4  N   GLY A   1      -6.903   4.304 119.591  0.00  0.00    -0.305 N 
ATOM      5  C   ILE A   2      -7.821   3.885 120.530  0.00  0.00    +0.234 C 
ATOM      6  O   ILE A   2      -9.008   3.782 120.237  0.00  0.00    -0.274 OA
ATOM      7  N   ILE A   2      -6.039   4.053 122.244  0.00  0.00    -0.288 N 
ATOM      8  CA  ILE A   2      -7.182   3.282 121.782  0.00  0.00    +0.165 C 
ATOM      9  CB  ILE A   2      -8.063   3.212 123.029  0.00  0.00    +0.017 C 
ATOM     10  CG2 ILE A   2      -9.070   2.074 123.023  0.00  0.00    +0.010 C 
ATOM     11  CG1 ILE A   2      -7.012   3.057 124.143  0.00  0.00    +0.024 C 
ATOM     12  CD1 ILE A   2      -5.836   3.908 123.670  0.00  0.00    +0.109 C 
ATOM     13  H   GLY A   1      -7.329   4.637 118.735  0.00  0.00    +0.149 HD
ENDROOT
TORSDOF 0
ENDMDL
MODEL 5
REMARK VINA RESULT:      -5.4      1.449      4.335
REMARK  Name = NuBBE_850
REMARK  1 active torsions:
REMARK  status: ('A' for Active; 'I' for Inactive)
REMARK    1  A    between atoms: CB_9  and  CG2_10
REMARK                            x       y       z     vdW  Elec       q    Type
REMARK                         _______ _______ _______ _____ _____    ______ ____
ROOT
ATOM      1  O   GLY A   1     -13.367   7.196 131.569  0.00  0.00    -0.274 OA
ATOM      2  C   GLY A   1     -12.445   7.068 130.768  0.00  0.00    +0.233 C 
ATOM      3  CA  GLY A   1     -12.671   7.151 129.249  0.00  0.00    +0.200 C 
ATOM      4  N   GLY A   1     -11.492   7.167 128.393  0.00  0.00    -0.305 N 
ATOM      5  C   ILE A   2     -10.295   6.631 128.817  0.00  0.00    +0.234 C 
ATOM      6  O   ILE A   2      -9.456   6.263 128.001  0.00  0.00    -0.274 OA
ATOM      7  N   ILE A   2     -11.195   6.621 131.125  0.00  0.00    -0.288 N 
ATOM      8  CA  ILE A   2     -10.017   6.854 130.304  0.00  0.00    +0.165 C 
ATOM      9  CB  ILE A   2      -8.977   5.938 130.946  0.00  0.00    +0.017 C 
ATOM     10  CG2 ILE A   2      -7.537   6.317 130.646  0.00  0.00    +0.010 C 
ATOM     11  CG1 ILE A   2      -9.319   6.080 132.441  0.00  0.00    +0.024 C 
ATOM     12  CD1 ILE A   2     -10.839   6.209 132.466  0.00  0.00    +0.109 C 
ATOM     13  H   GLY A   1     -11.641   7.080 127.395  0.00  0.00    +0.149 HD
ENDROOT
TORSDOF 0
ENDMDL
MODEL 6
REMARK VINA RESULT:      -5.3      1.738      3.317
REMARK  Name = NuBBE_850
REMARK  1 active torsions:
REMARK  status: ('A' for Active; 'I' for Inactive)
REMARK    1  A    between atoms: CB_9  and  CG2_10
REMARK                            x       y       z     vdW  Elec       q    Type
REMARK                         _______ _______ _______ _____ _____    ______ ____
ROOT
ATOM      1  O   GLY A   1      -9.541   6.181 126.443  0.00  0.00    -0.274 OA
ATOM      2  C   GLY A   1     -10.277   6.785 127.218  0.00  0.00    +0.233 C 
ATOM      3  CA  GLY A   1     -11.086   8.016 126.778  0.00  0.00    +0.200 C 
ATOM      4  N   GLY A   1     -12.064   8.550 127.716  0.00  0.00    -0.305 N 
ATOM      5  C   ILE A   2     -11.942   8.338 129.073  0.00  0.00    +0.234 C 
ATOM      6  O   ILE A   2     -12.479   9.099 129.871  0.00  0.00    -0.274 OA
ATOM      7  N   ILE A   2     -10.278   6.571 128.576  0.00  0.00    -0.288 N 
ATOM      8  CA  ILE A   2     -11.392   6.956 129.428  0.00  0.00    +0.165 C 
ATOM      9  CB  ILE A   2     -10.810   6.797 130.831  0.00  0.00    +0.017 C 
ATOM     10  CG2 ILE A   2     -11.850   6.638 131.928  0.00  0.00    +0.010 C 
ATOM     11  CG1 ILE A   2      -9.940   5.537 130.665  0.00  0.00    +0.024 C 
ATOM     12  CD1 ILE A   2      -9.385   5.650 129.247  0.00  0.00    +0.109 C 
ATOM     13  H   GLY A   1     -12.493   9.438 127.485  0.00  0.00    +0.149 HD
ENDROOT
TORSDOF 0
ENDMDL
MODEL 7
REMARK VINA RESULT:      -4.9      9.452     10.718
REMARK  Name = NuBBE_850
REMARK  1 active torsions:
REMARK  status: ('A' for Active; 'I' for Inactive)
REMARK    1  A    between atoms: CB_9  and  CG2_10
REMARK                            x       y       z     vdW  Elec       q    Type
REMARK                         _______ _______ _______ _____ _____    ______ ____
ROOT
ATOM      1  O   GLY A   1      -6.753   4.989 118.131  0.00  0.00    -0.274 OA
ATOM      2  C   GLY A   1      -7.258   4.497 119.136  0.00  0.00    +0.233 C 
ATOM      3  CA  GLY A   1      -8.761   4.182 119.219  0.00  0.00    +0.200 C 
ATOM      4  N   GLY A   1      -9.229   3.436 120.379  0.00  0.00    -0.305 N 
ATOM      5  C   ILE A   2      -8.530   3.448 121.567  0.00  0.00    +0.234 C 
ATOM      6  O   ILE A   2      -9.097   3.197 122.625  0.00  0.00    -0.274 OA
ATOM      7  N   ILE A   2      -6.597   4.395 120.338  0.00  0.00    -0.288 N 
ATOM      8  CA  ILE A   2      -7.012   3.471 121.382  0.00  0.00    +0.165 C 
ATOM      9  CB  ILE A   2      -6.187   3.932 122.582  0.00  0.00    +0.017 C 
ATOM     10  CG2 ILE A   2      -6.016   2.882 123.666  0.00  0.00    +0.010 C 
ATOM     11  CG1 ILE A   2      -4.851   4.307 121.915  0.00  0.00    +0.024 C 
ATOM     12  CD1 ILE A   2      -5.258   4.894 120.566  0.00  0.00    +0.109 C 
ATOM     13  H   GLY A   1     -10.231   3.350 120.504  0.00  0.00    +0.149 HD
ENDROOT
TORSDOF 0
ENDMDL
MODEL 8
REMARK VINA RESULT:      -4.8      8.747     10.208
REMARK  Name = NuBBE_850
REMARK  1 active torsions:
REMARK  status: ('A' for Active; 'I' for Inactive)
REMARK    1  A    between atoms: CB_9  and  CG2_10
REMARK                            x       y       z     vdW  Elec       q    Type
REMARK                         _______ _______ _______ _____ _____    ______ ____
ROOT
ATOM      1  O   GLY A   1      -6.390   2.328 124.523  0.00  0.00    -0.274 OA
ATOM      2  C   GLY A   1      -7.365   1.785 124.009  0.00  0.00    +0.233 C 
ATOM      3  CA  GLY A   1      -8.470   2.593 123.310  0.00  0.00    +0.200 C 
ATOM      4  N   GLY A   1      -9.487   1.850 122.578  0.00  0.00    -0.305 N 
ATOM      5  C   ILE A   2      -9.777   0.539 122.891  0.00  0.00    +0.234 C 
ATOM      6  O   ILE A   2     -10.867   0.057 122.598  0.00  0.00    -0.274 OA
ATOM      7  N   ILE A   2      -7.677   0.460 124.204  0.00  0.00    -0.288 N 
ATOM      8  CA  ILE A   2      -8.552  -0.277 123.305  0.00  0.00    +0.165 C 
ATOM      9  CB  ILE A   2      -8.823  -1.563 124.084  0.00  0.00    +0.017 C 
ATOM     10  CG2 ILE A   2      -9.281  -2.730 123.226  0.00  0.00    +0.010 C 
ATOM     11  CG1 ILE A   2      -7.454  -1.822 124.740  0.00  0.00    +0.024 C 
ATOM     12  CD1 ILE A   2      -6.925  -0.427 125.065  0.00  0.00    +0.109 C 
ATOM     13  H   GLY A   1     -10.287   2.369 122.237  0.00  0.00    +0.149 HD
ENDROOT
TORSDOF 0
ENDMDL
MODEL 9
REMARK VINA RESULT:      -4.6     10.055     10.946
REMARK  Name = NuBBE_850
REMARK  1 active torsions:
REMARK  status: ('A' for Active; 'I' for Inactive)
REMARK    1  A    between atoms: CB_9  and  CG2_10
REMARK                            x       y       z     vdW  Elec       q    Type
REMARK                         _______ _______ _______ _____ _____    ______ ____
ROOT
ATOM      1  O   GLY A   1      -5.234   0.060 125.823  0.00  0.00    -0.274 OA
ATOM      2  C   GLY A   1      -6.162  -0.723 126.007  0.00  0.00    +0.233 C 
ATOM      3  CA  GLY A   1      -6.579  -1.172 127.417  0.00  0.00    +0.200 C 
ATOM      4  N   GLY A   1      -7.799  -1.957 127.541  0.00  0.00    -0.305 N 
ATOM      5  C   ILE A   2      -8.282  -2.699 126.483  0.00  0.00    +0.234 C 
ATOM      6  O   ILE A   2      -9.022  -3.656 126.683  0.00  0.00    -0.274 OA
ATOM      7  N   ILE A   2      -6.754  -1.439 124.994  0.00  0.00    -0.288 N 
ATOM      8  CA  ILE A   2      -8.077  -2.030 125.123  0.00  0.00    +0.165 C 
ATOM      9  CB  ILE A   2      -8.157  -2.940 123.899  0.00  0.00    +0.017 C 
ATOM     10  CG2 ILE A   2      -9.572  -3.304 123.480  0.00  0.00    +0.010 C 
ATOM     11  CG1 ILE A   2      -7.433  -2.094 122.836  0.00  0.00    +0.024 C 
ATOM     12  CD1 ILE A   2      -6.326  -1.385 123.612  0.00  0.00    +0.109 C 
ATOM     13  H   GLY A   1      -7.999  -2.369 128.444  0.00  0.00    +0.149 HD
ENDROOT
TORSDOF 0
ENDMDL
