MODEL 1
REMARK VINA RESULT:      -6.2      0.000      0.000
REMARK  Name = NuBBE_185
REMARK  18 active torsions:
REMARK  status: ('A' for Active; 'I' for Inactive)
REMARK    1  A    between atoms: O_1  and  C_2
REMARK    2  A    between atoms: C_2  and  C_3
REMARK    3  A    between atoms: C_3  and  C_4
REMARK    4  A    between atoms: C_4  and  C_5
REMARK    5  A    between atoms: C_5  and  C_6
REMARK    6  A    between atoms: C_6  and  C_7
REMARK    7  A    between atoms: C_7  and  C_8
REMARK    8  A    between atoms: C_8  and  C_9
REMARK    9  A    between atoms: C_9  and  C_10
REMARK   10  A    between atoms: C_10  and  C_11
REMARK   11  A    between atoms: C_11  and  C_12
REMARK   12  A    between atoms: C_12  and  C_13
REMARK   13  A    between atoms: C_13  and  C_14
REMARK   14  A    between atoms: C_14  and  C_15
REMARK   15  A    between atoms: C_15  and  C_16
REMARK   16  A    between atoms: C_16  and  C_17
REMARK   17  A    between atoms: C_17  and  C_18
REMARK   18  A    between atoms: C_18  and  C_19
REMARK                            x       y       z     vdW  Elec       q    Type
REMARK                         _______ _______ _______ _____ _____    ______ ____
ROOT
ATOM      1  C   LIG A   1      -9.095  -2.673 123.051  0.00  0.00    -0.000 C 
ENDROOT
BRANCH   1   2
ATOM      2  C   LIG A   1      -9.371  -3.416 124.354  0.00  0.00    -0.000 C 
BRANCH   2   3
ATOM      3  C   LIG A   1      -9.309  -2.720 125.761  0.00  0.00    +0.000 C 
BRANCH   3   4
ATOM      4  C   LIG A   1      -8.410  -3.462 126.766  0.00  0.00    +0.000 C 
BRANCH   4   5
ATOM      5  C   LIG A   1      -8.907  -3.854 128.201  0.00  0.00    +0.005 C 
BRANCH   5   6
ATOM      6  C   LIG A   1      -8.315  -2.827 129.241  0.00  0.00    +0.035 C 
BRANCH   6   7
ATOM      7  C   LIG A   1      -6.939  -2.985 129.919  0.00  0.00    -0.044 A 
ATOM      8  C   LIG A   1      -6.324  -1.859 130.525  0.00  0.00    +0.053 A 
ATOM      9  C   LIG A   1      -5.102  -1.996 131.181  0.00  0.00    +0.167 A 
ATOM     10  O   LIG A   1      -4.460  -1.022 131.893  0.00  0.00    -0.453 OA
ATOM     11  C   LIG A   1      -3.198  -1.674 132.158  0.00  0.00    +0.466 C 
ATOM     12  O   LIG A   1      -3.242  -3.095 131.895  0.00  0.00    -0.453 OA
ATOM     13  C   LIG A   1      -4.417  -3.182 131.210  0.00  0.00    +0.166 A 
ATOM     14  C   LIG A   1      -4.972  -4.310 130.645  0.00  0.00    +0.050 A 
ATOM     15  C   LIG A   1      -6.269  -4.217 130.076  0.00  0.00    +0.007 A 
ENDBRANCH   6   7
ENDBRANCH   5   6
ENDBRANCH   4   5
ENDBRANCH   3   4
ENDBRANCH   2   3
ENDBRANCH   1   2
BRANCH   1  16
ATOM     16  C   LIG A   1      -8.057  -1.549 122.989  0.00  0.00    -0.000 C 
BRANCH  16  17
ATOM     17  C   LIG A   1      -6.558  -1.823 122.600  0.00  0.00    -0.000 C 
BRANCH  17  18
ATOM     18  C   LIG A   1      -5.564  -2.695 123.426  0.00  0.00    -0.000 C 
BRANCH  18  19
ATOM     19  C   LIG A   1      -5.422  -2.440 124.959  0.00  0.00    -0.000 C 
BRANCH  19  20
ATOM     20  C   LIG A   1      -5.363  -1.009 125.549  0.00  0.00    -0.000 C 
BRANCH  20  21
ATOM     21  C   LIG A   1      -5.927  -0.976 126.935  0.00  0.00    -0.000 C 
BRANCH  21  22
ATOM     22  C   LIG A   1      -6.450   0.369 127.472  0.00  0.00    +0.000 C 
BRANCH  22  23
ATOM     23  C   LIG A   1      -7.946   0.528 127.854  0.00  0.00    +0.000 C 
BRANCH  23  24
ATOM     24  C   LIG A   1      -8.849   1.023 126.715  0.00  0.00    +0.011 C 
BRANCH  24  25
ATOM     25  C   LIG A   1      -8.441   1.184 125.294  0.00  0.00    +0.120 C 
BRANCH  25  26
ATOM     26  C   LIG A   1      -9.106   2.417 124.711  0.00  0.00    +0.305 C 
ATOM     27  O   LIG A   1      -8.928   3.522 125.043  0.00  0.00    -0.251 OA
BRANCH  26  28
ATOM     28  O   LIG A   1      -9.916   2.029 123.680  0.00  0.00    -0.481 OA
ATOM     29  H   LIG A   1      -9.853   1.067 123.503  0.00  0.00    +0.295 HD
ENDBRANCH  26  28
ENDBRANCH  25  26
ENDBRANCH  24  25
ENDBRANCH  23  24
ENDBRANCH  22  23
ENDBRANCH  21  22
ENDBRANCH  20  21
ENDBRANCH  19  20
ENDBRANCH  18  19
ENDBRANCH  17  18
ENDBRANCH  16  17
ENDBRANCH   1  16
TORSDOF 18
ENDMDL
MODEL 2
REMARK VINA RESULT:      -6.0      3.565      8.259
REMARK  Name = NuBBE_185
REMARK  18 active torsions:
REMARK  status: ('A' for Active; 'I' for Inactive)
REMARK    1  A    between atoms: O_1  and  C_2
REMARK    2  A    between atoms: C_2  and  C_3
REMARK    3  A    between atoms: C_3  and  C_4
REMARK    4  A    between atoms: C_4  and  C_5
REMARK    5  A    between atoms: C_5  and  C_6
REMARK    6  A    between atoms: C_6  and  C_7
REMARK    7  A    between atoms: C_7  and  C_8
REMARK    8  A    between atoms: C_8  and  C_9
REMARK    9  A    between atoms: C_9  and  C_10
REMARK   10  A    between atoms: C_10  and  C_11
REMARK   11  A    between atoms: C_11  and  C_12
REMARK   12  A    between atoms: C_12  and  C_13
REMARK   13  A    between atoms: C_13  and  C_14
REMARK   14  A    between atoms: C_14  and  C_15
REMARK   15  A    between atoms: C_15  and  C_16
REMARK   16  A    between atoms: C_16  and  C_17
REMARK   17  A    between atoms: C_17  and  C_18
REMARK   18  A    between atoms: C_18  and  C_19
REMARK                            x       y       z     vdW  Elec       q    Type
REMARK                         _______ _______ _______ _____ _____    ______ ____
ROOT
ATOM      1  C   LIG A   1      -5.819   0.236 127.025  0.00  0.00    -0.000 C 
ENDROOT
BRANCH   1   2
ATOM      2  C   LIG A   1      -6.807   1.399 127.044  0.00  0.00    -0.000 C 
BRANCH   2   3
ATOM      3  C   LIG A   1      -8.300   1.240 127.505  0.00  0.00    +0.000 C 
BRANCH   3   4
ATOM      4  C   LIG A   1      -9.272   0.996 126.338  0.00  0.00    +0.000 C 
BRANCH   4   5
ATOM      5  C   LIG A   1      -8.772   0.757 124.870  0.00  0.00    +0.005 C 
BRANCH   5   6
ATOM      6  C   LIG A   1      -8.927   2.099 124.056  0.00  0.00    +0.035 C 
BRANCH   6   7
ATOM      7  C   LIG A   1      -7.742   2.882 123.455  0.00  0.00    -0.044 A 
ATOM      8  C   LIG A   1      -7.689   3.105 122.055  0.00  0.00    +0.053 A 
ATOM      9  C   LIG A   1      -6.648   3.850 121.502  0.00  0.00    +0.167 A 
ATOM     10  O   LIG A   1      -6.538   4.226 120.193  0.00  0.00    -0.453 OA
ATOM     11  C   LIG A   1      -5.205   4.784 120.188  0.00  0.00    +0.466 C 
ATOM     12  O   LIG A   1      -4.699   5.024 121.520  0.00  0.00    -0.453 OA
ATOM     13  C   LIG A   1      -5.613   4.332 122.259  0.00  0.00    +0.166 A 
ATOM     14  C   LIG A   1      -5.619   4.152 123.625  0.00  0.00    +0.050 A 
ATOM     15  C   LIG A   1      -6.729   3.499 124.220  0.00  0.00    +0.007 A 
ENDBRANCH   6   7
ENDBRANCH   5   6
ENDBRANCH   4   5
ENDBRANCH   3   4
ENDBRANCH   2   3
ENDBRANCH   1   2
BRANCH   1  16
ATOM     16  C   LIG A   1      -6.232  -1.141 126.498  0.00  0.00    -0.000 C 
BRANCH  16  17
ATOM     17  C   LIG A   1      -6.808  -2.255 127.446  0.00  0.00    -0.000 C 
BRANCH  17  18
ATOM     18  C   LIG A   1      -7.934  -3.263 127.061  0.00  0.00    -0.000 C 
BRANCH  18  19
ATOM     19  C   LIG A   1      -8.995  -2.847 125.995  0.00  0.00    -0.000 C 
BRANCH  19  20
ATOM     20  C   LIG A   1      -9.012  -3.464 124.574  0.00  0.00    -0.000 C 
BRANCH  20  21
ATOM     21  C   LIG A   1      -9.070  -2.396 123.526  0.00  0.00    -0.000 C 
BRANCH  21  22
ATOM     22  C   LIG A   1      -7.887  -2.277 122.549  0.00  0.00    +0.000 C 
BRANCH  22  23
ATOM     23  C   LIG A   1      -6.565  -1.600 123.003  0.00  0.00    +0.000 C 
BRANCH  23  24
ATOM     24  C   LIG A   1      -5.356  -2.544 123.082  0.00  0.00    +0.011 C 
BRANCH  24  25
ATOM     25  C   LIG A   1      -5.278  -3.784 123.897  0.00  0.00    +0.120 C 
BRANCH  25  26
ATOM     26  C   LIG A   1      -4.097  -4.620 123.439  0.00  0.00    +0.305 C 
ATOM     27  O   LIG A   1      -2.977  -4.289 123.428  0.00  0.00    -0.251 OA
BRANCH  26  28
ATOM     28  O   LIG A   1      -4.551  -5.862 123.091  0.00  0.00    -0.481 OA
ATOM     29  H   LIG A   1      -4.169  -6.170 122.243  0.00  0.00    +0.295 HD
ENDBRANCH  26  28
ENDBRANCH  25  26
ENDBRANCH  24  25
ENDBRANCH  23  24
ENDBRANCH  22  23
ENDBRANCH  21  22
ENDBRANCH  20  21
ENDBRANCH  19  20
ENDBRANCH  18  19
ENDBRANCH  17  18
ENDBRANCH  16  17
ENDBRANCH   1  16
TORSDOF 18
ENDMDL
MODEL 3
REMARK VINA RESULT:      -6.0      5.170      8.558
REMARK  Name = NuBBE_185
REMARK  18 active torsions:
REMARK  status: ('A' for Active; 'I' for Inactive)
REMARK    1  A    between atoms: O_1  and  C_2
REMARK    2  A    between atoms: C_2  and  C_3
REMARK    3  A    between atoms: C_3  and  C_4
REMARK    4  A    between atoms: C_4  and  C_5
REMARK    5  A    between atoms: C_5  and  C_6
REMARK    6  A    between atoms: C_6  and  C_7
REMARK    7  A    between atoms: C_7  and  C_8
REMARK    8  A    between atoms: C_8  and  C_9
REMARK    9  A    between atoms: C_9  and  C_10
REMARK   10  A    between atoms: C_10  and  C_11
REMARK   11  A    between atoms: C_11  and  C_12
REMARK   12  A    between atoms: C_12  and  C_13
REMARK   13  A    between atoms: C_13  and  C_14
REMARK   14  A    between atoms: C_14  and  C_15
REMARK   15  A    between atoms: C_15  and  C_16
REMARK   16  A    between atoms: C_16  and  C_17
REMARK   17  A    between atoms: C_17  and  C_18
REMARK   18  A    between atoms: C_18  and  C_19
REMARK                            x       y       z     vdW  Elec       q    Type
REMARK                         _______ _______ _______ _____ _____    ______ ____
ROOT
ATOM      1  C   LIG A   1     -10.041   3.075 130.539  0.00  0.00    -0.000 C 
ENDROOT
BRANCH   1   2
ATOM      2  C   LIG A   1     -10.019   2.210 131.795  0.00  0.00    -0.000 C 
BRANCH   2   3
ATOM      3  C   LIG A   1      -8.687   1.774 132.505  0.00  0.00    +0.000 C 
BRANCH   3   4
ATOM      4  C   LIG A   1      -7.910   2.955 133.114  0.00  0.00    +0.000 C 
BRANCH   4   5
ATOM      5  C   LIG A   1      -8.550   3.919 134.173  0.00  0.00    +0.005 C 
BRANCH   5   6
ATOM      6  C   LIG A   1      -8.403   5.404 133.662  0.00  0.00    +0.035 C 
BRANCH   6   7
ATOM      7  C   LIG A   1      -9.199   5.989 132.478  0.00  0.00    -0.044 A 
ATOM      8  C   LIG A   1     -10.616   6.032 132.541  0.00  0.00    +0.053 A 
ATOM      9  C   LIG A   1     -11.348   6.600 131.499  0.00  0.00    +0.167 A 
ATOM     10  O   LIG A   1     -12.699   6.800 131.483  0.00  0.00    -0.453 OA
ATOM     11  C   LIG A   1     -12.890   7.222 130.114  0.00  0.00    +0.466 C 
ATOM     12  O   LIG A   1     -11.648   7.573 129.464  0.00  0.00    -0.453 OA
ATOM     13  C   LIG A   1     -10.751   7.068 130.358  0.00  0.00    +0.166 A 
ATOM     14  C   LIG A   1      -9.378   7.059 130.247  0.00  0.00    +0.050 A 
ATOM     15  C   LIG A   1      -8.610   6.594 131.347  0.00  0.00    +0.007 A 
ENDBRANCH   6   7
ENDBRANCH   5   6
ENDBRANCH   4   5
ENDBRANCH   3   4
ENDBRANCH   2   3
ENDBRANCH   1   2
BRANCH   1  16
ATOM     16  C   LIG A   1      -8.867   3.068 129.556  0.00  0.00    -0.000 C 
BRANCH  16  17
ATOM     17  C   LIG A   1      -8.522   1.806 128.683  0.00  0.00    -0.000 C 
BRANCH  17  18
ATOM     18  C   LIG A   1      -7.416   0.760 129.022  0.00  0.00    -0.000 C 
BRANCH  18  19
ATOM     19  C   LIG A   1      -7.768  -0.760 128.976  0.00  0.00    -0.000 C 
BRANCH  19  20
ATOM     20  C   LIG A   1      -7.391  -1.650 127.765  0.00  0.00    -0.000 C 
BRANCH  20  21
ATOM     21  C   LIG A   1      -8.158  -2.937 127.787  0.00  0.00    -0.000 C 
BRANCH  21  22
ATOM     22  C   LIG A   1      -9.038  -3.275 126.570  0.00  0.00    +0.000 C 
BRANCH  22  23
ATOM     23  C   LIG A   1      -8.385  -3.754 125.245  0.00  0.00    +0.000 C 
BRANCH  23  24
ATOM     24  C   LIG A   1      -9.146  -3.351 123.974  0.00  0.00    +0.011 C 
BRANCH  24  25
ATOM     25  C   LIG A   1      -8.751  -2.269 123.034  0.00  0.00    +0.120 C 
BRANCH  25  26
ATOM     26  C   LIG A   1      -9.419  -0.970 123.444  0.00  0.00    +0.305 C 
ATOM     27  O   LIG A   1      -9.270  -0.403 124.453  0.00  0.00    -0.251 OA
BRANCH  26  28
ATOM     28  O   LIG A   1     -10.192  -0.531 122.404  0.00  0.00    -0.481 OA
ATOM     29  H   LIG A   1     -10.390   0.426 122.470  0.00  0.00    +0.295 HD
ENDBRANCH  26  28
ENDBRANCH  25  26
ENDBRANCH  24  25
ENDBRANCH  23  24
ENDBRANCH  22  23
ENDBRANCH  21  22
ENDBRANCH  20  21
ENDBRANCH  19  20
ENDBRANCH  18  19
ENDBRANCH  17  18
ENDBRANCH  16  17
ENDBRANCH   1  16
TORSDOF 18
ENDMDL
MODEL 4
REMARK VINA RESULT:      -5.9      2.708      3.842
REMARK  Name = NuBBE_185
REMARK  18 active torsions:
REMARK  status: ('A' for Active; 'I' for Inactive)
REMARK    1  A    between atoms: O_1  and  C_2
REMARK    2  A    between atoms: C_2  and  C_3
REMARK    3  A    between atoms: C_3  and  C_4
REMARK    4  A    between atoms: C_4  and  C_5
REMARK    5  A    between atoms: C_5  and  C_6
REMARK    6  A    between atoms: C_6  and  C_7
REMARK    7  A    between atoms: C_7  and  C_8
REMARK    8  A    between atoms: C_8  and  C_9
REMARK    9  A    between atoms: C_9  and  C_10
REMARK   10  A    between atoms: C_10  and  C_11
REMARK   11  A    between atoms: C_11  and  C_12
REMARK   12  A    between atoms: C_12  and  C_13
REMARK   13  A    between atoms: C_13  and  C_14
REMARK   14  A    between atoms: C_14  and  C_15
REMARK   15  A    between atoms: C_15  and  C_16
REMARK   16  A    between atoms: C_16  and  C_17
REMARK   17  A    between atoms: C_17  and  C_18
REMARK   18  A    between atoms: C_18  and  C_19
REMARK                            x       y       z     vdW  Elec       q    Type
REMARK                         _______ _______ _______ _____ _____    ______ ____
ROOT
ATOM      1  C   LIG A   1      -9.273  -3.645 124.503  0.00  0.00    -0.000 C 
ENDROOT
BRANCH   1   2
ATOM      2  C   LIG A   1      -9.678  -3.046 125.846  0.00  0.00    -0.000 C 
BRANCH   2   3
ATOM      3  C   LIG A   1      -8.634  -2.669 126.958  0.00  0.00    +0.000 C 
BRANCH   3   4
ATOM      4  C   LIG A   1      -8.683  -3.606 128.178  0.00  0.00    +0.000 C 
BRANCH   4   5
ATOM      5  C   LIG A   1      -7.874  -3.313 129.489  0.00  0.00    +0.005 C 
BRANCH   5   6
ATOM      6  C   LIG A   1      -7.206  -1.889 129.367  0.00  0.00    +0.035 C 
BRANCH   6   7
ATOM      7  C   LIG A   1      -7.836  -0.593 129.915  0.00  0.00    -0.044 A 
ATOM      8  C   LIG A   1      -7.921   0.551 129.080  0.00  0.00    +0.053 A 
ATOM      9  C   LIG A   1      -8.530   1.716 129.547  0.00  0.00    +0.167 A 
ATOM     10  O   LIG A   1      -8.771   2.844 128.814  0.00  0.00    -0.453 OA
ATOM     11  C   LIG A   1      -9.223   3.743 129.851  0.00  0.00    +0.466 C 
ATOM     12  O   LIG A   1      -9.548   3.055 131.079  0.00  0.00    -0.453 OA
ATOM     13  C   LIG A   1      -9.000   1.831 130.828  0.00  0.00    +0.166 A 
ATOM     14  C   LIG A   1      -8.951   0.749 131.679  0.00  0.00    +0.050 A 
ATOM     15  C   LIG A   1      -8.443  -0.481 131.185  0.00  0.00    +0.007 A 
ENDBRANCH   6   7
ENDBRANCH   5   6
ENDBRANCH   4   5
ENDBRANCH   3   4
ENDBRANCH   2   3
ENDBRANCH   1   2
BRANCH   1  16
ATOM     16  C   LIG A   1      -9.150  -2.769 123.253  0.00  0.00    -0.000 C 
BRANCH  16  17
ATOM     17  C   LIG A   1      -8.056  -1.647 123.128  0.00  0.00    -0.000 C 
BRANCH  17  18
ATOM     18  C   LIG A   1      -6.622  -1.856 122.554  0.00  0.00    -0.000 C 
BRANCH  18  19
ATOM     19  C   LIG A   1      -5.436  -2.100 123.540  0.00  0.00    -0.000 C 
BRANCH  19  20
ATOM     20  C   LIG A   1      -5.632  -2.834 124.890  0.00  0.00    -0.000 C 
BRANCH  20  21
ATOM     21  C   LIG A   1      -5.370  -1.914 126.043  0.00  0.00    -0.000 C 
BRANCH  21  22
ATOM     22  C   LIG A   1      -6.086  -0.552 126.057  0.00  0.00    +0.000 C 
BRANCH  22  23
ATOM     23  C   LIG A   1      -5.262   0.763 126.011  0.00  0.00    +0.000 C 
BRANCH  23  24
ATOM     24  C   LIG A   1      -6.026   1.980 125.471  0.00  0.00    +0.011 C 
BRANCH  24  25
ATOM     25  C   LIG A   1      -6.979   1.968 124.329  0.00  0.00    +0.120 C 
BRANCH  25  26
ATOM     26  C   LIG A   1      -8.224   2.753 124.698  0.00  0.00    +0.305 C 
ATOM     27  O   LIG A   1      -9.038   2.437 125.474  0.00  0.00    -0.251 OA
BRANCH  26  28
ATOM     28  O   LIG A   1      -8.212   3.936 124.011  0.00  0.00    -0.481 OA
ATOM     29  H   LIG A   1      -9.099   4.171 123.666  0.00  0.00    +0.295 HD
ENDBRANCH  26  28
ENDBRANCH  25  26
ENDBRANCH  24  25
ENDBRANCH  23  24
ENDBRANCH  22  23
ENDBRANCH  21  22
ENDBRANCH  20  21
ENDBRANCH  19  20
ENDBRANCH  18  19
ENDBRANCH  17  18
ENDBRANCH  16  17
ENDBRANCH   1  16
TORSDOF 18
ENDMDL
MODEL 5
REMARK VINA RESULT:      -5.8      5.577      9.517
REMARK  Name = NuBBE_185
REMARK  18 active torsions:
REMARK  status: ('A' for Active; 'I' for Inactive)
REMARK    1  A    between atoms: O_1  and  C_2
REMARK    2  A    between atoms: C_2  and  C_3
REMARK    3  A    between atoms: C_3  and  C_4
REMARK    4  A    between atoms: C_4  and  C_5
REMARK    5  A    between atoms: C_5  and  C_6
REMARK    6  A    between atoms: C_6  and  C_7
REMARK    7  A    between atoms: C_7  and  C_8
REMARK    8  A    between atoms: C_8  and  C_9
REMARK    9  A    between atoms: C_9  and  C_10
REMARK   10  A    between atoms: C_10  and  C_11
REMARK   11  A    between atoms: C_11  and  C_12
REMARK   12  A    between atoms: C_12  and  C_13
REMARK   13  A    between atoms: C_13  and  C_14
REMARK   14  A    between atoms: C_14  and  C_15
REMARK   15  A    between atoms: C_15  and  C_16
REMARK   16  A    between atoms: C_16  and  C_17
REMARK   17  A    between atoms: C_17  and  C_18
REMARK   18  A    between atoms: C_18  and  C_19
REMARK                            x       y       z     vdW  Elec       q    Type
REMARK                         _______ _______ _______ _____ _____    ______ ____
ROOT
ATOM      1  C   LIG A   1      -8.797   2.236 132.201  0.00  0.00    -0.000 C 
ENDROOT
BRANCH   1   2
ATOM      2  C   LIG A   1      -9.273   3.071 133.386  0.00  0.00    -0.000 C 
BRANCH   2   3
ATOM      3  C   LIG A   1      -8.297   3.932 134.266  0.00  0.00    +0.000 C 
BRANCH   3   4
ATOM      4  C   LIG A   1      -8.348   5.434 133.934  0.00  0.00    +0.000 C 
BRANCH   4   5
ATOM      5  C   LIG A   1      -7.443   6.075 132.825  0.00  0.00    +0.005 C 
BRANCH   5   6
ATOM      6  C   LIG A   1      -8.139   5.875 131.423  0.00  0.00    +0.035 C 
BRANCH   6   7
ATOM      7  C   LIG A   1      -9.516   6.462 131.055  0.00  0.00    -0.044 A 
ATOM      8  C   LIG A   1      -9.635   7.310 129.923  0.00  0.00    +0.053 A 
ATOM      9  C   LIG A   1     -10.881   7.812 129.550  0.00  0.00    +0.167 A 
ATOM     10  O   LIG A   1     -11.148   8.545 128.428  0.00  0.00    -0.453 OA
ATOM     11  C   LIG A   1     -12.518   8.928 128.681  0.00  0.00    +0.466 C 
ATOM     12  O   LIG A   1     -13.120   8.164 129.749  0.00  0.00    -0.453 OA
ATOM     13  C   LIG A   1     -12.013   7.574 130.284  0.00  0.00    +0.166 A 
ATOM     14  C   LIG A   1     -11.957   6.751 131.387  0.00  0.00    +0.050 A 
ATOM     15  C   LIG A   1     -10.720   6.135 131.714  0.00  0.00    +0.007 A 
ENDBRANCH   6   7
ENDBRANCH   5   6
ENDBRANCH   4   5
ENDBRANCH   3   4
ENDBRANCH   2   3
ENDBRANCH   1   2
BRANCH   1  16
ATOM     16  C   LIG A   1      -9.375   0.845 131.933  0.00  0.00    -0.000 C 
BRANCH  16  17
ATOM     17  C   LIG A   1      -8.503  -0.317 131.333  0.00  0.00    -0.000 C 
BRANCH  17  18
ATOM     18  C   LIG A   1      -7.908  -0.336 129.891  0.00  0.00    -0.000 C 
BRANCH  18  19
ATOM     19  C   LIG A   1      -6.608  -1.155 129.616  0.00  0.00    -0.000 C 
BRANCH  19  20
ATOM     20  C   LIG A   1      -6.654  -2.630 129.145  0.00  0.00    -0.000 C 
BRANCH  20  21
ATOM     21  C   LIG A   1      -8.015  -3.218 129.356  0.00  0.00    -0.000 C 
BRANCH  21  22
ATOM     22  C   LIG A   1      -8.700  -3.901 128.158  0.00  0.00    +0.000 C 
BRANCH  22  23
ATOM     23  C   LIG A   1      -9.072  -3.076 126.897  0.00  0.00    +0.000 C 
BRANCH  23  24
ATOM     24  C   LIG A   1      -8.040  -3.138 125.762  0.00  0.00    +0.011 C 
BRANCH  24  25
ATOM     25  C   LIG A   1      -8.186  -3.910 124.500  0.00  0.00    +0.120 C 
BRANCH  25  26
ATOM     26  C   LIG A   1      -8.891  -3.057 123.462  0.00  0.00    +0.305 C 
ATOM     27  O   LIG A   1      -8.402  -2.232 122.796  0.00  0.00    -0.251 OA
BRANCH  26  28
ATOM     28  O   LIG A   1     -10.197  -3.455 123.385  0.00  0.00    -0.481 OA
ATOM     29  H   LIG A   1     -10.547  -3.398 122.472  0.00  0.00    +0.295 HD
ENDBRANCH  26  28
ENDBRANCH  25  26
ENDBRANCH  24  25
ENDBRANCH  23  24
ENDBRANCH  22  23
ENDBRANCH  21  22
ENDBRANCH  20  21
ENDBRANCH  19  20
ENDBRANCH  18  19
ENDBRANCH  17  18
ENDBRANCH  16  17
ENDBRANCH   1  16
TORSDOF 18
ENDMDL
MODEL 6
REMARK VINA RESULT:      -5.7      6.159      9.998
REMARK  Name = NuBBE_185
REMARK  18 active torsions:
REMARK  status: ('A' for Active; 'I' for Inactive)
REMARK    1  A    between atoms: O_1  and  C_2
REMARK    2  A    between atoms: C_2  and  C_3
REMARK    3  A    between atoms: C_3  and  C_4
REMARK    4  A    between atoms: C_4  and  C_5
REMARK    5  A    between atoms: C_5  and  C_6
REMARK    6  A    between atoms: C_6  and  C_7
REMARK    7  A    between atoms: C_7  and  C_8
REMARK    8  A    between atoms: C_8  and  C_9
REMARK    9  A    between atoms: C_9  and  C_10
REMARK   10  A    between atoms: C_10  and  C_11
REMARK   11  A    between atoms: C_11  and  C_12
REMARK   12  A    between atoms: C_12  and  C_13
REMARK   13  A    between atoms: C_13  and  C_14
REMARK   14  A    between atoms: C_14  and  C_15
REMARK   15  A    between atoms: C_15  and  C_16
REMARK   16  A    between atoms: C_16  and  C_17
REMARK   17  A    between atoms: C_17  and  C_18
REMARK   18  A    between atoms: C_18  and  C_19
REMARK                            x       y       z     vdW  Elec       q    Type
REMARK                         _______ _______ _______ _____ _____    ______ ____
ROOT
ATOM      1  C   LIG A   1      -7.742   1.908 132.778  0.00  0.00    -0.000 C 
ENDROOT
BRANCH   1   2
ATOM      2  C   LIG A   1      -7.437   3.038 133.756  0.00  0.00    -0.000 C 
BRANCH   2   3
ATOM      3  C   LIG A   1      -8.545   4.002 134.315  0.00  0.00    +0.000 C 
BRANCH   3   4
ATOM      4  C   LIG A   1      -8.303   5.477 133.951  0.00  0.00    +0.000 C 
BRANCH   4   5
ATOM      5  C   LIG A   1      -8.599   6.044 132.519  0.00  0.00    +0.005 C 
BRANCH   5   6
ATOM      6  C   LIG A   1     -10.161   6.166 132.334  0.00  0.00    +0.035 C 
BRANCH   6   7
ATOM      7  C   LIG A   1     -10.842   6.565 131.010  0.00  0.00    -0.044 A 
ATOM      8  C   LIG A   1     -10.080   6.598 129.813  0.00  0.00    +0.053 A 
ATOM      9  C   LIG A   1     -10.691   6.913 128.600  0.00  0.00    +0.167 A 
ATOM     10  O   LIG A   1     -10.099   6.876 127.370  0.00  0.00    -0.453 OA
ATOM     11  C   LIG A   1     -11.133   7.474 126.558  0.00  0.00    +0.466 C 
ATOM     12  O   LIG A   1     -12.404   7.545 127.242  0.00  0.00    -0.453 OA
ATOM     13  C   LIG A   1     -12.012   7.268 128.519  0.00  0.00    +0.166 A 
ATOM     14  C   LIG A   1     -12.801   7.244 129.648  0.00  0.00    +0.050 A 
ATOM     15  C   LIG A   1     -12.225   6.812 130.871  0.00  0.00    +0.007 A 
ENDBRANCH   6   7
ENDBRANCH   5   6
ENDBRANCH   4   5
ENDBRANCH   3   4
ENDBRANCH   2   3
ENDBRANCH   1   2
BRANCH   1  16
ATOM     16  C   LIG A   1      -9.181   1.594 132.360  0.00  0.00    -0.000 C 
BRANCH  16  17
ATOM     17  C   LIG A   1     -10.003   2.553 131.424  0.00  0.00    -0.000 C 
BRANCH  17  18
ATOM     18  C   LIG A   1      -9.532   3.061 130.027  0.00  0.00    -0.000 C 
BRANCH  18  19
ATOM     19  C   LIG A   1      -8.054   2.818 129.589  0.00  0.00    -0.000 C 
BRANCH  19  20
ATOM     20  C   LIG A   1      -7.147   3.972 129.093  0.00  0.00    -0.000 C 
BRANCH  20  21
ATOM     21  C   LIG A   1      -6.260   4.467 130.193  0.00  0.00    -0.000 C 
BRANCH  21  22
ATOM     22  C   LIG A   1      -5.114   3.553 130.664  0.00  0.00    +0.000 C 
BRANCH  22  23
ATOM     23  C   LIG A   1      -4.085   3.001 129.640  0.00  0.00    +0.000 C 
BRANCH  23  24
ATOM     24  C   LIG A   1      -3.228   4.073 128.952  0.00  0.00    +0.011 C 
BRANCH  24  25
ATOM     25  C   LIG A   1      -3.082   4.255 127.484  0.00  0.00    +0.120 C 
BRANCH  25  26
ATOM     26  C   LIG A   1      -2.392   3.041 126.888  0.00  0.00    +0.305 C 
ATOM     27  O   LIG A   1      -1.240   2.870 126.805  0.00  0.00    -0.251 OA
BRANCH  26  28
ATOM     28  O   LIG A   1      -3.349   2.138 126.512  0.00  0.00    -0.481 OA
ATOM     29  H   LIG A   1      -4.175   2.240 127.028  0.00  0.00    +0.295 HD
ENDBRANCH  26  28
ENDBRANCH  25  26
ENDBRANCH  24  25
ENDBRANCH  23  24
ENDBRANCH  22  23
ENDBRANCH  21  22
ENDBRANCH  20  21
ENDBRANCH  19  20
ENDBRANCH  18  19
ENDBRANCH  17  18
ENDBRANCH  16  17
ENDBRANCH   1  16
TORSDOF 18
ENDMDL
MODEL 7
REMARK VINA RESULT:      -5.6      5.101      8.429
REMARK  Name = NuBBE_185
REMARK  18 active torsions:
REMARK  status: ('A' for Active; 'I' for Inactive)
REMARK    1  A    between atoms: O_1  and  C_2
REMARK    2  A    between atoms: C_2  and  C_3
REMARK    3  A    between atoms: C_3  and  C_4
REMARK    4  A    between atoms: C_4  and  C_5
REMARK    5  A    between atoms: C_5  and  C_6
REMARK    6  A    between atoms: C_6  and  C_7
REMARK    7  A    between atoms: C_7  and  C_8
REMARK    8  A    between atoms: C_8  and  C_9
REMARK    9  A    between atoms: C_9  and  C_10
REMARK   10  A    between atoms: C_10  and  C_11
REMARK   11  A    between atoms: C_11  and  C_12
REMARK   12  A    between atoms: C_12  and  C_13
REMARK   13  A    between atoms: C_13  and  C_14
REMARK   14  A    between atoms: C_14  and  C_15
REMARK   15  A    between atoms: C_15  and  C_16
REMARK   16  A    between atoms: C_16  and  C_17
REMARK   17  A    between atoms: C_17  and  C_18
REMARK   18  A    between atoms: C_18  and  C_19
REMARK                            x       y       z     vdW  Elec       q    Type
REMARK                         _______ _______ _______ _____ _____    ______ ____
ROOT
ATOM      1  C   LIG A   1      -9.165   3.138 129.947  0.00  0.00    -0.000 C 
ENDROOT
BRANCH   1   2
ATOM      2  C   LIG A   1     -10.112   2.683 131.054  0.00  0.00    -0.000 C 
BRANCH   2   3
ATOM      3  C   LIG A   1      -9.605   2.054 132.401  0.00  0.00    +0.000 C 
BRANCH   3   4
ATOM      4  C   LIG A   1      -8.580   2.937 133.134  0.00  0.00    +0.000 C 
BRANCH   4   5
ATOM      5  C   LIG A   1      -9.004   4.207 133.952  0.00  0.00    +0.005 C 
BRANCH   5   6
ATOM      6  C   LIG A   1      -8.651   5.493 133.109  0.00  0.00    +0.035 C 
BRANCH   6   7
ATOM      7  C   LIG A   1      -9.619   6.158 132.109  0.00  0.00    -0.044 A 
ATOM      8  C   LIG A   1      -9.105   6.744 130.923  0.00  0.00    +0.053 A 
ATOM      9  C   LIG A   1      -9.971   7.308 129.987  0.00  0.00    +0.167 A 
ATOM     10  O   LIG A   1      -9.619   7.805 128.765  0.00  0.00    -0.453 OA
ATOM     11  C   LIG A   1     -10.865   8.408 128.352  0.00  0.00    +0.466 C 
ATOM     12  O   LIG A   1     -11.983   7.981 129.163  0.00  0.00    -0.453 OA
ATOM     13  C   LIG A   1     -11.323   7.385 130.197  0.00  0.00    +0.166 A 
ATOM     14  C   LIG A   1     -11.876   6.824 131.327  0.00  0.00    +0.050 A 
ATOM     15  C   LIG A   1     -11.024   6.142 132.234  0.00  0.00    +0.007 A 
ENDBRANCH   6   7
ENDBRANCH   5   6
ENDBRANCH   4   5
ENDBRANCH   3   4
ENDBRANCH   2   3
ENDBRANCH   1   2
BRANCH   1  16
ATOM     16  C   LIG A   1      -8.642   2.151 128.901  0.00  0.00    -0.000 C 
BRANCH  16  17
ATOM     17  C   LIG A   1      -7.568   1.058 129.252  0.00  0.00    -0.000 C 
BRANCH  17  18
ATOM     18  C   LIG A   1      -7.729  -0.471 128.990  0.00  0.00    -0.000 C 
BRANCH  18  19
ATOM     19  C   LIG A   1      -6.456  -1.335 128.726  0.00  0.00    -0.000 C 
BRANCH  19  20
ATOM     20  C   LIG A   1      -5.406  -0.940 127.657  0.00  0.00    -0.000 C 
BRANCH  20  21
ATOM     21  C   LIG A   1      -6.041  -0.799 126.309  0.00  0.00    -0.000 C 
BRANCH  21  22
ATOM     22  C   LIG A   1      -6.170   0.615 125.715  0.00  0.00    +0.000 C 
BRANCH  22  23
ATOM     23  C   LIG A   1      -5.220   1.749 126.187  0.00  0.00    +0.000 C 
BRANCH  23  24
ATOM     24  C   LIG A   1      -5.669   3.165 125.798  0.00  0.00    +0.011 C 
BRANCH  24  25
ATOM     25  C   LIG A   1      -6.622   4.012 126.563  0.00  0.00    +0.120 C 
BRANCH  25  26
ATOM     26  C   LIG A   1      -7.556   4.722 125.600  0.00  0.00    +0.305 C 
ATOM     27  O   LIG A   1      -8.683   4.477 125.421  0.00  0.00    -0.251 OA
BRANCH  26  28
ATOM     28  O   LIG A   1      -6.873   5.748 125.009  0.00  0.00    -0.481 OA
ATOM     29  H   LIG A   1      -7.085   5.833 124.056  0.00  0.00    +0.295 HD
ENDBRANCH  26  28
ENDBRANCH  25  26
ENDBRANCH  24  25
ENDBRANCH  23  24
ENDBRANCH  22  23
ENDBRANCH  21  22
ENDBRANCH  20  21
ENDBRANCH  19  20
ENDBRANCH  18  19
ENDBRANCH  17  18
ENDBRANCH  16  17
ENDBRANCH   1  16
TORSDOF 18
ENDMDL
MODEL 8
REMARK VINA RESULT:      -5.6      5.183      9.392
REMARK  Name = NuBBE_185
REMARK  18 active torsions:
REMARK  status: ('A' for Active; 'I' for Inactive)
REMARK    1  A    between atoms: O_1  and  C_2
REMARK    2  A    between atoms: C_2  and  C_3
REMARK    3  A    between atoms: C_3  and  C_4
REMARK    4  A    between atoms: C_4  and  C_5
REMARK    5  A    between atoms: C_5  and  C_6
REMARK    6  A    between atoms: C_6  and  C_7
REMARK    7  A    between atoms: C_7  and  C_8
REMARK    8  A    between atoms: C_8  and  C_9
REMARK    9  A    between atoms: C_9  and  C_10
REMARK   10  A    between atoms: C_10  and  C_11
REMARK   11  A    between atoms: C_11  and  C_12
REMARK   12  A    between atoms: C_12  and  C_13
REMARK   13  A    between atoms: C_13  and  C_14
REMARK   14  A    between atoms: C_14  and  C_15
REMARK   15  A    between atoms: C_15  and  C_16
REMARK   16  A    between atoms: C_16  and  C_17
REMARK   17  A    between atoms: C_17  and  C_18
REMARK   18  A    between atoms: C_18  and  C_19
REMARK                            x       y       z     vdW  Elec       q    Type
REMARK                         _______ _______ _______ _____ _____    ______ ____
ROOT
ATOM      1  C   LIG A   1      -8.932   3.256 130.178  0.00  0.00    -0.000 C 
ENDROOT
BRANCH   1   2
ATOM      2  C   LIG A   1     -10.006   2.721 131.121  0.00  0.00    -0.000 C 
BRANCH   2   3
ATOM      3  C   LIG A   1      -9.693   2.255 132.588  0.00  0.00    +0.000 C 
BRANCH   3   4
ATOM      4  C   LIG A   1      -8.449   2.935 133.188  0.00  0.00    +0.000 C 
BRANCH   4   5
ATOM      5  C   LIG A   1      -8.556   4.103 134.230  0.00  0.00    +0.005 C 
BRANCH   5   6
ATOM      6  C   LIG A   1      -8.235   5.464 133.501  0.00  0.00    +0.035 C 
BRANCH   6   7
ATOM      7  C   LIG A   1      -9.096   6.058 132.369  0.00  0.00    -0.044 A 
ATOM      8  C   LIG A   1     -10.511   6.039 132.482  0.00  0.00    +0.053 A 
ATOM      9  C   LIG A   1     -11.303   6.613 131.488  0.00  0.00    +0.167 A 
ATOM     10  O   LIG A   1     -12.660   6.756 131.527  0.00  0.00    -0.453 OA
ATOM     11  C   LIG A   1     -12.918   7.219 130.183  0.00  0.00    +0.466 C 
ATOM     12  O   LIG A   1     -11.716   7.645 129.503  0.00  0.00    -0.453 OA
ATOM     13  C   LIG A   1     -10.767   7.147 130.346  0.00  0.00    +0.166 A 
ATOM     14  C   LIG A   1      -9.399   7.199 130.187  0.00  0.00    +0.050 A 
ATOM     15  C   LIG A   1      -8.574   6.727 131.241  0.00  0.00    +0.007 A 
ENDBRANCH   6   7
ENDBRANCH   5   6
ENDBRANCH   4   5
ENDBRANCH   3   4
ENDBRANCH   2   3
ENDBRANCH   1   2
BRANCH   1  16
ATOM     16  C   LIG A   1      -8.132   2.312 129.278  0.00  0.00    -0.000 C 
BRANCH  16  17
ATOM     17  C   LIG A   1      -7.341   1.082 129.856  0.00  0.00    -0.000 C 
BRANCH  17  18
ATOM     18  C   LIG A   1      -7.995  -0.195 130.466  0.00  0.00    -0.000 C 
BRANCH  18  19
ATOM     19  C   LIG A   1      -7.227  -0.992 131.566  0.00  0.00    -0.000 C 
BRANCH  19  20
ATOM     20  C   LIG A   1      -7.194  -2.540 131.583  0.00  0.00    -0.000 C 
BRANCH  20  21
ATOM     21  C   LIG A   1      -7.887  -3.104 130.381  0.00  0.00    -0.000 C 
BRANCH  21  22
ATOM     22  C   LIG A   1      -7.018  -3.602 129.213  0.00  0.00    +0.000 C 
BRANCH  22  23
ATOM     23  C   LIG A   1      -6.250  -2.586 128.323  0.00  0.00    +0.000 C 
BRANCH  23  24
ATOM     24  C   LIG A   1      -4.741  -2.509 128.595  0.00  0.00    +0.011 C 
BRANCH  24  25
ATOM     25  C   LIG A   1      -3.915  -3.583 129.205  0.00  0.00    +0.120 C 
BRANCH  25  26
ATOM     26  C   LIG A   1      -3.433  -3.139 130.574  0.00  0.00    +0.305 C 
ATOM     27  O   LIG A   1      -3.456  -3.770 131.555  0.00  0.00    -0.251 OA
BRANCH  26  28
ATOM     28  O   LIG A   1      -2.903  -1.882 130.461  0.00  0.00    -0.481 OA
ATOM     29  H   LIG A   1      -2.748  -1.468 131.335  0.00  0.00    +0.295 HD
ENDBRANCH  26  28
ENDBRANCH  25  26
ENDBRANCH  24  25
ENDBRANCH  23  24
ENDBRANCH  22  23
ENDBRANCH  21  22
ENDBRANCH  20  21
ENDBRANCH  19  20
ENDBRANCH  18  19
ENDBRANCH  17  18
ENDBRANCH  16  17
ENDBRANCH   1  16
TORSDOF 18
ENDMDL
MODEL 9
REMARK VINA RESULT:      -5.5      3.107      5.800
REMARK  Name = NuBBE_185
REMARK  18 active torsions:
REMARK  status: ('A' for Active; 'I' for Inactive)
REMARK    1  A    between atoms: O_1  and  C_2
REMARK    2  A    between atoms: C_2  and  C_3
REMARK    3  A    between atoms: C_3  and  C_4
REMARK    4  A    between atoms: C_4  and  C_5
REMARK    5  A    between atoms: C_5  and  C_6
REMARK    6  A    between atoms: C_6  and  C_7
REMARK    7  A    between atoms: C_7  and  C_8
REMARK    8  A    between atoms: C_8  and  C_9
REMARK    9  A    between atoms: C_9  and  C_10
REMARK   10  A    between atoms: C_10  and  C_11
REMARK   11  A    between atoms: C_11  and  C_12
REMARK   12  A    between atoms: C_12  and  C_13
REMARK   13  A    between atoms: C_13  and  C_14
REMARK   14  A    between atoms: C_14  and  C_15
REMARK   15  A    between atoms: C_15  and  C_16
REMARK   16  A    between atoms: C_16  and  C_17
REMARK   17  A    between atoms: C_17  and  C_18
REMARK   18  A    between atoms: C_18  and  C_19
REMARK                            x       y       z     vdW  Elec       q    Type
REMARK                         _______ _______ _______ _____ _____    ______ ____
ROOT
ATOM      1  C   LIG A   1      -8.738  -3.748 124.864  0.00  0.00    -0.000 C 
ENDROOT
BRANCH   1   2
ATOM      2  C   LIG A   1      -8.988  -3.033 123.540  0.00  0.00    -0.000 C 
BRANCH   2   3
ATOM      3  C   LIG A   1      -8.211  -1.736 123.115  0.00  0.00    +0.000 C 
BRANCH   3   4
ATOM      4  C   LIG A   1      -6.700  -1.966 122.935  0.00  0.00    +0.000 C 
BRANCH   4   5
ATOM      5  C   LIG A   1      -5.702  -1.946 124.144  0.00  0.00    +0.005 C 
BRANCH   5   6
ATOM      6  C   LIG A   1      -6.298  -1.027 125.280  0.00  0.00    +0.035 C 
BRANCH   6   7
ATOM      7  C   LIG A   1      -6.026   0.486 125.393  0.00  0.00    -0.044 A 
ATOM      8  C   LIG A   1      -4.931   0.944 126.171  0.00  0.00    +0.053 A 
ATOM      9  C   LIG A   1      -4.643   2.306 126.246  0.00  0.00    +0.167 A 
ATOM     10  O   LIG A   1      -3.564   2.865 126.868  0.00  0.00    -0.453 OA
ATOM     11  C   LIG A   1      -3.903   4.267 126.782  0.00  0.00    +0.466 C 
ATOM     12  O   LIG A   1      -4.976   4.521 125.849  0.00  0.00    -0.453 OA
ATOM     13  C   LIG A   1      -5.430   3.252 125.643  0.00  0.00    +0.166 A 
ATOM     14  C   LIG A   1      -6.500   2.864 124.867  0.00  0.00    +0.050 A 
ATOM     15  C   LIG A   1      -6.738   1.477 124.683  0.00  0.00    +0.007 A 
ENDBRANCH   6   7
ENDBRANCH   5   6
ENDBRANCH   4   5
ENDBRANCH   3   4
ENDBRANCH   2   3
ENDBRANCH   1   2
BRANCH   1  16
ATOM     16  C   LIG A   1      -9.225  -3.152 126.188  0.00  0.00    -0.000 C 
BRANCH  16  17
ATOM     17  C   LIG A   1      -8.974  -3.867 127.565  0.00  0.00    -0.000 C 
BRANCH  17  18
ATOM     18  C   LIG A   1      -8.367  -3.187 128.829  0.00  0.00    -0.000 C 
BRANCH  18  19
ATOM     19  C   LIG A   1      -7.579  -1.849 128.668  0.00  0.00    -0.000 C 
BRANCH  19  20
ATOM     20  C   LIG A   1      -7.763  -0.667 129.653  0.00  0.00    -0.000 C 
BRANCH  20  21
ATOM     21  C   LIG A   1      -7.169   0.590 129.098  0.00  0.00    -0.000 C 
BRANCH  21  22
ATOM     22  C   LIG A   1      -8.102   1.563 128.354  0.00  0.00    +0.000 C 
BRANCH  22  23
ATOM     23  C   LIG A   1      -7.775   3.081 128.315  0.00  0.00    +0.000 C 
BRANCH  23  24
ATOM     24  C   LIG A   1      -7.965   3.813 129.651  0.00  0.00    +0.011 C 
BRANCH  24  25
ATOM     25  C   LIG A   1      -9.110   3.631 130.582  0.00  0.00    +0.120 C 
BRANCH  25  26
ATOM     26  C   LIG A   1     -10.204   4.627 130.243  0.00  0.00    +0.305 C 
ATOM     27  O   LIG A   1     -10.208   5.372 129.344  0.00  0.00    -0.251 OA
BRANCH  26  28
ATOM     28  O   LIG A   1     -11.227   4.470 131.137  0.00  0.00    -0.481 OA
ATOM     29  H   LIG A   1     -11.322   5.245 131.729  0.00  0.00    +0.295 HD
ENDBRANCH  26  28
ENDBRANCH  25  26
ENDBRANCH  24  25
ENDBRANCH  23  24
ENDBRANCH  22  23
ENDBRANCH  21  22
ENDBRANCH  20  21
ENDBRANCH  19  20
ENDBRANCH  18  19
ENDBRANCH  17  18
ENDBRANCH  16  17
ENDBRANCH   1  16
TORSDOF 18
ENDMDL
