MODEL 1
REMARK VINA RESULT:      -6.0      0.000      0.000
REMARK  Name = NuBBE_1180
REMARK  4 active torsions:
REMARK  status: ('A' for Active; 'I' for Inactive)
REMARK    1  A    between atoms: C_1  and  O_2
REMARK    2  A    between atoms: O_2  and  C_3
REMARK    3  A    between atoms: C_4  and  O_5
REMARK    4  A    between atoms: O_5  and  C_6
REMARK                            x       y       z     vdW  Elec       q    Type
REMARK                         _______ _______ _______ _____ _____    ______ ____
ROOT
ATOM      1  C   LIG A   1      -7.074   2.964 124.568  0.00  0.00    +0.162 A 
ATOM      2  C   LIG A   1      -8.357   2.779 124.017  0.00  0.00    +0.165 A 
ATOM      3  C   LIG A   1      -8.553   3.042 122.660  0.00  0.00    +0.096 A 
ATOM      4  C   LIG A   1      -7.504   3.514 121.883  0.00  0.00    +0.143 A 
ATOM      5  O   LIG A   1      -7.808   3.784 120.523  0.00  0.00    -0.422 OA
ATOM      6  C   LIG A   1      -6.853   4.299 119.671  0.00  0.00    +0.337 A 
ATOM      7  C   LIG A   1      -5.510   4.502 120.231  0.00  0.00    +0.092 A 
ATOM      8  C   LIG A   1      -5.202   4.228 121.509  0.00  0.00    +0.019 A 
ATOM      9  O   LIG A   1      -7.101   4.564 118.506  0.00  0.00    -0.245 OA
ATOM     10  C   LIG A   1      -6.235   3.721 122.401  0.00  0.00    +0.021 A 
ATOM     11  C   LIG A   1      -6.022   3.439 123.755  0.00  0.00    +0.061 A 
ENDROOT
BRANCH   1  13
ATOM     12  C   LIG A   1      -5.434   2.185 126.126  0.00  0.00    +0.277 C 
ATOM     13  O   LIG A   1      -6.714   2.765 125.880  0.00  0.00    -0.491 OA
ENDBRANCH   1  13
BRANCH   2  14
ATOM     14  O   LIG A   1      -9.367   2.368 124.844  0.00  0.00    -0.491 OA
ATOM     15  C   LIG A   1     -10.145   1.250 124.437  0.00  0.00    +0.277 C 
ENDBRANCH   2  14
TORSDOF 2
ENDMDL
MODEL 2
REMARK VINA RESULT:      -5.9      7.963     10.257
REMARK  Name = NuBBE_1180
REMARK  4 active torsions:
REMARK  status: ('A' for Active; 'I' for Inactive)
REMARK    1  A    between atoms: C_1  and  O_2
REMARK    2  A    between atoms: O_2  and  C_3
REMARK    3  A    between atoms: C_4  and  O_5
REMARK    4  A    between atoms: O_5  and  C_6
REMARK                            x       y       z     vdW  Elec       q    Type
REMARK                         _______ _______ _______ _____ _____    ______ ____
ROOT
ATOM      1  C   LIG A   1     -10.767   7.949 129.193  0.00  0.00    +0.162 A 
ATOM      2  C   LIG A   1     -11.850   7.449 129.942  0.00  0.00    +0.165 A 
ATOM      3  C   LIG A   1     -11.588   6.728 131.108  0.00  0.00    +0.096 A 
ATOM      4  C   LIG A   1     -10.278   6.480 131.495  0.00  0.00    +0.143 A 
ATOM      5  O   LIG A   1     -10.111   5.711 132.678  0.00  0.00    -0.422 OA
ATOM      6  C   LIG A   1      -8.855   5.368 133.130  0.00  0.00    +0.337 A 
ATOM      7  C   LIG A   1      -7.713   5.878 132.357  0.00  0.00    +0.092 A 
ATOM      8  C   LIG A   1      -7.856   6.627 131.251  0.00  0.00    +0.019 A 
ATOM      9  O   LIG A   1      -8.690   4.684 134.126  0.00  0.00    -0.245 OA
ATOM     10  C   LIG A   1      -9.192   6.946 130.771  0.00  0.00    +0.021 A 
ATOM     11  C   LIG A   1      -9.443   7.689 129.612  0.00  0.00    +0.061 A 
ENDROOT
BRANCH   1  13
ATOM     12  C   LIG A   1     -10.799   7.925 126.801  0.00  0.00    +0.277 C 
ATOM     13  O   LIG A   1     -10.847   8.663 128.021  0.00  0.00    -0.491 OA
ENDBRANCH   1  13
BRANCH   2  14
ATOM     14  O   LIG A   1     -13.118   7.673 129.481  0.00  0.00    -0.491 OA
ATOM     15  C   LIG A   1     -13.662   6.740 128.556  0.00  0.00    +0.277 C 
ENDBRANCH   2  14
TORSDOF 2
ENDMDL
MODEL 3
REMARK VINA RESULT:      -5.8      8.549      8.849
REMARK  Name = NuBBE_1180
REMARK  4 active torsions:
REMARK  status: ('A' for Active; 'I' for Inactive)
REMARK    1  A    between atoms: C_1  and  O_2
REMARK    2  A    between atoms: O_2  and  C_3
REMARK    3  A    between atoms: C_4  and  O_5
REMARK    4  A    between atoms: O_5  and  C_6
REMARK                            x       y       z     vdW  Elec       q    Type
REMARK                         _______ _______ _______ _____ _____    ______ ____
ROOT
ATOM      1  C   LIG A   1      -8.829   6.194 131.300  0.00  0.00    +0.162 A 
ATOM      2  C   LIG A   1      -9.783   5.164 131.418  0.00  0.00    +0.165 A 
ATOM      3  C   LIG A   1     -10.897   5.176 130.578  0.00  0.00    +0.096 A 
ATOM      4  C   LIG A   1     -11.073   6.211 129.669  0.00  0.00    +0.143 A 
ATOM      5  O   LIG A   1     -12.253   6.155 128.880  0.00  0.00    -0.422 OA
ATOM      6  C   LIG A   1     -12.551   7.153 127.977  0.00  0.00    +0.337 A 
ATOM      7  C   LIG A   1     -11.568   8.238 127.844  0.00  0.00    +0.092 A 
ATOM      8  C   LIG A   1     -10.437   8.291 128.565  0.00  0.00    +0.019 A 
ATOM      9  O   LIG A   1     -13.573   7.138 127.310  0.00  0.00    -0.245 OA
ATOM     10  C   LIG A   1     -10.160   7.246 129.540  0.00  0.00    +0.021 A 
ATOM     11  C   LIG A   1      -9.027   7.232 130.362  0.00  0.00    +0.061 A 
ENDROOT
BRANCH   1  13
ATOM     12  C   LIG A   1      -6.507   6.763 131.375  0.00  0.00    +0.277 C 
ATOM     13  O   LIG A   1      -7.688   6.339 132.053  0.00  0.00    -0.491 OA
ENDBRANCH   1  13
BRANCH   2  14
ATOM     14  O   LIG A   1      -9.587   4.203 132.372  0.00  0.00    -0.491 OA
ATOM     15  C   LIG A   1      -9.489   2.852 131.942  0.00  0.00    +0.277 C 
ENDBRANCH   2  14
TORSDOF 2
ENDMDL
MODEL 4
REMARK VINA RESULT:      -5.8      8.691      9.867
REMARK  Name = NuBBE_1180
REMARK  4 active torsions:
REMARK  status: ('A' for Active; 'I' for Inactive)
REMARK    1  A    between atoms: C_1  and  O_2
REMARK    2  A    between atoms: O_2  and  C_3
REMARK    3  A    between atoms: C_4  and  O_5
REMARK    4  A    between atoms: O_5  and  C_6
REMARK                            x       y       z     vdW  Elec       q    Type
REMARK                         _______ _______ _______ _____ _____    ______ ____
ROOT
ATOM      1  C   LIG A   1      -8.669   5.734 132.858  0.00  0.00    +0.162 A 
ATOM      2  C   LIG A   1      -7.614   6.242 132.076  0.00  0.00    +0.165 A 
ATOM      3  C   LIG A   1      -7.916   6.949 130.912  0.00  0.00    +0.096 A 
ATOM      4  C   LIG A   1      -9.238   7.112 130.518  0.00  0.00    +0.143 A 
ATOM      5  O   LIG A   1      -9.445   7.817 129.303  0.00  0.00    -0.422 OA
ATOM      6  C   LIG A   1     -10.714   7.998 128.795  0.00  0.00    +0.337 A 
ATOM      7  C   LIG A   1     -11.827   7.470 129.597  0.00  0.00    +0.092 A 
ATOM      8  C   LIG A   1     -11.648   6.823 130.760  0.00  0.00    +0.019 A 
ATOM      9  O   LIG A   1     -10.911   8.576 127.739  0.00  0.00    -0.245 OA
ATOM     10  C   LIG A   1     -10.297   6.610 131.258  0.00  0.00    +0.021 A 
ATOM     11  C   LIG A   1     -10.006   5.918 132.440  0.00  0.00    +0.061 A 
ENDROOT
BRANCH   1  13
ATOM     12  C   LIG A   1      -9.079   3.684 134.021  0.00  0.00    +0.277 C 
ATOM     13  O   LIG A   1      -8.548   5.008 134.020  0.00  0.00    -0.491 OA
ENDBRANCH   1  13
BRANCH   2  14
ATOM     14  O   LIG A   1      -6.330   6.000 132.482  0.00  0.00    -0.491 OA
ATOM     15  C   LIG A   1      -5.275   6.392 131.614  0.00  0.00    +0.277 C 
ENDBRANCH   2  14
TORSDOF 2
ENDMDL
MODEL 5
REMARK VINA RESULT:      -5.6      8.768      9.803
REMARK  Name = NuBBE_1180
REMARK  4 active torsions:
REMARK  status: ('A' for Active; 'I' for Inactive)
REMARK    1  A    between atoms: C_1  and  O_2
REMARK    2  A    between atoms: O_2  and  C_3
REMARK    3  A    between atoms: C_4  and  O_5
REMARK    4  A    between atoms: O_5  and  C_6
REMARK                            x       y       z     vdW  Elec       q    Type
REMARK                         _______ _______ _______ _____ _____    ______ ____
ROOT
ATOM      1  C   LIG A   1      -9.657   4.921 132.518  0.00  0.00    +0.162 A 
ATOM      2  C   LIG A   1      -9.694   3.994 131.458  0.00  0.00    +0.165 A 
ATOM      3  C   LIG A   1     -10.517   4.256 130.362  0.00  0.00    +0.096 A 
ATOM      4  C   LIG A   1     -11.311   5.395 130.342  0.00  0.00    +0.143 A 
ATOM      5  O   LIG A   1     -12.138   5.559 129.199  0.00  0.00    -0.422 OA
ATOM      6  C   LIG A   1     -12.999   6.631 129.095  0.00  0.00    +0.337 A 
ATOM      7  C   LIG A   1     -12.976   7.606 130.195  0.00  0.00    +0.092 A 
ATOM      8  C   LIG A   1     -12.181   7.476 131.269  0.00  0.00    +0.019 A 
ATOM      9  O   LIG A   1     -13.739   6.775 128.136  0.00  0.00    -0.245 OA
ATOM     10  C   LIG A   1     -11.307   6.317 131.377  0.00  0.00    +0.021 A 
ATOM     11  C   LIG A   1     -10.468   6.076 132.471  0.00  0.00    +0.061 A 
ENDROOT
BRANCH   1  13
ATOM     12  C   LIG A   1      -7.718   5.581 133.754  0.00  0.00    +0.277 C 
ATOM     13  O   LIG A   1      -8.916   4.812 133.672  0.00  0.00    -0.491 OA
ENDBRANCH   1  13
BRANCH   2  14
ATOM     14  O   LIG A   1      -8.935   2.860 131.560  0.00  0.00    -0.491 OA
ATOM     15  C   LIG A   1      -9.554   1.694 132.086  0.00  0.00    +0.277 C 
ENDBRANCH   2  14
TORSDOF 2
ENDMDL
MODEL 6
REMARK VINA RESULT:      -5.6      5.524      8.726
REMARK  Name = NuBBE_1180
REMARK  4 active torsions:
REMARK  status: ('A' for Active; 'I' for Inactive)
REMARK    1  A    between atoms: C_1  and  O_2
REMARK    2  A    between atoms: O_2  and  C_3
REMARK    3  A    between atoms: C_4  and  O_5
REMARK    4  A    between atoms: O_5  and  C_6
REMARK                            x       y       z     vdW  Elec       q    Type
REMARK                         _______ _______ _______ _____ _____    ______ ____
ROOT
ATOM      1  C   LIG A   1      -8.609  -2.204 125.045  0.00  0.00    +0.162 A 
ATOM      2  C   LIG A   1      -7.319  -1.651 124.938  0.00  0.00    +0.165 A 
ATOM      3  C   LIG A   1      -6.456  -1.732 126.032  0.00  0.00    +0.096 A 
ATOM      4  C   LIG A   1      -6.886  -2.316 127.216  0.00  0.00    +0.143 A 
ATOM      5  O   LIG A   1      -5.951  -2.323 128.284  0.00  0.00    -0.422 OA
ATOM      6  C   LIG A   1      -6.286  -2.838 129.519  0.00  0.00    +0.337 A 
ATOM      7  C   LIG A   1      -7.631  -3.416 129.649  0.00  0.00    +0.092 A 
ATOM      8  C   LIG A   1      -8.518  -3.438 128.640  0.00  0.00    +0.019 A 
ATOM      9  O   LIG A   1      -5.507  -2.827 130.457  0.00  0.00    -0.245 OA
ATOM     10  C   LIG A   1      -8.156  -2.855 127.357  0.00  0.00    +0.021 A 
ATOM     11  C   LIG A   1      -9.021  -2.800 126.258  0.00  0.00    +0.061 A 
ENDROOT
BRANCH   1  13
ATOM     12  C   LIG A   1      -9.708  -3.371 123.269  0.00  0.00    +0.277 C 
ATOM     13  O   LIG A   1      -9.582  -2.199 124.073  0.00  0.00    -0.491 OA
ENDBRANCH   1  13
BRANCH   2  14
ATOM     14  O   LIG A   1      -6.971  -1.035 123.767  0.00  0.00    -0.491 OA
ATOM     15  C   LIG A   1      -6.341  -1.822 122.764  0.00  0.00    +0.277 C 
ENDBRANCH   2  14
TORSDOF 2
ENDMDL
MODEL 7
REMARK VINA RESULT:      -5.5      3.302      4.873
REMARK  Name = NuBBE_1180
REMARK  4 active torsions:
REMARK  status: ('A' for Active; 'I' for Inactive)
REMARK    1  A    between atoms: C_1  and  O_2
REMARK    2  A    between atoms: O_2  and  C_3
REMARK    3  A    between atoms: C_4  and  O_5
REMARK    4  A    between atoms: O_5  and  C_6
REMARK                            x       y       z     vdW  Elec       q    Type
REMARK                         _______ _______ _______ _____ _____    ______ ____
ROOT
ATOM      1  C   LIG A   1      -7.899  -1.479 124.055  0.00  0.00    +0.162 A 
ATOM      2  C   LIG A   1      -8.952  -1.323 124.978  0.00  0.00    +0.165 A 
ATOM      3  C   LIG A   1      -9.316  -0.035 125.375  0.00  0.00    +0.096 A 
ATOM      4  C   LIG A   1      -8.622   1.066 124.891  0.00  0.00    +0.143 A 
ATOM      5  O   LIG A   1      -9.043   2.332 125.376  0.00  0.00    -0.422 OA
ATOM      6  C   LIG A   1      -8.397   3.489 124.997  0.00  0.00    +0.337 A 
ATOM      7  C   LIG A   1      -7.293   3.343 124.036  0.00  0.00    +0.092 A 
ATOM      8  C   LIG A   1      -6.900   2.155 123.550  0.00  0.00    +0.019 A 
ATOM      9  O   LIG A   1      -8.724   4.583 125.424  0.00  0.00    -0.245 OA
ATOM     10  C   LIG A   1      -7.572   0.943 123.994  0.00  0.00    +0.021 A 
ATOM     11  C   LIG A   1      -7.213  -0.343 123.572  0.00  0.00    +0.061 A 
ENDROOT
BRANCH   1  13
ATOM     12  C   LIG A   1      -6.152  -3.113 124.082  0.00  0.00    +0.277 C 
ATOM     13  O   LIG A   1      -7.408  -2.669 123.572  0.00  0.00    -0.491 OA
ENDBRANCH   1  13
BRANCH   2  14
ATOM     14  O   LIG A   1      -9.560  -2.447 125.466  0.00  0.00    -0.491 OA
ATOM     15  C   LIG A   1      -8.988  -3.067 126.610  0.00  0.00    +0.277 C 
ENDBRANCH   2  14
TORSDOF 2
ENDMDL
MODEL 8
REMARK VINA RESULT:      -5.5      1.872      3.045
REMARK  Name = NuBBE_1180
REMARK  4 active torsions:
REMARK  status: ('A' for Active; 'I' for Inactive)
REMARK    1  A    between atoms: C_1  and  O_2
REMARK    2  A    between atoms: O_2  and  C_3
REMARK    3  A    between atoms: C_4  and  O_5
REMARK    4  A    between atoms: O_5  and  C_6
REMARK                            x       y       z     vdW  Elec       q    Type
REMARK                         _______ _______ _______ _____ _____    ______ ____
ROOT
ATOM      1  C   LIG A   1      -7.190   1.801 124.259  0.00  0.00    +0.162 A 
ATOM      2  C   LIG A   1      -6.382   2.624 125.067  0.00  0.00    +0.165 A 
ATOM      3  C   LIG A   1      -5.680   3.674 124.473  0.00  0.00    +0.096 A 
ATOM      4  C   LIG A   1      -5.754   3.873 123.101  0.00  0.00    +0.143 A 
ATOM      5  O   LIG A   1      -4.980   4.945 122.583  0.00  0.00    -0.422 OA
ATOM      6  C   LIG A   1      -4.944   5.206 121.230  0.00  0.00    +0.337 A 
ATOM      7  C   LIG A   1      -5.779   4.353 120.371  0.00  0.00    +0.092 A 
ATOM      8  C   LIG A   1      -6.534   3.352 120.850  0.00  0.00    +0.019 A 
ATOM      9  O   LIG A   1      -4.263   6.104 120.762  0.00  0.00    -0.245 OA
ATOM     10  C   LIG A   1      -6.528   3.070 122.278  0.00  0.00    +0.021 A 
ATOM     11  C   LIG A   1      -7.254   2.028 122.867  0.00  0.00    +0.061 A 
ENDROOT
BRANCH   1  13
ATOM     12  C   LIG A   1      -8.365  -0.201 123.681  0.00  0.00    +0.277 C 
ATOM     13  O   LIG A   1      -7.932   0.722 124.679  0.00  0.00    -0.491 OA
ENDBRANCH   1  13
BRANCH   2  14
ATOM     14  O   LIG A   1      -6.301   2.344 126.404  0.00  0.00    -0.491 OA
ATOM     15  C   LIG A   1      -5.031   1.985 126.931  0.00  0.00    +0.277 C 
ENDBRANCH   2  14
TORSDOF 2
ENDMDL
MODEL 9
REMARK VINA RESULT:      -5.4      8.010      9.555
REMARK  Name = NuBBE_1180
REMARK  4 active torsions:
REMARK  status: ('A' for Active; 'I' for Inactive)
REMARK    1  A    between atoms: C_1  and  O_2
REMARK    2  A    between atoms: O_2  and  C_3
REMARK    3  A    between atoms: C_4  and  O_5
REMARK    4  A    between atoms: O_5  and  C_6
REMARK                            x       y       z     vdW  Elec       q    Type
REMARK                         _______ _______ _______ _____ _____    ______ ____
ROOT
ATOM      1  C   LIG A   1     -11.256   6.231 131.103  0.00  0.00    +0.162 A 
ATOM      2  C   LIG A   1     -10.955   6.025 129.742  0.00  0.00    +0.165 A 
ATOM      3  C   LIG A   1      -9.627   5.818 129.368  0.00  0.00    +0.096 A 
ATOM      4  C   LIG A   1      -8.620   5.854 130.324  0.00  0.00    +0.143 A 
ATOM      5  O   LIG A   1      -7.297   5.665 129.844  0.00  0.00    -0.422 OA
ATOM      6  C   LIG A   1      -6.217   5.724 130.699  0.00  0.00    +0.337 A 
ATOM      7  C   LIG A   1      -6.513   5.943 132.122  0.00  0.00    +0.092 A 
ATOM      8  C   LIG A   1      -7.760   6.099 132.593  0.00  0.00    +0.019 A 
ATOM      9  O   LIG A   1      -5.071   5.594 130.303  0.00  0.00    -0.245 OA
ATOM     10  C   LIG A   1      -8.883   6.070 131.668  0.00  0.00    +0.021 A 
ATOM     11  C   LIG A   1     -10.215   6.256 132.057  0.00  0.00    +0.061 A 
ENDROOT
BRANCH   1  13
ATOM     12  C   LIG A   1     -12.995   7.800 131.591  0.00  0.00    +0.277 C 
ATOM     13  O   LIG A   1     -12.502   6.462 131.636  0.00  0.00    -0.491 OA
ENDBRANCH   1  13
BRANCH   2  14
ATOM     14  O   LIG A   1     -11.981   6.060 128.838  0.00  0.00    -0.491 OA
ATOM     15  C   LIG A   1     -12.104   7.214 128.017  0.00  0.00    +0.277 C 
ENDBRANCH   2  14
TORSDOF 2
ENDMDL
