MODEL 1
REMARK VINA RESULT:      -6.8      0.000      0.000
REMARK  Name = NuBBE_2396
REMARK  12 active torsions:
REMARK  status: ('A' for Active; 'I' for Inactive)
REMARK    1  A    between atoms: C_1  and  C_2
REMARK    2  A    between atoms: C_1  and  C_6
REMARK    3  A    between atoms: C_3  and  C_4
REMARK    4  A    between atoms: C_3  and  C_5
REMARK    5  A    between atoms: C_7  and  O_8
REMARK    6  A    between atoms: O_8  and  C_9
REMARK    7  A    between atoms: C_11  and  C_16
REMARK    8  A    between atoms: C_13  and  O_14
REMARK    9  A    between atoms: O_14  and  C_15
REMARK   10  A    between atoms: C_17  and  C_18
REMARK   11  A    between atoms: C_21  and  O_24
REMARK   12  A    between atoms: O_24  and  C_25
REMARK                            x       y       z     vdW  Elec       q    Type
REMARK                         _______ _______ _______ _____ _____    ______ ____
ROOT
ATOM      1  C   LIG A   1      -9.083   0.345 125.743  0.00  0.00    +0.040 A 
ATOM      2  C   LIG A   1      -8.576   0.831 126.967  0.00  0.00    +0.128 A 
ATOM      3  C   LIG A   1      -7.963  -0.051 127.863  0.00  0.00    +0.054 A 
ATOM      4  C   LIG A   1      -7.806  -1.402 127.541  0.00  0.00    -0.018 A 
ATOM      5  C   LIG A   1      -8.335  -1.888 126.345  0.00  0.00    +0.054 A 
ATOM      6  C   LIG A   1      -8.979  -1.033 125.453  0.00  0.00    +0.128 A 
ENDROOT
BRANCH   2   7
ATOM      7  O   LIG A   1      -8.756   2.168 127.218  0.00  0.00    -0.495 OA
ATOM      8  C   LIG A   1      -8.269   2.668 128.457  0.00  0.00    +0.277 C 
ENDBRANCH   2   7
BRANCH   6   9
ATOM      9  O   LIG A   1      -9.559  -1.455 124.288  0.00  0.00    -0.495 OA
ATOM     10  C   LIG A   1      -9.156  -2.700 123.736  0.00  0.00    +0.277 C 
ENDBRANCH   6   9
BRANCH   4  11
ATOM     11  C   LIG A   1      -7.167  -2.303 128.508  0.00  0.00    +0.009 C 
ATOM     12  C   LIG A   1      -7.607  -2.491 129.754  0.00  0.00    +0.008 C 
BRANCH  12  13
ATOM     13  C   LIG A   1      -6.910  -3.340 130.729  0.00  0.00    -0.025 A 
ATOM     14  C   LIG A   1      -7.040  -3.089 132.099  0.00  0.00    +0.011 A 
ATOM     15  C   LIG A   1      -6.352  -3.877 133.028  0.00  0.00    +0.046 A 
ATOM     16  C   LIG A   1      -5.520  -4.913 132.597  0.00  0.00    +0.120 A 
ATOM     17  C   LIG A   1      -5.377  -5.149 131.231  0.00  0.00    +0.046 A 
ATOM     18  C   LIG A   1      -6.058  -4.364 130.305  0.00  0.00    +0.011 A 
BRANCH  16  19
ATOM     19  O   LIG A   1      -4.894  -5.627 133.584  0.00  0.00    -0.495 OA
ATOM     20  C   LIG A   1      -5.647  -5.803 134.781  0.00  0.00    +0.277 C 
ENDBRANCH  16  19
ENDBRANCH  12  13
ENDBRANCH   4  11
BRANCH   1  21
ATOM     21  C   LIG A   1      -9.689   1.294 124.723  0.00  0.00    +0.069 C 
BRANCH  21  22
ATOM     22  C   LIG A   1      -8.714   1.682 123.636  0.00  0.00    -0.023 C 
ATOM     23  C   LIG A   1      -7.886   2.747 123.593  0.00  0.00    -0.079 C 
ATOM     24  C   LIG A   1      -7.791   3.825 124.636  0.00  0.00    +0.038 C 
ATOM     25  C   LIG A   1      -6.957   2.958 122.426  0.00  0.00    +0.038 C 
ENDBRANCH  21  22
ENDBRANCH   1  21
TORSDOF 7
ENDMDL
MODEL 2
REMARK VINA RESULT:      -6.7      9.029     12.052
REMARK  Name = NuBBE_2396
REMARK  12 active torsions:
REMARK  status: ('A' for Active; 'I' for Inactive)
REMARK    1  A    between atoms: C_1  and  C_2
REMARK    2  A    between atoms: C_1  and  C_6
REMARK    3  A    between atoms: C_3  and  C_4
REMARK    4  A    between atoms: C_3  and  C_5
REMARK    5  A    between atoms: C_7  and  O_8
REMARK    6  A    between atoms: O_8  and  C_9
REMARK    7  A    between atoms: C_11  and  C_16
REMARK    8  A    between atoms: C_13  and  O_14
REMARK    9  A    between atoms: O_14  and  C_15
REMARK   10  A    between atoms: C_17  and  C_18
REMARK   11  A    between atoms: C_21  and  O_24
REMARK   12  A    between atoms: O_24  and  C_25
REMARK                            x       y       z     vdW  Elec       q    Type
REMARK                         _______ _______ _______ _____ _____    ______ ____
ROOT
ATOM      1  C   LIG A   1      -3.371   5.877 132.696  0.00  0.00    +0.040 A 
ATOM      2  C   LIG A   1      -4.534   5.596 133.445  0.00  0.00    +0.128 A 
ATOM      3  C   LIG A   1      -5.789   5.938 132.933  0.00  0.00    +0.054 A 
ATOM      4  C   LIG A   1      -5.911   6.515 131.666  0.00  0.00    -0.018 A 
ATOM      5  C   LIG A   1      -4.760   6.822 130.939  0.00  0.00    +0.054 A 
ATOM      6  C   LIG A   1      -3.497   6.520 131.445  0.00  0.00    +0.128 A 
ENDROOT
BRANCH   2   7
ATOM      7  O   LIG A   1      -4.344   5.020 134.677  0.00  0.00    -0.495 OA
ATOM      8  C   LIG A   1      -5.480   4.437 135.303  0.00  0.00    +0.277 C 
ENDBRANCH   2   7
BRANCH   6   9
ATOM      9  O   LIG A   1      -2.332   6.837 130.803  0.00  0.00    -0.495 OA
ATOM     10  C   LIG A   1      -2.157   6.421 129.456  0.00  0.00    +0.277 C 
ENDBRANCH   6   9
BRANCH   4  11
ATOM     11  C   LIG A   1      -7.243   6.872 131.162  0.00  0.00    +0.009 C 
ATOM     12  C   LIG A   1      -8.382   6.374 131.651  0.00  0.00    +0.008 C 
BRANCH  12  13
ATOM     13  C   LIG A   1      -9.699   6.686 131.082  0.00  0.00    -0.025 A 
ATOM     14  C   LIG A   1      -9.795   7.384 129.875  0.00  0.00    +0.011 A 
ATOM     15  C   LIG A   1     -11.050   7.709 129.347  0.00  0.00    +0.046 A 
ATOM     16  C   LIG A   1     -12.217   7.350 130.026  0.00  0.00    +0.120 A 
ATOM     17  C   LIG A   1     -12.118   6.671 131.239  0.00  0.00    +0.046 A 
ATOM     18  C   LIG A   1     -10.870   6.350 131.767  0.00  0.00    +0.011 A 
BRANCH  16  19
ATOM     19  O   LIG A   1     -13.394   7.711 129.426  0.00  0.00    -0.495 OA
ATOM     20  C   LIG A   1     -13.261   8.515 128.257  0.00  0.00    +0.277 C 
ENDBRANCH  16  19
ENDBRANCH  12  13
ENDBRANCH   4  11
BRANCH   1  21
ATOM     21  C   LIG A   1      -2.002   5.451 133.198  0.00  0.00    +0.069 C 
BRANCH  21  22
ATOM     22  C   LIG A   1      -1.481   6.346 134.299  0.00  0.00    -0.023 C 
ATOM     23  C   LIG A   1      -0.588   7.353 134.210  0.00  0.00    -0.079 C 
ATOM     24  C   LIG A   1       0.129   7.779 132.960  0.00  0.00    +0.038 C 
ATOM     25  C   LIG A   1      -0.206   8.158 135.424  0.00  0.00    +0.038 C 
ENDBRANCH  21  22
ENDBRANCH   1  21
TORSDOF 7
ENDMDL
MODEL 3
REMARK VINA RESULT:      -6.6      0.214      2.627
REMARK  Name = NuBBE_2396
REMARK  12 active torsions:
REMARK  status: ('A' for Active; 'I' for Inactive)
REMARK    1  A    between atoms: C_1  and  C_2
REMARK    2  A    between atoms: C_1  and  C_6
REMARK    3  A    between atoms: C_3  and  C_4
REMARK    4  A    between atoms: C_3  and  C_5
REMARK    5  A    between atoms: C_7  and  O_8
REMARK    6  A    between atoms: O_8  and  C_9
REMARK    7  A    between atoms: C_11  and  C_16
REMARK    8  A    between atoms: C_13  and  O_14
REMARK    9  A    between atoms: O_14  and  C_15
REMARK   10  A    between atoms: C_17  and  C_18
REMARK   11  A    between atoms: C_21  and  O_24
REMARK   12  A    between atoms: O_24  and  C_25
REMARK                            x       y       z     vdW  Elec       q    Type
REMARK                         _______ _______ _______ _____ _____    ______ ____
ROOT
ATOM      1  C   LIG A   1      -9.143   0.355 125.581  0.00  0.00    +0.040 A 
ATOM      2  C   LIG A   1      -9.027  -1.017 125.271  0.00  0.00    +0.128 A 
ATOM      3  C   LIG A   1      -8.471  -1.895 126.207  0.00  0.00    +0.054 A 
ATOM      4  C   LIG A   1      -8.068  -1.438 127.464  0.00  0.00    -0.018 A 
ATOM      5  C   LIG A   1      -8.154  -0.077 127.759  0.00  0.00    +0.054 A 
ATOM      6  C   LIG A   1      -8.674   0.821 126.829  0.00  0.00    +0.128 A 
ENDROOT
BRANCH   2   7
ATOM      7  O   LIG A   1      -9.449  -1.400 124.022  0.00  0.00    -0.495 OA
ATOM      8  C   LIG A   1      -9.125  -2.721 123.605  0.00  0.00    +0.277 C 
ENDBRANCH   2   7
BRANCH   6   9
ATOM      9  O   LIG A   1      -8.740   2.171 127.039  0.00  0.00    -0.495 OA
ATOM     10  C   LIG A   1      -8.033   2.728 128.138  0.00  0.00    +0.277 C 
ENDBRANCH   6   9
BRANCH   4  11
ATOM     11  C   LIG A   1      -7.479  -2.384 128.420  0.00  0.00    +0.009 C 
ATOM     12  C   LIG A   1      -7.572  -2.257 129.746  0.00  0.00    +0.008 C 
BRANCH  12  13
ATOM     13  C   LIG A   1      -6.912  -3.173 130.685  0.00  0.00    -0.025 A 
ATOM     14  C   LIG A   1      -7.058  -2.991 132.064  0.00  0.00    +0.011 A 
ATOM     15  C   LIG A   1      -6.405  -3.844 132.960  0.00  0.00    +0.046 A 
ATOM     16  C   LIG A   1      -5.592  -4.878 132.488  0.00  0.00    +0.120 A 
ATOM     17  C   LIG A   1      -5.433  -5.046 131.113  0.00  0.00    +0.046 A 
ATOM     18  C   LIG A   1      -6.080  -4.195 130.220  0.00  0.00    +0.011 A 
BRANCH  16  19
ATOM     19  O   LIG A   1      -5.000  -5.658 133.445  0.00  0.00    -0.495 OA
ATOM     20  C   LIG A   1      -5.646  -5.661 134.715  0.00  0.00    +0.277 C 
ENDBRANCH  16  19
ENDBRANCH  12  13
ENDBRANCH   4  11
BRANCH   1  21
ATOM     21  C   LIG A   1      -9.808   1.317 124.611  0.00  0.00    +0.069 C 
BRANCH  21  22
ATOM     22  C   LIG A   1      -8.893   1.730 123.481  0.00  0.00    -0.023 C 
ATOM     23  C   LIG A   1      -8.031   2.767 123.436  0.00  0.00    -0.079 C 
ATOM     24  C   LIG A   1      -7.827   3.784 124.523  0.00  0.00    +0.038 C 
ATOM     25  C   LIG A   1      -7.175   3.009 122.220  0.00  0.00    +0.038 C 
ENDBRANCH  21  22
ENDBRANCH   1  21
TORSDOF 7
ENDMDL
MODEL 4
REMARK VINA RESULT:      -6.5      4.522      9.517
REMARK  Name = NuBBE_2396
REMARK  12 active torsions:
REMARK  status: ('A' for Active; 'I' for Inactive)
REMARK    1  A    between atoms: C_1  and  C_2
REMARK    2  A    between atoms: C_1  and  C_6
REMARK    3  A    between atoms: C_3  and  C_4
REMARK    4  A    between atoms: C_3  and  C_5
REMARK    5  A    between atoms: C_7  and  O_8
REMARK    6  A    between atoms: O_8  and  C_9
REMARK    7  A    between atoms: C_11  and  C_16
REMARK    8  A    between atoms: C_13  and  O_14
REMARK    9  A    between atoms: O_14  and  C_15
REMARK   10  A    between atoms: C_17  and  C_18
REMARK   11  A    between atoms: C_21  and  O_24
REMARK   12  A    between atoms: O_24  and  C_25
REMARK                            x       y       z     vdW  Elec       q    Type
REMARK                         _______ _______ _______ _____ _____    ______ ____
ROOT
ATOM      1  C   LIG A   1      -7.869   0.132 130.250  0.00  0.00    +0.040 A 
ATOM      2  C   LIG A   1      -8.478   0.434 131.486  0.00  0.00    +0.128 A 
ATOM      3  C   LIG A   1      -9.222   1.610 131.625  0.00  0.00    +0.054 A 
ATOM      4  C   LIG A   1      -9.407   2.470 130.539  0.00  0.00    -0.018 A 
ATOM      5  C   LIG A   1      -8.778   2.187 129.325  0.00  0.00    +0.054 A 
ATOM      6  C   LIG A   1      -8.005   1.038 129.175  0.00  0.00    +0.128 A 
ENDROOT
BRANCH   2   7
ATOM      7  O   LIG A   1      -8.263  -0.456 132.509  0.00  0.00    -0.495 OA
ATOM      8  C   LIG A   1      -6.994  -0.415 133.150  0.00  0.00    +0.277 C 
ENDBRANCH   2   7
BRANCH   6   9
ATOM      9  O   LIG A   1      -7.327   0.729 128.028  0.00  0.00    -0.495 OA
ATOM     10  C   LIG A   1      -7.762   1.298 126.802  0.00  0.00    +0.277 C 
ENDBRANCH   6   9
BRANCH   4  11
ATOM     11  C   LIG A   1     -10.185   3.702 130.719  0.00  0.00    +0.009 C 
ATOM     12  C   LIG A   1     -10.296   4.655 129.790  0.00  0.00    +0.008 C 
BRANCH  12  13
ATOM     13  C   LIG A   1     -11.017   5.914 130.018  0.00  0.00    -0.025 A 
ATOM     14  C   LIG A   1     -11.815   6.069 131.156  0.00  0.00    +0.011 A 
ATOM     15  C   LIG A   1     -12.527   7.256 131.360  0.00  0.00    +0.046 A 
ATOM     16  C   LIG A   1     -12.459   8.292 130.424  0.00  0.00    +0.120 A 
ATOM     17  C   LIG A   1     -11.678   8.127 129.282  0.00  0.00    +0.046 A 
ATOM     18  C   LIG A   1     -10.971   6.945 129.076  0.00  0.00    +0.011 A 
BRANCH  16  19
ATOM     19  O   LIG A   1     -13.189   9.412 130.718  0.00  0.00    -0.495 OA
ATOM     20  C   LIG A   1     -13.235  10.398 129.690  0.00  0.00    +0.277 C 
ENDBRANCH  16  19
ENDBRANCH  12  13
ENDBRANCH   4  11
BRANCH   1  21
ATOM     21  C   LIG A   1      -7.116  -1.173 130.054  0.00  0.00    +0.069 C 
BRANCH  21  22
ATOM     22  C   LIG A   1      -8.010  -2.297 129.583  0.00  0.00    -0.023 C 
ATOM     23  C   LIG A   1      -8.047  -2.887 128.370  0.00  0.00    -0.079 C 
ATOM     24  C   LIG A   1      -7.207  -2.506 127.185  0.00  0.00    +0.038 C 
ATOM     25  C   LIG A   1      -8.999  -4.021 128.091  0.00  0.00    +0.038 C 
ENDBRANCH  21  22
ENDBRANCH   1  21
TORSDOF 7
ENDMDL
MODEL 5
REMARK VINA RESULT:      -6.5      1.870      2.151
REMARK  Name = NuBBE_2396
REMARK  12 active torsions:
REMARK  status: ('A' for Active; 'I' for Inactive)
REMARK    1  A    between atoms: C_1  and  C_2
REMARK    2  A    between atoms: C_1  and  C_6
REMARK    3  A    between atoms: C_3  and  C_4
REMARK    4  A    between atoms: C_3  and  C_5
REMARK    5  A    between atoms: C_7  and  O_8
REMARK    6  A    between atoms: O_8  and  C_9
REMARK    7  A    between atoms: C_11  and  C_16
REMARK    8  A    between atoms: C_13  and  O_14
REMARK    9  A    between atoms: O_14  and  C_15
REMARK   10  A    between atoms: C_17  and  C_18
REMARK   11  A    between atoms: C_21  and  O_24
REMARK   12  A    between atoms: O_24  and  C_25
REMARK                            x       y       z     vdW  Elec       q    Type
REMARK                         _______ _______ _______ _____ _____    ______ ____
ROOT
ATOM      1  C   LIG A   1      -7.085  -1.011 124.782  0.00  0.00    +0.040 A 
ATOM      2  C   LIG A   1      -7.866  -0.710 125.918  0.00  0.00    +0.128 A 
ATOM      3  C   LIG A   1      -7.505  -1.229 127.166  0.00  0.00    +0.054 A 
ATOM      4  C   LIG A   1      -6.353  -2.007 127.310  0.00  0.00    -0.018 A 
ATOM      5  C   LIG A   1      -5.599  -2.331 126.181  0.00  0.00    +0.054 A 
ATOM      6  C   LIG A   1      -5.960  -1.852 124.923  0.00  0.00    +0.128 A 
ENDROOT
BRANCH   2   7
ATOM      7  O   LIG A   1      -8.979   0.066 125.709  0.00  0.00    -0.495 OA
ATOM      8  C   LIG A   1      -9.057   1.295 126.421  0.00  0.00    +0.277 C 
ENDBRANCH   2   7
BRANCH   6   9
ATOM      9  O   LIG A   1      -5.290  -2.171 123.774  0.00  0.00    -0.495 OA
ATOM     10  C   LIG A   1      -4.855  -3.510 123.585  0.00  0.00    +0.277 C 
ENDBRANCH   6   9
BRANCH   4  11
ATOM     11  C   LIG A   1      -6.008  -2.545 128.631  0.00  0.00    +0.009 C 
ATOM     12  C   LIG A   1      -6.816  -3.328 129.351  0.00  0.00    +0.008 C 
BRANCH  12  13
ATOM     13  C   LIG A   1      -6.481  -3.793 130.703  0.00  0.00    -0.025 A 
ATOM     14  C   LIG A   1      -7.043  -3.167 131.820  0.00  0.00    +0.011 A 
ATOM     15  C   LIG A   1      -6.702  -3.590 133.109  0.00  0.00    +0.046 A 
ATOM     16  C   LIG A   1      -5.789  -4.631 133.294  0.00  0.00    +0.120 A 
ATOM     17  C   LIG A   1      -5.216  -5.241 132.179  0.00  0.00    +0.046 A 
ATOM     18  C   LIG A   1      -5.552  -4.819 130.896  0.00  0.00    +0.011 A 
BRANCH  16  19
ATOM     19  O   LIG A   1      -5.525  -4.972 134.594  0.00  0.00    -0.495 OA
ATOM     20  C   LIG A   1      -4.643  -6.076 134.769  0.00  0.00    +0.277 C 
ENDBRANCH  16  19
ENDBRANCH  12  13
ENDBRANCH   4  11
BRANCH   1  21
ATOM     21  C   LIG A   1      -7.415  -0.403 123.429  0.00  0.00    +0.069 C 
BRANCH  21  22
ATOM     22  C   LIG A   1      -6.813   0.972 123.246  0.00  0.00    -0.023 C 
ATOM     23  C   LIG A   1      -7.447   2.142 123.023  0.00  0.00    -0.079 C 
ATOM     24  C   LIG A   1      -8.930   2.318 122.864  0.00  0.00    +0.038 C 
ATOM     25  C   LIG A   1      -6.673   3.427 122.890  0.00  0.00    +0.038 C 
ENDBRANCH  21  22
ENDBRANCH   1  21
TORSDOF 7
ENDMDL
MODEL 6
REMARK VINA RESULT:      -6.5      4.655      7.640
REMARK  Name = NuBBE_2396
REMARK  12 active torsions:
REMARK  status: ('A' for Active; 'I' for Inactive)
REMARK    1  A    between atoms: C_1  and  C_2
REMARK    2  A    between atoms: C_1  and  C_6
REMARK    3  A    between atoms: C_3  and  C_4
REMARK    4  A    between atoms: C_3  and  C_5
REMARK    5  A    between atoms: C_7  and  O_8
REMARK    6  A    between atoms: O_8  and  C_9
REMARK    7  A    between atoms: C_11  and  C_16
REMARK    8  A    between atoms: C_13  and  O_14
REMARK    9  A    between atoms: O_14  and  C_15
REMARK   10  A    between atoms: C_17  and  C_18
REMARK   11  A    between atoms: C_21  and  O_24
REMARK   12  A    between atoms: O_24  and  C_25
REMARK                            x       y       z     vdW  Elec       q    Type
REMARK                         _______ _______ _______ _____ _____    ______ ____
ROOT
ATOM      1  C   LIG A   1      -6.594   0.393 124.630  0.00  0.00    +0.040 A 
ATOM      2  C   LIG A   1      -5.631  -0.011 125.579  0.00  0.00    +0.128 A 
ATOM      3  C   LIG A   1      -4.940   0.953 126.321  0.00  0.00    +0.054 A 
ATOM      4  C   LIG A   1      -5.224   2.313 126.165  0.00  0.00    -0.018 A 
ATOM      5  C   LIG A   1      -6.153   2.714 125.204  0.00  0.00    +0.054 A 
ATOM      6  C   LIG A   1      -6.829   1.772 124.431  0.00  0.00    +0.128 A 
ENDROOT
BRANCH   2   7
ATOM      7  O   LIG A   1      -5.407  -1.360 125.688  0.00  0.00    -0.495 OA
ATOM      8  C   LIG A   1      -5.560  -1.942 126.977  0.00  0.00    +0.277 C 
ENDBRANCH   2   7
BRANCH   6   9
ATOM      9  O   LIG A   1      -7.715   2.103 123.443  0.00  0.00    -0.495 OA
ATOM     10  C   LIG A   1      -7.334   3.074 122.480  0.00  0.00    +0.277 C 
ENDBRANCH   6   9
BRANCH   4  11
ATOM     11  C   LIG A   1      -4.474   3.300 126.952  0.00  0.00    +0.009 C 
ATOM     12  C   LIG A   1      -4.110   3.117 128.224  0.00  0.00    +0.008 C 
BRANCH  12  13
ATOM     13  C   LIG A   1      -3.426   4.147 129.016  0.00  0.00    -0.025 A 
ATOM     14  C   LIG A   1      -3.467   4.101 130.413  0.00  0.00    +0.011 A 
ATOM     15  C   LIG A   1      -2.842   5.098 131.169  0.00  0.00    +0.046 A 
ATOM     16  C   LIG A   1      -2.182   6.156 130.537  0.00  0.00    +0.120 A 
ATOM     17  C   LIG A   1      -2.159   6.209 129.144  0.00  0.00    +0.046 A 
ATOM     18  C   LIG A   1      -2.783   5.219 128.391  0.00  0.00    +0.011 A 
BRANCH  16  19
ATOM     19  O   LIG A   1      -1.600   7.078 131.365  0.00  0.00    -0.495 OA
ATOM     20  C   LIG A   1      -2.501   7.813 132.189  0.00  0.00    +0.277 C 
ENDBRANCH  16  19
ENDBRANCH  12  13
ENDBRANCH   4  11
BRANCH   1  21
ATOM     21  C   LIG A   1      -7.408  -0.635 123.863  0.00  0.00    +0.069 C 
BRANCH  21  22
ATOM     22  C   LIG A   1      -8.465  -1.297 124.718  0.00  0.00    -0.023 C 
ATOM     23  C   LIG A   1      -8.609  -2.606 125.009  0.00  0.00    -0.079 C 
ATOM     24  C   LIG A   1      -7.742  -3.719 124.491  0.00  0.00    +0.038 C 
ATOM     25  C   LIG A   1      -9.720  -3.081 125.907  0.00  0.00    +0.038 C 
ENDBRANCH  21  22
ENDBRANCH   1  21
TORSDOF 7
ENDMDL
MODEL 7
REMARK VINA RESULT:      -6.4      3.540      6.332
REMARK  Name = NuBBE_2396
REMARK  12 active torsions:
REMARK  status: ('A' for Active; 'I' for Inactive)
REMARK    1  A    between atoms: C_1  and  C_2
REMARK    2  A    between atoms: C_1  and  C_6
REMARK    3  A    between atoms: C_3  and  C_4
REMARK    4  A    between atoms: C_3  and  C_5
REMARK    5  A    between atoms: C_7  and  O_8
REMARK    6  A    between atoms: O_8  and  C_9
REMARK    7  A    between atoms: C_11  and  C_16
REMARK    8  A    between atoms: C_13  and  O_14
REMARK    9  A    between atoms: O_14  and  C_15
REMARK   10  A    between atoms: C_17  and  C_18
REMARK   11  A    between atoms: C_21  and  O_24
REMARK   12  A    between atoms: O_24  and  C_25
REMARK                            x       y       z     vdW  Elec       q    Type
REMARK                         _______ _______ _______ _____ _____    ______ ____
ROOT
ATOM      1  C   LIG A   1      -8.067  -1.353 126.169  0.00  0.00    +0.040 A 
ATOM      2  C   LIG A   1      -7.819  -1.666 127.523  0.00  0.00    +0.128 A 
ATOM      3  C   LIG A   1      -7.810  -0.646 128.480  0.00  0.00    +0.054 A 
ATOM      4  C   LIG A   1      -8.087   0.675 128.120  0.00  0.00    -0.018 A 
ATOM      5  C   LIG A   1      -8.301   0.989 126.777  0.00  0.00    +0.054 A 
ATOM      6  C   LIG A   1      -8.282  -0.006 125.801  0.00  0.00    +0.128 A 
ENDROOT
BRANCH   2   7
ATOM      7  O   LIG A   1      -7.562  -2.983 127.809  0.00  0.00    -0.495 OA
ATOM      8  C   LIG A   1      -8.527  -3.678 128.589  0.00  0.00    +0.277 C 
ENDBRANCH   2   7
BRANCH   6   9
ATOM      9  O   LIG A   1      -8.437   0.244 124.466  0.00  0.00    -0.495 OA
ATOM     10  C   LIG A   1      -7.945   1.466 123.936  0.00  0.00    +0.277 C 
ENDBRANCH   6   9
BRANCH   4  11
ATOM     11  C   LIG A   1      -8.060   1.723 129.147  0.00  0.00    +0.009 C 
ATOM     12  C   LIG A   1      -8.363   1.515 130.431  0.00  0.00    +0.008 C 
BRANCH  12  13
ATOM     13  C   LIG A   1      -8.402   2.592 131.428  0.00  0.00    -0.025 A 
ATOM     14  C   LIG A   1      -7.671   3.766 131.223  0.00  0.00    +0.011 A 
ATOM     15  C   LIG A   1      -7.683   4.781 132.186  0.00  0.00    +0.046 A 
ATOM     16  C   LIG A   1      -8.414   4.627 133.366  0.00  0.00    +0.120 A 
ATOM     17  C   LIG A   1      -9.128   3.448 133.577  0.00  0.00    +0.046 A 
ATOM     18  C   LIG A   1      -9.114   2.436 132.621  0.00  0.00    +0.011 A 
BRANCH  16  19
ATOM     19  O   LIG A   1      -8.364   5.678 134.242  0.00  0.00    -0.495 OA
ATOM     20  C   LIG A   1      -7.645   5.434 135.448  0.00  0.00    +0.277 C 
ENDBRANCH  16  19
ENDBRANCH  12  13
ENDBRANCH   4  11
BRANCH   1  21
ATOM     21  C   LIG A   1      -8.153  -2.450 125.121  0.00  0.00    +0.069 C 
BRANCH  21  22
ATOM     22  C   LIG A   1      -6.797  -3.002 124.743  0.00  0.00    -0.023 C 
ATOM     23  C   LIG A   1      -6.051  -2.720 123.656  0.00  0.00    -0.079 C 
ATOM     24  C   LIG A   1      -6.446  -1.798 122.537  0.00  0.00    +0.038 C 
ATOM     25  C   LIG A   1      -4.700  -3.356 123.459  0.00  0.00    +0.038 C 
ENDBRANCH  21  22
ENDBRANCH   1  21
TORSDOF 7
ENDMDL
MODEL 8
REMARK VINA RESULT:      -6.4      1.407      3.271
REMARK  Name = NuBBE_2396
REMARK  12 active torsions:
REMARK  status: ('A' for Active; 'I' for Inactive)
REMARK    1  A    between atoms: C_1  and  C_2
REMARK    2  A    between atoms: C_1  and  C_6
REMARK    3  A    between atoms: C_3  and  C_4
REMARK    4  A    between atoms: C_3  and  C_5
REMARK    5  A    between atoms: C_7  and  O_8
REMARK    6  A    between atoms: O_8  and  C_9
REMARK    7  A    between atoms: C_11  and  C_16
REMARK    8  A    between atoms: C_13  and  O_14
REMARK    9  A    between atoms: O_14  and  C_15
REMARK   10  A    between atoms: C_17  and  C_18
REMARK   11  A    between atoms: C_21  and  O_24
REMARK   12  A    between atoms: O_24  and  C_25
REMARK                            x       y       z     vdW  Elec       q    Type
REMARK                         _______ _______ _______ _____ _____    ______ ____
ROOT
ATOM      1  C   LIG A   1      -8.469   1.266 124.537  0.00  0.00    +0.040 A 
ATOM      2  C   LIG A   1      -8.170  -0.109 124.438  0.00  0.00    +0.128 A 
ATOM      3  C   LIG A   1      -7.946  -0.856 125.600  0.00  0.00    +0.054 A 
ATOM      4  C   LIG A   1      -8.058  -0.266 126.862  0.00  0.00    -0.018 A 
ATOM      5  C   LIG A   1      -8.323   1.101 126.958  0.00  0.00    +0.054 A 
ATOM      6  C   LIG A   1      -8.517   1.871 125.812  0.00  0.00    +0.128 A 
ENDROOT
BRANCH   2   7
ATOM      7  O   LIG A   1      -8.083  -0.628 123.171  0.00  0.00    -0.495 OA
ATOM      8  C   LIG A   1      -6.966  -1.462 122.886  0.00  0.00    +0.277 C 
ENDBRANCH   2   7
BRANCH   6   9
ATOM      9  O   LIG A   1      -8.733   3.221 125.839  0.00  0.00    -0.495 OA
ATOM     10  C   LIG A   1      -7.696   4.071 126.308  0.00  0.00    +0.277 C 
ENDBRANCH   6   9
BRANCH   4  11
ATOM     11  C   LIG A   1      -7.807  -1.075 128.060  0.00  0.00    +0.009 C 
ATOM     12  C   LIG A   1      -6.599  -1.514 128.422  0.00  0.00    +0.008 C 
BRANCH  12  13
ATOM     13  C   LIG A   1      -6.380  -2.385 129.584  0.00  0.00    -0.025 A 
ATOM     14  C   LIG A   1      -5.390  -3.372 129.545  0.00  0.00    +0.011 A 
ATOM     15  C   LIG A   1      -5.200  -4.223 130.639  0.00  0.00    +0.046 A 
ATOM     16  C   LIG A   1      -6.005  -4.103 131.776  0.00  0.00    +0.120 A 
ATOM     17  C   LIG A   1      -7.003  -3.131 131.805  0.00  0.00    +0.046 A 
ATOM     18  C   LIG A   1      -7.195  -2.286 130.715  0.00  0.00    +0.011 A 
BRANCH  16  19
ATOM     19  O   LIG A   1      -5.737  -4.980 132.793  0.00  0.00    -0.495 OA
ATOM     20  C   LIG A   1      -4.356  -5.168 133.089  0.00  0.00    +0.277 C 
ENDBRANCH  16  19
ENDBRANCH  12  13
ENDBRANCH   4  11
BRANCH   1  21
ATOM     21  C   LIG A   1      -8.787   2.083 123.296  0.00  0.00    +0.069 C 
BRANCH  21  22
ATOM     22  C   LIG A   1      -7.553   2.683 122.662  0.00  0.00    -0.023 C 
ATOM     23  C   LIG A   1      -7.463   3.426 121.540  0.00  0.00    -0.079 C 
ATOM     24  C   LIG A   1      -8.607   3.787 120.635  0.00  0.00    +0.038 C 
ATOM     25  C   LIG A   1      -6.136   3.964 121.071  0.00  0.00    +0.038 C 
ENDBRANCH  21  22
ENDBRANCH   1  21
TORSDOF 7
ENDMDL
MODEL 9
REMARK VINA RESULT:      -6.3      1.848      2.967
REMARK  Name = NuBBE_2396
REMARK  12 active torsions:
REMARK  status: ('A' for Active; 'I' for Inactive)
REMARK    1  A    between atoms: C_1  and  C_2
REMARK    2  A    between atoms: C_1  and  C_6
REMARK    3  A    between atoms: C_3  and  C_4
REMARK    4  A    between atoms: C_3  and  C_5
REMARK    5  A    between atoms: C_7  and  O_8
REMARK    6  A    between atoms: O_8  and  C_9
REMARK    7  A    between atoms: C_11  and  C_16
REMARK    8  A    between atoms: C_13  and  O_14
REMARK    9  A    between atoms: O_14  and  C_15
REMARK   10  A    between atoms: C_17  and  C_18
REMARK   11  A    between atoms: C_21  and  O_24
REMARK   12  A    between atoms: O_24  and  C_25
REMARK                            x       y       z     vdW  Elec       q    Type
REMARK                         _______ _______ _______ _____ _____    ______ ____
ROOT
ATOM      1  C   LIG A   1      -7.078  -1.112 124.956  0.00  0.00    +0.040 A 
ATOM      2  C   LIG A   1      -5.923  -1.907 125.119  0.00  0.00    +0.128 A 
ATOM      3  C   LIG A   1      -5.593  -2.402 126.385  0.00  0.00    +0.054 A 
ATOM      4  C   LIG A   1      -6.418  -2.155 127.486  0.00  0.00    -0.018 A 
ATOM      5  C   LIG A   1      -7.542  -1.343 127.331  0.00  0.00    +0.054 A 
ATOM      6  C   LIG A   1      -7.871  -0.812 126.085  0.00  0.00    +0.128 A 
ENDROOT
BRANCH   2   7
ATOM      7  O   LIG A   1      -5.161  -2.118 123.996  0.00  0.00    -0.495 OA
ATOM      8  C   LIG A   1      -4.914  -3.468 123.623  0.00  0.00    +0.277 C 
ENDBRANCH   2   7
BRANCH   6   9
ATOM      9  O   LIG A   1      -8.931   0.027 125.879  0.00  0.00    -0.495 OA
ATOM     10  C   LIG A   1      -9.008   1.231 126.629  0.00  0.00    +0.277 C 
ENDBRANCH   6   9
BRANCH   4  11
ATOM     11  C   LIG A   1      -6.038  -2.680 128.803  0.00  0.00    +0.009 C 
ATOM     12  C   LIG A   1      -6.895  -3.259 129.649  0.00  0.00    +0.008 C 
BRANCH  12  13
ATOM     13  C   LIG A   1      -6.510  -3.709 130.992  0.00  0.00    -0.025 A 
ATOM     14  C   LIG A   1      -7.072  -3.108 132.122  0.00  0.00    +0.011 A 
ATOM     15  C   LIG A   1      -6.684  -3.515 133.403  0.00  0.00    +0.046 A 
ATOM     16  C   LIG A   1      -5.723  -4.516 133.566  0.00  0.00    +0.120 A 
ATOM     17  C   LIG A   1      -5.151  -5.101 132.438  0.00  0.00    +0.046 A 
ATOM     18  C   LIG A   1      -5.534  -4.695 131.163  0.00  0.00    +0.011 A 
BRANCH  16  19
ATOM     19  O   LIG A   1      -5.416  -4.845 134.860  0.00  0.00    -0.495 OA
ATOM     20  C   LIG A   1      -5.338  -6.241 135.133  0.00  0.00    +0.277 C 
ENDBRANCH  16  19
ENDBRANCH  12  13
ENDBRANCH   4  11
BRANCH   1  21
ATOM     21  C   LIG A   1      -7.496  -0.623 123.580  0.00  0.00    +0.069 C 
BRANCH  21  22
ATOM     22  C   LIG A   1      -6.925   0.737 123.247  0.00  0.00    -0.023 C 
ATOM     23  C   LIG A   1      -7.587   1.884 122.992  0.00  0.00    -0.079 C 
ATOM     24  C   LIG A   1      -9.080   2.042 122.943  0.00  0.00    +0.038 C 
ATOM     25  C   LIG A   1      -6.840   3.160 122.701  0.00  0.00    +0.038 C 
ENDBRANCH  21  22
ENDBRANCH   1  21
TORSDOF 7
ENDMDL
