MODEL 1
REMARK VINA RESULT:      -6.6      0.000      0.000
REMARK  Name = NuBBE_2292
REMARK  4 active torsions:
REMARK  status: ('A' for Active; 'I' for Inactive)
REMARK    1  A    between atoms: C_1  and  C_2
REMARK    2  A    between atoms: C_3  and  C_4
REMARK    3  A    between atoms: C_9  and  C_10
REMARK    4  A    between atoms: C_14  and  C_15
REMARK                            x       y       z     vdW  Elec       q    Type
REMARK                         _______ _______ _______ _____ _____    ______ ____
ROOT
ATOM      1  C   LIG A   1      -5.294  -1.861 128.587  0.00  0.00    +0.048 C 
ATOM      2  C   LIG A   1      -6.621  -2.375 128.192  0.00  0.00    -0.002 A 
ATOM      3  C   LIG A   1      -7.581  -2.882 129.071  0.00  0.00    +0.106 A 
ATOM      4  C   LIG A   1      -7.637  -3.029 130.543  0.00  0.00    +0.086 C 
ATOM      5  O   LIG A   1      -8.690  -3.333 128.405  0.00  0.00    -0.460 OA
ATOM      6  C   LIG A   1      -8.481  -3.106 127.075  0.00  0.00    +0.136 A 
ATOM      7  C   LIG A   1      -7.260  -2.503 126.957  0.00  0.00    +0.027 A 
ATOM      8  C   LIG A   1      -6.807  -2.127 125.668  0.00  0.00    -0.030 A 
ATOM      9  C   LIG A   1      -5.560  -1.468 125.167  0.00  0.00    +0.017 C 
ATOM     10  C   LIG A   1      -5.178  -0.138 125.799  0.00  0.00    +0.012 C 
ATOM     11  C   LIG A   1      -5.913  -1.215 123.664  0.00  0.00    +0.012 C 
ATOM     12  C   LIG A   1      -7.076  -2.146 123.278  0.00  0.00    +0.036 C 
ATOM     13  C   LIG A   1      -7.681  -2.502 124.600  0.00  0.00    -0.040 A 
ATOM     14  C   LIG A   1      -8.925  -3.138 124.734  0.00  0.00    -0.043 A 
ATOM     15  C   LIG A   1      -9.801  -3.501 123.574  0.00  0.00    +0.044 C 
ATOM     16  C   LIG A   1      -9.341  -3.436 126.039  0.00  0.00    +0.050 A 
ENDROOT
TORSDOF 0
ENDMDL
MODEL 2
REMARK VINA RESULT:      -6.4      2.373      5.244
REMARK  Name = NuBBE_2292
REMARK  4 active torsions:
REMARK  status: ('A' for Active; 'I' for Inactive)
REMARK    1  A    between atoms: C_1  and  C_2
REMARK    2  A    between atoms: C_3  and  C_4
REMARK    3  A    between atoms: C_9  and  C_10
REMARK    4  A    between atoms: C_14  and  C_15
REMARK                            x       y       z     vdW  Elec       q    Type
REMARK                         _______ _______ _______ _____ _____    ______ ____
ROOT
ATOM      1  C   LIG A   1      -8.259  -3.997 124.950  0.00  0.00    +0.048 C 
ATOM      2  C   LIG A   1      -8.304  -2.526 125.068  0.00  0.00    -0.002 A 
ATOM      3  C   LIG A   1      -8.479  -1.639 124.003  0.00  0.00    +0.106 A 
ATOM      4  C   LIG A   1      -8.702  -1.823 122.551  0.00  0.00    +0.086 C 
ATOM      5  O   LIG A   1      -8.423  -0.334 124.416  0.00  0.00    -0.460 OA
ATOM      6  C   LIG A   1      -8.233  -0.348 125.769  0.00  0.00    +0.136 A 
ATOM      7  C   LIG A   1      -8.198  -1.658 126.157  0.00  0.00    +0.027 A 
ATOM      8  C   LIG A   1      -8.040  -1.958 127.532  0.00  0.00    -0.030 A 
ATOM      9  C   LIG A   1      -7.957  -3.238 128.304  0.00  0.00    +0.017 C 
ATOM     10  C   LIG A   1      -9.089  -4.236 128.113  0.00  0.00    +0.012 C 
ATOM     11  C   LIG A   1      -7.998  -2.724 129.781  0.00  0.00    +0.012 C 
ATOM     12  C   LIG A   1      -7.610  -1.235 129.785  0.00  0.00    +0.036 C 
ATOM     13  C   LIG A   1      -7.859  -0.813 128.371  0.00  0.00    -0.040 A 
ATOM     14  C   LIG A   1      -7.880   0.527 127.956  0.00  0.00    -0.043 A 
ATOM     15  C   LIG A   1      -7.689   1.686 128.887  0.00  0.00    +0.044 C 
ATOM     16  C   LIG A   1      -8.092   0.759 126.591  0.00  0.00    +0.050 A 
ENDROOT
TORSDOF 0
ENDMDL
MODEL 3
REMARK VINA RESULT:      -6.3      2.049      3.290
REMARK  Name = NuBBE_2292
REMARK  4 active torsions:
REMARK  status: ('A' for Active; 'I' for Inactive)
REMARK    1  A    between atoms: C_1  and  C_2
REMARK    2  A    between atoms: C_3  and  C_4
REMARK    3  A    between atoms: C_9  and  C_10
REMARK    4  A    between atoms: C_14  and  C_15
REMARK                            x       y       z     vdW  Elec       q    Type
REMARK                         _______ _______ _______ _____ _____    ______ ____
ROOT
ATOM      1  C   LIG A   1      -8.710  -4.042 127.895  0.00  0.00    +0.048 C 
ATOM      2  C   LIG A   1      -8.297  -2.624 127.851  0.00  0.00    -0.002 A 
ATOM      3  C   LIG A   1      -7.824  -1.891 128.942  0.00  0.00    +0.106 A 
ATOM      4  C   LIG A   1      -7.549  -2.233 130.356  0.00  0.00    +0.086 C 
ATOM      5  O   LIG A   1      -7.574  -0.588 128.606  0.00  0.00    -0.460 OA
ATOM      6  C   LIG A   1      -7.859  -0.452 127.277  0.00  0.00    +0.136 A 
ATOM      7  C   LIG A   1      -8.257  -1.680 126.824  0.00  0.00    +0.027 A 
ATOM      8  C   LIG A   1      -8.587  -1.827 125.455  0.00  0.00    -0.030 A 
ATOM      9  C   LIG A   1      -9.051  -2.984 124.626  0.00  0.00    +0.017 C 
ATOM     10  C   LIG A   1      -8.203  -4.245 124.662  0.00  0.00    +0.012 C 
ATOM     11  C   LIG A   1      -8.989  -2.388 123.181  0.00  0.00    +0.012 C 
ATOM     12  C   LIG A   1      -8.981  -0.854 123.291  0.00  0.00    +0.036 C 
ATOM     13  C   LIG A   1      -8.529  -0.614 124.698  0.00  0.00    -0.040 A 
ATOM     14  C   LIG A   1      -8.136   0.644 125.179  0.00  0.00    -0.043 A 
ATOM     15  C   LIG A   1      -8.090   1.879 124.333  0.00  0.00    +0.044 C 
ATOM     16  C   LIG A   1      -7.771   0.712 126.531  0.00  0.00    +0.050 A 
ENDROOT
TORSDOF 0
ENDMDL
MODEL 4
REMARK VINA RESULT:      -6.3      2.218      4.297
REMARK  Name = NuBBE_2292
REMARK  4 active torsions:
REMARK  status: ('A' for Active; 'I' for Inactive)
REMARK    1  A    between atoms: C_1  and  C_2
REMARK    2  A    between atoms: C_3  and  C_4
REMARK    3  A    between atoms: C_9  and  C_10
REMARK    4  A    between atoms: C_14  and  C_15
REMARK                            x       y       z     vdW  Elec       q    Type
REMARK                         _______ _______ _______ _____ _____    ______ ____
ROOT
ATOM      1  C   LIG A   1      -7.185   1.347 123.344  0.00  0.00    +0.048 C 
ATOM      2  C   LIG A   1      -7.271   0.834 124.727  0.00  0.00    -0.002 A 
ATOM      3  C   LIG A   1      -6.840   1.518 125.866  0.00  0.00    +0.106 A 
ATOM      4  C   LIG A   1      -6.253   2.859 126.086  0.00  0.00    +0.086 C 
ATOM      5  O   LIG A   1      -7.000   0.766 126.999  0.00  0.00    -0.460 OA
ATOM      6  C   LIG A   1      -7.564  -0.418 126.620  0.00  0.00    +0.136 A 
ATOM      7  C   LIG A   1      -7.756  -0.358 125.268  0.00  0.00    +0.027 A 
ATOM      8  C   LIG A   1      -8.362  -1.459 124.615  0.00  0.00    -0.030 A 
ATOM      9  C   LIG A   1      -8.718  -1.743 123.189  0.00  0.00    +0.017 C 
ATOM     10  C   LIG A   1      -9.582  -0.715 122.474  0.00  0.00    +0.012 C 
ATOM     11  C   LIG A   1      -9.538  -3.068 123.321  0.00  0.00    +0.012 C 
ATOM     12  C   LIG A   1      -9.198  -3.714 124.676  0.00  0.00    +0.036 C 
ATOM     13  C   LIG A   1      -8.646  -2.571 125.469  0.00  0.00    -0.040 A 
ATOM     14  C   LIG A   1      -8.428  -2.626 126.855  0.00  0.00    -0.043 A 
ATOM     15  C   LIG A   1      -8.753  -3.821 127.699  0.00  0.00    +0.044 C 
ATOM     16  C   LIG A   1      -7.874  -1.485 127.449  0.00  0.00    +0.050 A 
ENDROOT
TORSDOF 0
ENDMDL
MODEL 5
REMARK VINA RESULT:      -6.2     10.547     11.599
REMARK  Name = NuBBE_2292
REMARK  4 active torsions:
REMARK  status: ('A' for Active; 'I' for Inactive)
REMARK    1  A    between atoms: C_1  and  C_2
REMARK    2  A    between atoms: C_3  and  C_4
REMARK    3  A    between atoms: C_9  and  C_10
REMARK    4  A    between atoms: C_14  and  C_15
REMARK                            x       y       z     vdW  Elec       q    Type
REMARK                         _______ _______ _______ _____ _____    ______ ____
ROOT
ATOM      1  C   LIG A   1      -9.676   5.432 132.817  0.00  0.00    +0.048 C 
ATOM      2  C   LIG A   1      -8.655   6.133 132.012  0.00  0.00    -0.002 A 
ATOM      3  C   LIG A   1      -8.911   6.865 130.850  0.00  0.00    +0.106 A 
ATOM      4  C   LIG A   1     -10.149   7.204 130.113  0.00  0.00    +0.086 C 
ATOM      5  O   LIG A   1      -7.758   7.354 130.295  0.00  0.00    -0.460 OA
ATOM      6  C   LIG A   1      -6.727   6.968 131.103  0.00  0.00    +0.136 A 
ATOM      7  C   LIG A   1      -7.272   6.270 132.145  0.00  0.00    +0.027 A 
ATOM      8  C   LIG A   1      -6.413   5.775 133.157  0.00  0.00    -0.030 A 
ATOM      9  C   LIG A   1      -6.644   4.989 134.410  0.00  0.00    +0.017 C 
ATOM     10  C   LIG A   1      -7.657   5.545 135.399  0.00  0.00    +0.012 C 
ATOM     11  C   LIG A   1      -5.231   5.028 135.078  0.00  0.00    +0.012 C 
ATOM     12  C   LIG A   1      -4.194   5.377 133.996  0.00  0.00    +0.036 C 
ATOM     13  C   LIG A   1      -5.023   6.014 132.923  0.00  0.00    -0.040 A 
ATOM     14  C   LIG A   1      -4.475   6.717 131.839  0.00  0.00    -0.043 A 
ATOM     15  C   LIG A   1      -3.005   6.939 131.652  0.00  0.00    +0.044 C 
ATOM     16  C   LIG A   1      -5.381   7.226 130.899  0.00  0.00    +0.050 A 
ENDROOT
TORSDOF 0
ENDMDL
MODEL 6
REMARK VINA RESULT:      -6.2      2.534      4.440
REMARK  Name = NuBBE_2292
REMARK  4 active torsions:
REMARK  status: ('A' for Active; 'I' for Inactive)
REMARK    1  A    between atoms: C_1  and  C_2
REMARK    2  A    between atoms: C_3  and  C_4
REMARK    3  A    between atoms: C_9  and  C_10
REMARK    4  A    between atoms: C_14  and  C_15
REMARK                            x       y       z     vdW  Elec       q    Type
REMARK                         _______ _______ _______ _____ _____    ______ ____
ROOT
ATOM      1  C   LIG A   1      -6.581   1.709 126.798  0.00  0.00    +0.048 C 
ATOM      2  C   LIG A   1      -7.017   1.113 125.518  0.00  0.00    -0.002 A 
ATOM      3  C   LIG A   1      -6.907   1.726 124.268  0.00  0.00    +0.106 A 
ATOM      4  C   LIG A   1      -6.342   3.016 123.813  0.00  0.00    +0.086 C 
ATOM      5  O   LIG A   1      -7.447   0.952 123.276  0.00  0.00    -0.460 OA
ATOM      6  C   LIG A   1      -7.899  -0.196 123.861  0.00  0.00    +0.136 A 
ATOM      7  C   LIG A   1      -7.608  -0.109 125.194  0.00  0.00    +0.027 A 
ATOM      8  C   LIG A   1      -7.948  -1.195 126.038  0.00  0.00    -0.030 A 
ATOM      9  C   LIG A   1      -7.791  -1.447 127.506  0.00  0.00    +0.017 C 
ATOM     10  C   LIG A   1      -6.393  -1.300 128.087  0.00  0.00    +0.012 C 
ATOM     11  C   LIG A   1      -8.217  -2.947 127.620  0.00  0.00    +0.012 C 
ATOM     12  C   LIG A   1      -9.037  -3.313 126.371  0.00  0.00    +0.036 C 
ATOM     13  C   LIG A   1      -8.643  -2.260 125.383  0.00  0.00    -0.040 A 
ATOM     14  C   LIG A   1      -8.951  -2.328 124.016  0.00  0.00    -0.043 A 
ATOM     15  C   LIG A   1      -9.678  -3.477 123.386  0.00  0.00    +0.044 C 
ATOM     16  C   LIG A   1      -8.542  -1.246 123.225  0.00  0.00    +0.050 A 
ENDROOT
TORSDOF 0
ENDMDL
MODEL 7
REMARK VINA RESULT:      -6.2      1.958      4.612
REMARK  Name = NuBBE_2292
REMARK  4 active torsions:
REMARK  status: ('A' for Active; 'I' for Inactive)
REMARK    1  A    between atoms: C_1  and  C_2
REMARK    2  A    between atoms: C_3  and  C_4
REMARK    3  A    between atoms: C_9  and  C_10
REMARK    4  A    between atoms: C_14  and  C_15
REMARK                            x       y       z     vdW  Elec       q    Type
REMARK                         _______ _______ _______ _____ _____    ______ ____
ROOT
ATOM      1  C   LIG A   1      -8.921  -0.242 124.574  0.00  0.00    +0.048 C 
ATOM      2  C   LIG A   1      -8.780  -1.460 125.397  0.00  0.00    -0.002 A 
ATOM      3  C   LIG A   1      -9.059  -2.759 124.965  0.00  0.00    +0.106 A 
ATOM      4  C   LIG A   1      -9.497  -3.329 123.671  0.00  0.00    +0.086 C 
ATOM      5  O   LIG A   1      -8.886  -3.674 125.969  0.00  0.00    -0.460 OA
ATOM      6  C   LIG A   1      -8.466  -2.988 127.072  0.00  0.00    +0.136 A 
ATOM      7  C   LIG A   1      -8.372  -1.671 126.715  0.00  0.00    +0.027 A 
ATOM      8  C   LIG A   1      -7.924  -0.735 127.678  0.00  0.00    -0.030 A 
ATOM      9  C   LIG A   1      -7.704   0.746 127.650  0.00  0.00    +0.017 C 
ATOM     10  C   LIG A   1      -6.803   1.291 126.553  0.00  0.00    +0.012 C 
ATOM     11  C   LIG A   1      -7.006   0.992 129.028  0.00  0.00    +0.012 C 
ATOM     12  C   LIG A   1      -7.303  -0.209 129.942  0.00  0.00    +0.036 C 
ATOM     13  C   LIG A   1      -7.683  -1.287 128.976  0.00  0.00    -0.040 A 
ATOM     14  C   LIG A   1      -7.801  -2.639 129.334  0.00  0.00    -0.043 A 
ATOM     15  C   LIG A   1      -7.528  -3.159 130.712  0.00  0.00    +0.044 C 
ATOM     16  C   LIG A   1      -8.198  -3.524 128.322  0.00  0.00    +0.050 A 
ENDROOT
TORSDOF 0
ENDMDL
MODEL 8
REMARK VINA RESULT:      -6.1     10.046     10.998
REMARK  Name = NuBBE_2292
REMARK  4 active torsions:
REMARK  status: ('A' for Active; 'I' for Inactive)
REMARK    1  A    between atoms: C_1  and  C_2
REMARK    2  A    between atoms: C_3  and  C_4
REMARK    3  A    between atoms: C_9  and  C_10
REMARK    4  A    between atoms: C_14  and  C_15
REMARK                            x       y       z     vdW  Elec       q    Type
REMARK                         _______ _______ _______ _____ _____    ______ ____
ROOT
ATOM      1  C   LIG A   1      -4.125   5.772 133.183  0.00  0.00    +0.048 C 
ATOM      2  C   LIG A   1      -5.106   6.318 132.224  0.00  0.00    -0.002 A 
ATOM      3  C   LIG A   1      -4.800   7.167 131.157  0.00  0.00    +0.106 A 
ATOM      4  C   LIG A   1      -3.534   7.724 130.630  0.00  0.00    +0.086 C 
ATOM      5  O   LIG A   1      -5.925   7.550 130.476  0.00  0.00    -0.460 OA
ATOM      6  C   LIG A   1      -6.987   6.936 131.076  0.00  0.00    +0.136 A 
ATOM      7  C   LIG A   1      -6.488   6.175 132.096  0.00  0.00    +0.027 A 
ATOM      8  C   LIG A   1      -7.387   5.402 132.871  0.00  0.00    -0.030 A 
ATOM      9  C   LIG A   1      -7.210   4.477 134.036  0.00  0.00    +0.017 C 
ATOM     10  C   LIG A   1      -6.213   3.340 133.871  0.00  0.00    +0.012 C 
ATOM     11  C   LIG A   1      -8.641   3.862 134.176  0.00  0.00    +0.012 C 
ATOM     12  C   LIG A   1      -9.637   4.787 133.456  0.00  0.00    +0.036 C 
ATOM     13  C   LIG A   1      -8.765   5.570 132.526  0.00  0.00    -0.040 A 
ATOM     14  C   LIG A   1      -9.265   6.369 131.486  0.00  0.00    -0.043 A 
ATOM     15  C   LIG A   1     -10.723   6.501 131.169  0.00  0.00    +0.044 C 
ATOM     16  C   LIG A   1      -8.321   7.069 130.723  0.00  0.00    +0.050 A 
ENDROOT
TORSDOF 0
ENDMDL
MODEL 9
REMARK VINA RESULT:      -6.1      2.062      2.184
REMARK  Name = NuBBE_2292
REMARK  4 active torsions:
REMARK  status: ('A' for Active; 'I' for Inactive)
REMARK    1  A    between atoms: C_1  and  C_2
REMARK    2  A    between atoms: C_3  and  C_4
REMARK    3  A    between atoms: C_9  and  C_10
REMARK    4  A    between atoms: C_14  and  C_15
REMARK                            x       y       z     vdW  Elec       q    Type
REMARK                         _______ _______ _______ _____ _____    ______ ____
ROOT
ATOM      1  C   LIG A   1      -6.913  -0.263 129.777  0.00  0.00    +0.048 C 
ATOM      2  C   LIG A   1      -7.427  -1.476 129.110  0.00  0.00    -0.002 A 
ATOM      3  C   LIG A   1      -7.486  -2.747 129.687  0.00  0.00    +0.106 A 
ATOM      4  C   LIG A   1      -7.142  -3.273 131.027  0.00  0.00    +0.086 C 
ATOM      5  O   LIG A   1      -7.959  -3.682 128.806  0.00  0.00    -0.460 OA
ATOM      6  C   LIG A   1      -8.242  -3.030 127.639  0.00  0.00    +0.136 A 
ATOM      7  C   LIG A   1      -7.955  -1.708 127.839  0.00  0.00    +0.027 A 
ATOM      8  C   LIG A   1      -8.189  -0.794 126.783  0.00  0.00    -0.030 A 
ATOM      9  C   LIG A   1      -7.998   0.684 126.639  0.00  0.00    +0.017 C 
ATOM     10  C   LIG A   1      -8.651   1.572 127.688  0.00  0.00    +0.012 C 
ATOM     11  C   LIG A   1      -8.683   0.964 125.261  0.00  0.00    +0.012 C 
ATOM     12  C   LIG A   1      -8.777  -0.365 124.490  0.00  0.00    +0.036 C 
ATOM     13  C   LIG A   1      -8.647  -1.395 125.568  0.00  0.00    -0.040 A 
ATOM     14  C   LIG A   1      -8.920  -2.757 125.372  0.00  0.00    -0.043 A 
ATOM     15  C   LIG A   1      -9.405  -3.328 124.074  0.00  0.00    +0.044 C 
ATOM     16  C   LIG A   1      -8.719  -3.603 126.471  0.00  0.00    +0.050 A 
ENDROOT
TORSDOF 0
ENDMDL
