MODEL 1
REMARK VINA RESULT:      -6.6      0.000      0.000
REMARK  Name = NuBBE_880
REMARK  16 active torsions:
REMARK  status: ('A' for Active; 'I' for Inactive)
REMARK    1  A    between atoms: C_3  and  O_4
REMARK    2  A    between atoms: O_4  and  C_5
REMARK    3  A    between atoms: C_6  and  C_7
REMARK    4  A    between atoms: C_7  and  C_8
REMARK    5  A    between atoms: C_8  and  C_9
REMARK    6  A    between atoms: C_9  and  C_10
REMARK    7  A    between atoms: C_10  and  C_11
REMARK    8  A    between atoms: C_11  and  C_12
REMARK    9  A    between atoms: C_12  and  C_13
REMARK   10  A    between atoms: C_13  and  C_14
REMARK   11  A    between atoms: C_14  and  C_15
REMARK   12  A    between atoms: C_15  and  C_16
REMARK   13  A    between atoms: C_16  and  C_17
REMARK   14  A    between atoms: C_16  and  O_19
REMARK   15  A    between atoms: C_16  and  C_20
REMARK   16  A    between atoms: C_17  and  C_18
REMARK                            x       y       z     vdW  Elec       q    Type
REMARK                         _______ _______ _______ _____ _____    ______ ____
ROOT
ATOM      1  C   LIG A   1      -9.170   2.372 123.663  0.00  0.00    +0.057 C 
ENDROOT
BRANCH   1   5
ATOM      2  O   LIG A   1      -4.755   4.328 122.771  0.00  0.00    -0.283 OA
ATOM      3  C   LIG A   1      -5.886   4.026 122.433  0.00  0.00    +0.231 A 
ATOM      4  C   LIG A   1      -6.894   3.377 123.360  0.00  0.00    +0.186 A 
ATOM      5  C   LIG A   1      -8.098   3.067 122.832  0.00  0.00    +0.062 A 
ATOM      6  N   LIG A   1      -8.447   3.314 121.517  0.00  0.00    -0.355 N 
ATOM      7  H   LIG A   1      -9.399   3.143 121.231  0.00  0.00    +0.166 HD
ATOM      8  C   LIG A   1      -7.579   3.961 120.626  0.00  0.00    +0.051 A 
ATOM      9  C   LIG A   1      -7.952   4.223 119.310  0.00  0.00    +0.026 A 
ATOM     10  C   LIG A   1      -7.053   4.835 118.430  0.00  0.00    +0.002 A 
ATOM     11  C   LIG A   1      -5.773   5.182 118.855  0.00  0.00    +0.001 A 
ATOM     12  C   LIG A   1      -5.389   4.920 120.169  0.00  0.00    +0.014 A 
ATOM     13  C   LIG A   1      -6.292   4.310 121.042  0.00  0.00    +0.049 A 
BRANCH   4  14
ATOM     14  O   LIG A   1      -6.632   3.127 124.703  0.00  0.00    -0.490 OA
ATOM     15  C   LIG A   1      -6.711   4.222 125.606  0.00  0.00    +0.277 C 
ENDBRANCH   4  14
ENDBRANCH   1   5
BRANCH   1  16
ATOM     16  C   LIG A   1      -9.649   1.071 123.011  0.00  0.00    +0.006 C 
BRANCH  16  17
ATOM     17  C   LIG A   1      -9.290  -0.135 123.878  0.00  0.00    +0.000 C 
BRANCH  17  18
ATOM     18  C   LIG A   1      -8.223  -1.017 123.222  0.00  0.00    +0.000 C 
BRANCH  18  19
ATOM     19  C   LIG A   1      -8.569  -2.509 123.299  0.00  0.00    -0.000 C 
BRANCH  19  20
ATOM     20  C   LIG A   1      -7.803  -3.228 124.414  0.00  0.00    -0.000 C 
BRANCH  20  21
ATOM     21  C   LIG A   1      -6.343  -3.486 124.036  0.00  0.00    +0.000 C 
BRANCH  21  22
ATOM     22  C   LIG A   1      -5.410  -2.535 124.792  0.00  0.00    +0.003 C 
BRANCH  22  23
ATOM     23  C   LIG A   1      -5.796  -2.386 126.273  0.00  0.00    +0.034 C 
BRANCH  23  24
ATOM     24  C   LIG A   1      -6.012  -0.916 126.724  0.00  0.00    +0.063 C 
ATOM     25  C   LIG A   1      -5.618   0.057 125.609  0.00  0.00    +0.041 C 
BRANCH  24  26
ATOM     26  C   LIG A   1      -7.479  -0.695 127.169  0.00  0.00    +0.031 C 
ATOM     27  C   LIG A   1      -7.870   0.774 127.335  0.00  0.00    +0.007 C 
ENDBRANCH  24  26
BRANCH  24  28
ATOM     28  O   LIG A   1      -5.155  -0.649 127.839  0.00  0.00    -0.389 OA
ATOM     29  H   LIG A   1      -5.596  -0.975 128.643  0.00  0.00    +0.210 HD
ENDBRANCH  24  28
ENDBRANCH  23  24
ENDBRANCH  22  23
ENDBRANCH  21  22
ENDBRANCH  20  21
ENDBRANCH  19  20
ENDBRANCH  18  19
ENDBRANCH  17  18
ENDBRANCH  16  17
ENDBRANCH   1  16
TORSDOF 13
ENDMDL
MODEL 2
REMARK VINA RESULT:      -6.4      6.567      9.726
REMARK  Name = NuBBE_880
REMARK  16 active torsions:
REMARK  status: ('A' for Active; 'I' for Inactive)
REMARK    1  A    between atoms: C_3  and  O_4
REMARK    2  A    between atoms: O_4  and  C_5
REMARK    3  A    between atoms: C_6  and  C_7
REMARK    4  A    between atoms: C_7  and  C_8
REMARK    5  A    between atoms: C_8  and  C_9
REMARK    6  A    between atoms: C_9  and  C_10
REMARK    7  A    between atoms: C_10  and  C_11
REMARK    8  A    between atoms: C_11  and  C_12
REMARK    9  A    between atoms: C_12  and  C_13
REMARK   10  A    between atoms: C_13  and  C_14
REMARK   11  A    between atoms: C_14  and  C_15
REMARK   12  A    between atoms: C_15  and  C_16
REMARK   13  A    between atoms: C_16  and  C_17
REMARK   14  A    between atoms: C_16  and  O_19
REMARK   15  A    between atoms: C_16  and  C_20
REMARK   16  A    between atoms: C_17  and  C_18
REMARK                            x       y       z     vdW  Elec       q    Type
REMARK                         _______ _______ _______ _____ _____    ______ ____
ROOT
ATOM      1  C   LIG A   1      -7.916   6.888 130.850  0.00  0.00    +0.057 C 
ENDROOT
BRANCH   1   5
ATOM      2  O   LIG A   1     -12.748   6.587 131.673  0.00  0.00    -0.283 OA
ATOM      3  C   LIG A   1     -11.789   6.721 130.933  0.00  0.00    +0.231 A 
ATOM      4  C   LIG A   1     -10.350   6.672 131.407  0.00  0.00    +0.186 A 
ATOM      5  C   LIG A   1      -9.393   6.873 130.475  0.00  0.00    +0.062 A 
ATOM      6  N   LIG A   1      -9.659   7.111 129.139  0.00  0.00    -0.355 N 
ATOM      7  H   LIG A   1      -8.885   7.150 128.493  0.00  0.00    +0.166 HD
ATOM      8  C   LIG A   1     -10.966   7.112 128.630  0.00  0.00    +0.051 A 
ATOM      9  C   LIG A   1     -11.217   7.332 127.277  0.00  0.00    +0.026 A 
ATOM     10  C   LIG A   1     -12.533   7.368 126.801  0.00  0.00    +0.002 A 
ATOM     11  C   LIG A   1     -13.606   7.194 127.673  0.00  0.00    +0.001 A 
ATOM     12  C   LIG A   1     -13.363   6.979 129.029  0.00  0.00    +0.014 A 
ATOM     13  C   LIG A   1     -12.048   6.942 129.496  0.00  0.00    +0.049 A 
BRANCH   4  14
ATOM     14  O   LIG A   1      -9.999   6.405 132.726  0.00  0.00    -0.490 OA
ATOM     15  C   LIG A   1      -9.766   5.049 133.086  0.00  0.00    +0.277 C 
ENDBRANCH   4  14
ENDBRANCH   1   5
BRANCH   1  16
ATOM     16  C   LIG A   1      -7.256   5.522 130.639  0.00  0.00    +0.006 C 
BRANCH  16  17
ATOM     17  C   LIG A   1      -5.744   5.613 130.833  0.00  0.00    +0.000 C 
BRANCH  17  18
ATOM     18  C   LIG A   1      -5.262   7.064 130.919  0.00  0.00    +0.000 C 
BRANCH  18  19
ATOM     19  C   LIG A   1      -3.891   7.187 131.596  0.00  0.00    -0.000 C 
BRANCH  19  20
ATOM     20  C   LIG A   1      -2.763   7.427 130.588  0.00  0.00    -0.000 C 
BRANCH  20  21
ATOM     21  C   LIG A   1      -2.257   6.123 129.968  0.00  0.00    +0.000 C 
BRANCH  21  22
ATOM     22  C   LIG A   1      -2.235   6.220 128.440  0.00  0.00    +0.003 C 
BRANCH  22  23
ATOM     23  C   LIG A   1      -3.571   5.795 127.805  0.00  0.00    +0.034 C 
BRANCH  23  24
ATOM     24  C   LIG A   1      -3.639   4.291 127.426  0.00  0.00    +0.063 C 
ATOM     25  C   LIG A   1      -4.204   4.112 126.014  0.00  0.00    +0.041 C 
BRANCH  24  26
ATOM     26  C   LIG A   1      -2.243   3.634 127.559  0.00  0.00    +0.031 C 
ATOM     27  C   LIG A   1      -1.704   3.035 126.259  0.00  0.00    +0.007 C 
ENDBRANCH  24  26
BRANCH  24  28
ATOM     28  O   LIG A   1      -4.537   3.633 128.326  0.00  0.00    -0.389 OA
ATOM     29  H   LIG A   1      -4.436   4.040 129.204  0.00  0.00    +0.210 HD
ENDBRANCH  24  28
ENDBRANCH  23  24
ENDBRANCH  22  23
ENDBRANCH  21  22
ENDBRANCH  20  21
ENDBRANCH  19  20
ENDBRANCH  18  19
ENDBRANCH  17  18
ENDBRANCH  16  17
ENDBRANCH   1  16
TORSDOF 13
ENDMDL
MODEL 3
REMARK VINA RESULT:      -6.3      5.651      8.173
REMARK  Name = NuBBE_880
REMARK  16 active torsions:
REMARK  status: ('A' for Active; 'I' for Inactive)
REMARK    1  A    between atoms: C_3  and  O_4
REMARK    2  A    between atoms: O_4  and  C_5
REMARK    3  A    between atoms: C_6  and  C_7
REMARK    4  A    between atoms: C_7  and  C_8
REMARK    5  A    between atoms: C_8  and  C_9
REMARK    6  A    between atoms: C_9  and  C_10
REMARK    7  A    between atoms: C_10  and  C_11
REMARK    8  A    between atoms: C_11  and  C_12
REMARK    9  A    between atoms: C_12  and  C_13
REMARK   10  A    between atoms: C_13  and  C_14
REMARK   11  A    between atoms: C_14  and  C_15
REMARK   12  A    between atoms: C_15  and  C_16
REMARK   13  A    between atoms: C_16  and  C_17
REMARK   14  A    between atoms: C_16  and  O_19
REMARK   15  A    between atoms: C_16  and  C_20
REMARK   16  A    between atoms: C_17  and  C_18
REMARK                            x       y       z     vdW  Elec       q    Type
REMARK                         _______ _______ _______ _____ _____    ______ ____
ROOT
ATOM      1  C   LIG A   1      -8.993   2.944 132.030  0.00  0.00    +0.057 C 
ENDROOT
BRANCH   1   5
ATOM      2  O   LIG A   1      -9.167   5.802 128.041  0.00  0.00    -0.283 OA
ATOM      3  C   LIG A   1      -9.539   5.492 129.159  0.00  0.00    +0.231 A 
ATOM      4  C   LIG A   1      -8.944   4.347 129.954  0.00  0.00    +0.186 A 
ATOM      5  C   LIG A   1      -9.485   4.100 131.167  0.00  0.00    +0.062 A 
ATOM      6  N   LIG A   1     -10.527   4.830 131.707  0.00  0.00    -0.355 N 
ATOM      7  H   LIG A   1     -10.804   4.644 132.659  0.00  0.00    +0.166 HD
ATOM      8  C   LIG A   1     -11.081   5.936 131.045  0.00  0.00    +0.051 A 
ATOM      9  C   LIG A   1     -12.117   6.676 131.612  0.00  0.00    +0.026 A 
ATOM     10  C   LIG A   1     -12.680   7.751 130.914  0.00  0.00    +0.002 A 
ATOM     11  C   LIG A   1     -12.219   8.088 129.644  0.00  0.00    +0.001 A 
ATOM     12  C   LIG A   1     -11.186   7.349 129.067  0.00  0.00    +0.014 A 
ATOM     13  C   LIG A   1     -10.628   6.280 129.770  0.00  0.00    +0.049 A 
BRANCH   4  14
ATOM     14  O   LIG A   1      -7.874   3.586 129.495  0.00  0.00    -0.490 OA
ATOM     15  C   LIG A   1      -8.137   2.611 128.494  0.00  0.00    +0.277 C 
ENDBRANCH   4  14
ENDBRANCH   1   5
BRANCH   1  16
ATOM     16  C   LIG A   1      -9.968   1.763 132.019  0.00  0.00    +0.006 C 
BRANCH  16  17
ATOM     17  C   LIG A   1      -9.240   0.461 131.691  0.00  0.00    +0.000 C 
BRANCH  17  18
ATOM     18  C   LIG A   1      -7.721   0.647 131.646  0.00  0.00    +0.000 C 
BRANCH  18  19
ATOM     19  C   LIG A   1      -7.047  -0.277 130.624  0.00  0.00    -0.000 C 
BRANCH  19  20
ATOM     20  C   LIG A   1      -8.053  -1.170 129.893  0.00  0.00    -0.000 C 
BRANCH  20  21
ATOM     21  C   LIG A   1      -7.454  -2.527 129.520  0.00  0.00    +0.000 C 
BRANCH  21  22
ATOM     22  C   LIG A   1      -8.240  -3.172 128.374  0.00  0.00    +0.003 C 
BRANCH  22  23
ATOM     23  C   LIG A   1      -7.683  -2.790 126.992  0.00  0.00    +0.034 C 
BRANCH  23  24
ATOM     24  C   LIG A   1      -8.772  -2.625 125.897  0.00  0.00    +0.063 C 
ATOM     25  C   LIG A   1      -9.064  -1.143 125.640  0.00  0.00    +0.041 C 
BRANCH  24  26
ATOM     26  C   LIG A   1      -8.347  -3.347 124.594  0.00  0.00    +0.031 C 
ATOM     27  C   LIG A   1      -9.338  -3.194 123.440  0.00  0.00    +0.007 C 
ENDBRANCH  24  26
BRANCH  24  28
ATOM     28  O   LIG A   1      -9.987  -3.218 126.368  0.00  0.00    -0.389 OA
ATOM     29  H   LIG A   1     -10.602  -2.501 126.601  0.00  0.00    +0.210 HD
ENDBRANCH  24  28
ENDBRANCH  23  24
ENDBRANCH  22  23
ENDBRANCH  21  22
ENDBRANCH  20  21
ENDBRANCH  19  20
ENDBRANCH  18  19
ENDBRANCH  17  18
ENDBRANCH  16  17
ENDBRANCH   1  16
TORSDOF 13
ENDMDL
MODEL 4
REMARK VINA RESULT:      -6.2      7.182     10.156
REMARK  Name = NuBBE_880
REMARK  16 active torsions:
REMARK  status: ('A' for Active; 'I' for Inactive)
REMARK    1  A    between atoms: C_3  and  O_4
REMARK    2  A    between atoms: O_4  and  C_5
REMARK    3  A    between atoms: C_6  and  C_7
REMARK    4  A    between atoms: C_7  and  C_8
REMARK    5  A    between atoms: C_8  and  C_9
REMARK    6  A    between atoms: C_9  and  C_10
REMARK    7  A    between atoms: C_10  and  C_11
REMARK    8  A    between atoms: C_11  and  C_12
REMARK    9  A    between atoms: C_12  and  C_13
REMARK   10  A    between atoms: C_13  and  C_14
REMARK   11  A    between atoms: C_14  and  C_15
REMARK   12  A    between atoms: C_15  and  C_16
REMARK   13  A    between atoms: C_16  and  C_17
REMARK   14  A    between atoms: C_16  and  O_19
REMARK   15  A    between atoms: C_16  and  C_20
REMARK   16  A    between atoms: C_17  and  C_18
REMARK                            x       y       z     vdW  Elec       q    Type
REMARK                         _______ _______ _______ _____ _____    ______ ____
ROOT
ATOM      1  C   LIG A   1      -9.219   3.475 132.355  0.00  0.00    +0.057 C 
ENDROOT
BRANCH   1   5
ATOM      2  O   LIG A   1      -9.364   5.975 128.131  0.00  0.00    -0.283 OA
ATOM      3  C   LIG A   1      -9.748   5.760 129.267  0.00  0.00    +0.231 A 
ATOM      4  C   LIG A   1      -9.154   4.693 130.165  0.00  0.00    +0.186 A 
ATOM      5  C   LIG A   1      -9.710   4.546 131.388  0.00  0.00    +0.062 A 
ATOM      6  N   LIG A   1     -10.765   5.310 131.849  0.00  0.00    -0.355 N 
ATOM      7  H   LIG A   1     -11.053   5.204 132.811  0.00  0.00    +0.166 HD
ATOM      8  C   LIG A   1     -11.320   6.349 131.088  0.00  0.00    +0.051 A 
ATOM      9  C   LIG A   1     -12.370   7.125 131.575  0.00  0.00    +0.026 A 
ATOM     10  C   LIG A   1     -12.933   8.129 130.779  0.00  0.00    +0.002 A 
ATOM     11  C   LIG A   1     -12.458   8.360 129.491  0.00  0.00    +0.001 A 
ATOM     12  C   LIG A   1     -11.410   7.585 128.994  0.00  0.00    +0.014 A 
ATOM     13  C   LIG A   1     -10.853   6.586 129.794  0.00  0.00    +0.049 A 
BRANCH   4  14
ATOM     14  O   LIG A   1      -8.071   3.907 129.788  0.00  0.00    -0.490 OA
ATOM     15  C   LIG A   1      -8.324   2.803 128.928  0.00  0.00    +0.277 C 
ENDBRANCH   4  14
ENDBRANCH   1   5
BRANCH   1  16
ATOM     16  C   LIG A   1      -9.353   3.915 133.816  0.00  0.00    +0.006 C 
BRANCH  16  17
ATOM     17  C   LIG A   1      -7.996   3.892 134.517  0.00  0.00    +0.000 C 
BRANCH  17  18
ATOM     18  C   LIG A   1      -6.837   3.780 133.522  0.00  0.00    +0.000 C 
BRANCH  18  19
ATOM     19  C   LIG A   1      -5.605   4.578 133.964  0.00  0.00    -0.000 C 
BRANCH  19  20
ATOM     20  C   LIG A   1      -5.214   5.657 132.949  0.00  0.00    -0.000 C 
BRANCH  20  21
ATOM     21  C   LIG A   1      -6.436   6.291 132.283  0.00  0.00    +0.000 C 
BRANCH  21  22
ATOM     22  C   LIG A   1      -6.117   6.706 130.843  0.00  0.00    +0.003 C 
BRANCH  22  23
ATOM     23  C   LIG A   1      -4.680   7.233 130.688  0.00  0.00    +0.034 C 
BRANCH  23  24
ATOM     24  C   LIG A   1      -3.861   6.514 129.583  0.00  0.00    +0.063 C 
ATOM     25  C   LIG A   1      -2.365   6.537 129.914  0.00  0.00    +0.041 C 
BRANCH  24  26
ATOM     26  C   LIG A   1      -4.370   5.064 129.386  0.00  0.00    +0.031 C 
ATOM     27  C   LIG A   1      -3.302   4.087 128.893  0.00  0.00    +0.007 C 
ENDBRANCH  24  26
BRANCH  24  28
ATOM     28  O   LIG A   1      -4.031   7.226 128.352  0.00  0.00    -0.389 OA
ATOM     29  H   LIG A   1      -4.752   6.801 127.856  0.00  0.00    +0.210 HD
ENDBRANCH  24  28
ENDBRANCH  23  24
ENDBRANCH  22  23
ENDBRANCH  21  22
ENDBRANCH  20  21
ENDBRANCH  19  20
ENDBRANCH  18  19
ENDBRANCH  17  18
ENDBRANCH  16  17
ENDBRANCH   1  16
TORSDOF 13
ENDMDL
MODEL 5
REMARK VINA RESULT:      -6.1      6.274      9.253
REMARK  Name = NuBBE_880
REMARK  16 active torsions:
REMARK  status: ('A' for Active; 'I' for Inactive)
REMARK    1  A    between atoms: C_3  and  O_4
REMARK    2  A    between atoms: O_4  and  C_5
REMARK    3  A    between atoms: C_6  and  C_7
REMARK    4  A    between atoms: C_7  and  C_8
REMARK    5  A    between atoms: C_8  and  C_9
REMARK    6  A    between atoms: C_9  and  C_10
REMARK    7  A    between atoms: C_10  and  C_11
REMARK    8  A    between atoms: C_11  and  C_12
REMARK    9  A    between atoms: C_12  and  C_13
REMARK   10  A    between atoms: C_13  and  C_14
REMARK   11  A    between atoms: C_14  and  C_15
REMARK   12  A    between atoms: C_15  and  C_16
REMARK   13  A    between atoms: C_16  and  C_17
REMARK   14  A    between atoms: C_16  and  O_19
REMARK   15  A    between atoms: C_16  and  C_20
REMARK   16  A    between atoms: C_17  and  C_18
REMARK                            x       y       z     vdW  Elec       q    Type
REMARK                         _______ _______ _______ _____ _____    ______ ____
ROOT
ATOM      1  C   LIG A   1      -7.497   6.440 131.630  0.00  0.00    +0.057 C 
ENDROOT
BRANCH   1   5
ATOM      2  O   LIG A   1     -11.629   4.176 130.244  0.00  0.00    -0.283 OA
ATOM      3  C   LIG A   1     -10.873   5.132 130.240  0.00  0.00    +0.231 A 
ATOM      4  C   LIG A   1      -9.542   5.152 130.966  0.00  0.00    +0.186 A 
ATOM      5  C   LIG A   1      -8.828   6.296 130.900  0.00  0.00    +0.062 A 
ATOM      6  N   LIG A   1      -9.241   7.421 130.212  0.00  0.00    -0.355 N 
ATOM      7  H   LIG A   1      -8.602   8.198 130.129  0.00  0.00    +0.166 HD
ATOM      8  C   LIG A   1     -10.434   7.446 129.475  0.00  0.00    +0.051 A 
ATOM      9  C   LIG A   1     -10.827   8.581 128.768  0.00  0.00    +0.026 A 
ATOM     10  C   LIG A   1     -12.042   8.593 128.073  0.00  0.00    +0.002 A 
ATOM     11  C   LIG A   1     -12.875   7.477 128.085  0.00  0.00    +0.001 A 
ATOM     12  C   LIG A   1     -12.492   6.339 128.794  0.00  0.00    +0.014 A 
ATOM     13  C   LIG A   1     -11.278   6.334 129.484  0.00  0.00    +0.049 A 
BRANCH   4  14
ATOM     14  O   LIG A   1      -9.041   4.051 131.652  0.00  0.00    -0.490 OA
ATOM     15  C   LIG A   1      -8.555   2.958 130.882  0.00  0.00    +0.277 C 
ENDBRANCH   4  14
ENDBRANCH   1   5
BRANCH   1  16
ATOM     16  C   LIG A   1      -6.314   6.016 130.754  0.00  0.00    +0.006 C 
BRANCH  16  17
ATOM     17  C   LIG A   1      -5.510   4.906 131.427  0.00  0.00    +0.000 C 
BRANCH  17  18
ATOM     18  C   LIG A   1      -4.008   5.203 131.429  0.00  0.00    +0.000 C 
BRANCH  18  19
ATOM     19  C   LIG A   1      -3.651   6.423 130.571  0.00  0.00    -0.000 C 
BRANCH  19  20
ATOM     20  C   LIG A   1      -2.217   6.359 130.035  0.00  0.00    -0.000 C 
BRANCH  20  21
ATOM     21  C   LIG A   1      -2.153   6.617 128.528  0.00  0.00    +0.000 C 
BRANCH  21  22
ATOM     22  C   LIG A   1      -3.120   5.697 127.777  0.00  0.00    +0.003 C 
BRANCH  22  23
ATOM     23  C   LIG A   1      -2.566   4.271 127.611  0.00  0.00    +0.034 C 
BRANCH  23  24
ATOM     24  C   LIG A   1      -3.662   3.174 127.536  0.00  0.00    +0.063 C 
ATOM     25  C   LIG A   1      -3.824   2.475 128.890  0.00  0.00    +0.041 C 
BRANCH  24  26
ATOM     26  C   LIG A   1      -5.004   3.778 127.052  0.00  0.00    +0.031 C 
ATOM     27  C   LIG A   1      -6.183   3.517 127.989  0.00  0.00    +0.007 C 
ENDBRANCH  24  26
BRANCH  24  28
ATOM     28  O   LIG A   1      -3.247   2.178 126.595  0.00  0.00    -0.389 OA
ATOM     29  H   LIG A   1      -3.744   1.362 126.781  0.00  0.00    +0.210 HD
ENDBRANCH  24  28
ENDBRANCH  23  24
ENDBRANCH  22  23
ENDBRANCH  21  22
ENDBRANCH  20  21
ENDBRANCH  19  20
ENDBRANCH  18  19
ENDBRANCH  17  18
ENDBRANCH  16  17
ENDBRANCH   1  16
TORSDOF 13
ENDMDL
MODEL 6
REMARK VINA RESULT:      -6.1      3.401      5.132
REMARK  Name = NuBBE_880
REMARK  16 active torsions:
REMARK  status: ('A' for Active; 'I' for Inactive)
REMARK    1  A    between atoms: C_3  and  O_4
REMARK    2  A    between atoms: O_4  and  C_5
REMARK    3  A    between atoms: C_6  and  C_7
REMARK    4  A    between atoms: C_7  and  C_8
REMARK    5  A    between atoms: C_8  and  C_9
REMARK    6  A    between atoms: C_9  and  C_10
REMARK    7  A    between atoms: C_10  and  C_11
REMARK    8  A    between atoms: C_11  and  C_12
REMARK    9  A    between atoms: C_12  and  C_13
REMARK   10  A    between atoms: C_13  and  C_14
REMARK   11  A    between atoms: C_14  and  C_15
REMARK   12  A    between atoms: C_15  and  C_16
REMARK   13  A    between atoms: C_16  and  C_17
REMARK   14  A    between atoms: C_16  and  O_19
REMARK   15  A    between atoms: C_16  and  C_20
REMARK   16  A    between atoms: C_17  and  C_18
REMARK                            x       y       z     vdW  Elec       q    Type
REMARK                         _______ _______ _______ _____ _____    ______ ____
ROOT
ATOM      1  C   LIG A   1      -6.519   0.005 125.348  0.00  0.00    +0.057 C 
ENDROOT
BRANCH   1   5
ATOM      2  O   LIG A   1      -7.023   4.710 126.662  0.00  0.00    -0.283 OA
ATOM      3  C   LIG A   1      -6.350   3.710 126.478  0.00  0.00    +0.231 A 
ATOM      4  C   LIG A   1      -6.912   2.407 125.947  0.00  0.00    +0.186 A 
ATOM      5  C   LIG A   1      -6.050   1.373 125.830  0.00  0.00    +0.062 A 
ATOM      6  N   LIG A   1      -4.710   1.449 126.160  0.00  0.00    -0.355 N 
ATOM      7  H   LIG A   1      -4.116   0.661 125.948  0.00  0.00    +0.166 HD
ATOM      8  C   LIG A   1      -4.120   2.641 126.603  0.00  0.00    +0.051 A 
ATOM      9  C   LIG A   1      -2.762   2.708 126.911  0.00  0.00    +0.026 A 
ATOM     10  C   LIG A   1      -2.205   3.900 127.389  0.00  0.00    +0.002 A 
ATOM     11  C   LIG A   1      -3.000   5.029 127.571  0.00  0.00    +0.001 A 
ATOM     12  C   LIG A   1      -4.361   4.969 127.270  0.00  0.00    +0.014 A 
ATOM     13  C   LIG A   1      -4.909   3.778 126.792  0.00  0.00    +0.049 A 
BRANCH   4  14
ATOM     14  O   LIG A   1      -8.240   2.260 125.561  0.00  0.00    -0.490 OA
ATOM     15  C   LIG A   1      -8.630   2.810 124.309  0.00  0.00    +0.277 C 
ENDBRANCH   4  14
ENDBRANCH   1   5
BRANCH   1  16
ATOM     16  C   LIG A   1      -5.360  -0.990 125.231  0.00  0.00    +0.006 C 
BRANCH  16  17
ATOM     17  C   LIG A   1      -5.852  -2.337 124.706  0.00  0.00    +0.000 C 
BRANCH  17  18
ATOM     18  C   LIG A   1      -6.822  -2.177 123.532  0.00  0.00    +0.000 C 
BRANCH  18  19
ATOM     19  C   LIG A   1      -8.129  -2.952 123.741  0.00  0.00    -0.000 C 
BRANCH  19  20
ATOM     20  C   LIG A   1      -8.113  -3.785 125.026  0.00  0.00    -0.000 C 
BRANCH  20  21
ATOM     21  C   LIG A   1      -9.135  -3.285 126.050  0.00  0.00    +0.000 C 
BRANCH  21  22
ATOM     22  C   LIG A   1      -8.553  -3.327 127.465  0.00  0.00    +0.003 C 
BRANCH  22  23
ATOM     23  C   LIG A   1      -7.858  -2.011 127.856  0.00  0.00    +0.034 C 
BRANCH  23  24
ATOM     24  C   LIG A   1      -7.289  -2.003 129.300  0.00  0.00    +0.063 C 
ATOM     25  C   LIG A   1      -7.543  -3.346 129.992  0.00  0.00    +0.041 C 
BRANCH  24  26
ATOM     26  C   LIG A   1      -5.779  -1.655 129.287  0.00  0.00    +0.031 C 
ATOM     27  C   LIG A   1      -4.921  -2.616 128.464  0.00  0.00    +0.007 C 
ENDBRANCH  24  26
BRANCH  24  28
ATOM     28  O   LIG A   1      -7.978  -1.002 130.057  0.00  0.00    -0.389 OA
ATOM     29  H   LIG A   1      -8.248  -0.295 129.446  0.00  0.00    +0.210 HD
ENDBRANCH  24  28
ENDBRANCH  23  24
ENDBRANCH  22  23
ENDBRANCH  21  22
ENDBRANCH  20  21
ENDBRANCH  19  20
ENDBRANCH  18  19
ENDBRANCH  17  18
ENDBRANCH  16  17
ENDBRANCH   1  16
TORSDOF 13
ENDMDL
MODEL 7
REMARK VINA RESULT:      -6.1      4.129      7.088
REMARK  Name = NuBBE_880
REMARK  16 active torsions:
REMARK  status: ('A' for Active; 'I' for Inactive)
REMARK    1  A    between atoms: C_3  and  O_4
REMARK    2  A    between atoms: O_4  and  C_5
REMARK    3  A    between atoms: C_6  and  C_7
REMARK    4  A    between atoms: C_7  and  C_8
REMARK    5  A    between atoms: C_8  and  C_9
REMARK    6  A    between atoms: C_9  and  C_10
REMARK    7  A    between atoms: C_10  and  C_11
REMARK    8  A    between atoms: C_11  and  C_12
REMARK    9  A    between atoms: C_12  and  C_13
REMARK   10  A    between atoms: C_13  and  C_14
REMARK   11  A    between atoms: C_14  and  C_15
REMARK   12  A    between atoms: C_15  and  C_16
REMARK   13  A    between atoms: C_16  and  C_17
REMARK   14  A    between atoms: C_16  and  O_19
REMARK   15  A    between atoms: C_16  and  C_20
REMARK   16  A    between atoms: C_17  and  C_18
REMARK                            x       y       z     vdW  Elec       q    Type
REMARK                         _______ _______ _______ _____ _____    ______ ____
ROOT
ATOM      1  C   LIG A   1      -5.761   2.394 127.033  0.00  0.00    +0.057 C 
ENDROOT
BRANCH   1   5
ATOM      2  O   LIG A   1      -9.457   4.798 129.196  0.00  0.00    -0.283 OA
ATOM      3  C   LIG A   1      -8.701   3.847 129.103  0.00  0.00    +0.231 A 
ATOM      4  C   LIG A   1      -7.600   3.749 128.065  0.00  0.00    +0.186 A 
ATOM      5  C   LIG A   1      -6.865   2.616 128.061  0.00  0.00    +0.062 A 
ATOM      6  N   LIG A   1      -7.061   1.569 128.943  0.00  0.00    -0.355 N 
ATOM      7  H   LIG A   1      -6.403   0.804 128.936  0.00  0.00    +0.166 HD
ATOM      8  C   LIG A   1      -8.025   1.624 129.959  0.00  0.00    +0.051 A 
ATOM      9  C   LIG A   1      -8.197   0.569 130.854  0.00  0.00    +0.026 A 
ATOM     10  C   LIG A   1      -9.193   0.632 131.835  0.00  0.00    +0.002 A 
ATOM     11  C   LIG A   1     -10.029   1.742 131.924  0.00  0.00    +0.001 A 
ATOM     12  C   LIG A   1      -9.867   2.800 131.030  0.00  0.00    +0.014 A 
ATOM     13  C   LIG A   1      -8.870   2.731 130.055  0.00  0.00    +0.049 A 
BRANCH   4  14
ATOM     14  O   LIG A   1      -7.317   4.772 127.166  0.00  0.00    -0.490 OA
ATOM     15  C   LIG A   1      -8.054   4.804 125.950  0.00  0.00    +0.277 C 
ENDBRANCH   4  14
ENDBRANCH   1   5
BRANCH   1  16
ATOM     16  C   LIG A   1      -6.141   1.323 126.006  0.00  0.00    +0.006 C 
BRANCH  16  17
ATOM     17  C   LIG A   1      -5.148   0.163 126.039  0.00  0.00    +0.000 C 
BRANCH  17  18
ATOM     18  C   LIG A   1      -5.700  -1.044 126.805  0.00  0.00    +0.000 C 
BRANCH  18  19
ATOM     19  C   LIG A   1      -5.583  -2.348 126.007  0.00  0.00    -0.000 C 
BRANCH  19  20
ATOM     20  C   LIG A   1      -5.135  -2.109 124.563  0.00  0.00    -0.000 C 
BRANCH  20  21
ATOM     21  C   LIG A   1      -5.962  -2.918 123.561  0.00  0.00    +0.000 C 
BRANCH  21  22
ATOM     22  C   LIG A   1      -6.688  -1.993 122.581  0.00  0.00    +0.003 C 
BRANCH  22  23
ATOM     23  C   LIG A   1      -7.490  -0.892 123.296  0.00  0.00    +0.034 C 
BRANCH  23  24
ATOM     24  C   LIG A   1      -8.913  -1.332 123.734  0.00  0.00    +0.063 C 
ATOM     25  C   LIG A   1      -9.242  -2.725 123.189  0.00  0.00    +0.041 C 
BRANCH  24  26
ATOM     26  C   LIG A   1      -9.044  -1.287 125.276  0.00  0.00    +0.031 C 
ATOM     27  C   LIG A   1      -9.275  -2.652 125.926  0.00  0.00    +0.007 C 
ENDBRANCH  24  26
BRANCH  24  28
ATOM     28  O   LIG A   1      -9.865  -0.423 123.171  0.00  0.00    -0.389 OA
ATOM     29  H   LIG A   1     -10.412  -0.915 122.534  0.00  0.00    +0.210 HD
ENDBRANCH  24  28
ENDBRANCH  23  24
ENDBRANCH  22  23
ENDBRANCH  21  22
ENDBRANCH  20  21
ENDBRANCH  19  20
ENDBRANCH  18  19
ENDBRANCH  17  18
ENDBRANCH  16  17
ENDBRANCH   1  16
TORSDOF 13
ENDMDL
MODEL 8
REMARK VINA RESULT:      -6.1      4.219      9.107
REMARK  Name = NuBBE_880
REMARK  16 active torsions:
REMARK  status: ('A' for Active; 'I' for Inactive)
REMARK    1  A    between atoms: C_3  and  O_4
REMARK    2  A    between atoms: O_4  and  C_5
REMARK    3  A    between atoms: C_6  and  C_7
REMARK    4  A    between atoms: C_7  and  C_8
REMARK    5  A    between atoms: C_8  and  C_9
REMARK    6  A    between atoms: C_9  and  C_10
REMARK    7  A    between atoms: C_10  and  C_11
REMARK    8  A    between atoms: C_11  and  C_12
REMARK    9  A    between atoms: C_12  and  C_13
REMARK   10  A    between atoms: C_13  and  C_14
REMARK   11  A    between atoms: C_14  and  C_15
REMARK   12  A    between atoms: C_15  and  C_16
REMARK   13  A    between atoms: C_16  and  C_17
REMARK   14  A    between atoms: C_16  and  O_19
REMARK   15  A    between atoms: C_16  and  C_20
REMARK   16  A    between atoms: C_17  and  C_18
REMARK                            x       y       z     vdW  Elec       q    Type
REMARK                         _______ _______ _______ _____ _____    ______ ____
ROOT
ATOM      1  C   LIG A   1      -7.813  -1.645 128.105  0.00  0.00    +0.057 C 
ENDROOT
BRANCH   1   5
ATOM      2  O   LIG A   1      -7.859  -1.330 133.005  0.00  0.00    -0.283 OA
ATOM      3  C   LIG A   1      -7.523  -1.869 131.965  0.00  0.00    +0.231 A 
ATOM      4  C   LIG A   1      -7.882  -1.338 130.591  0.00  0.00    +0.186 A 
ATOM      5  C   LIG A   1      -7.469  -2.064 129.530  0.00  0.00    +0.062 A 
ATOM      6  N   LIG A   1      -6.747  -3.238 129.636  0.00  0.00    -0.355 N 
ATOM      7  H   LIG A   1      -6.392  -3.664 128.792  0.00  0.00    +0.166 HD
ATOM      8  C   LIG A   1      -6.337  -3.750 130.875  0.00  0.00    +0.051 A 
ATOM      9  C   LIG A   1      -5.591  -4.923 130.965  0.00  0.00    +0.026 A 
ATOM     10  C   LIG A   1      -5.228  -5.434 132.217  0.00  0.00    +0.002 A 
ATOM     11  C   LIG A   1      -5.614  -4.783 133.385  0.00  0.00    +0.001 A 
ATOM     12  C   LIG A   1      -6.366  -3.611 133.305  0.00  0.00    +0.014 A 
ATOM     13  C   LIG A   1      -6.722  -3.106 132.053  0.00  0.00    +0.049 A 
BRANCH   4  14
ATOM     14  O   LIG A   1      -8.576  -0.148 130.400  0.00  0.00    -0.490 OA
ATOM     15  C   LIG A   1      -7.846   1.068 130.511  0.00  0.00    +0.277 C 
ENDBRANCH   4  14
ENDBRANCH   1   5
BRANCH   1  16
ATOM     16  C   LIG A   1      -7.525  -2.760 127.094  0.00  0.00    +0.006 C 
BRANCH  16  17
ATOM     17  C   LIG A   1      -8.764  -3.064 126.254  0.00  0.00    +0.000 C 
BRANCH  17  18
ATOM     18  C   LIG A   1      -8.402  -3.666 124.893  0.00  0.00    +0.000 C 
BRANCH  18  19
ATOM     19  C   LIG A   1      -9.321  -3.170 123.770  0.00  0.00    -0.000 C 
BRANCH  19  20
ATOM     20  C   LIG A   1      -8.646  -2.117 122.887  0.00  0.00    -0.000 C 
BRANCH  20  21
ATOM     21  C   LIG A   1      -7.135  -2.054 123.117  0.00  0.00    +0.000 C 
BRANCH  21  22
ATOM     22  C   LIG A   1      -6.717  -0.668 123.616  0.00  0.00    +0.003 C 
BRANCH  22  23
ATOM     23  C   LIG A   1      -7.784   0.404 123.335  0.00  0.00    +0.034 C 
BRANCH  23  24
ATOM     24  C   LIG A   1      -7.790   1.571 124.359  0.00  0.00    +0.063 C 
ATOM     25  C   LIG A   1      -8.599   2.758 123.826  0.00  0.00    +0.041 C 
BRANCH  24  26
ATOM     26  C   LIG A   1      -8.334   1.091 125.727  0.00  0.00    +0.031 C 
ATOM     27  C   LIG A   1      -9.733   0.477 125.666  0.00  0.00    +0.007 C 
ENDBRANCH  24  26
BRANCH  24  28
ATOM     28  O   LIG A   1      -6.445   2.026 124.540  0.00  0.00    -0.389 OA
ATOM     29  H   LIG A   1      -5.865   1.485 123.977  0.00  0.00    +0.210 HD
ENDBRANCH  24  28
ENDBRANCH  23  24
ENDBRANCH  22  23
ENDBRANCH  21  22
ENDBRANCH  20  21
ENDBRANCH  19  20
ENDBRANCH  18  19
ENDBRANCH  17  18
ENDBRANCH  16  17
ENDBRANCH   1  16
TORSDOF 13
ENDMDL
MODEL 9
REMARK VINA RESULT:      -6.0      2.917      5.047
REMARK  Name = NuBBE_880
REMARK  16 active torsions:
REMARK  status: ('A' for Active; 'I' for Inactive)
REMARK    1  A    between atoms: C_3  and  O_4
REMARK    2  A    between atoms: O_4  and  C_5
REMARK    3  A    between atoms: C_6  and  C_7
REMARK    4  A    between atoms: C_7  and  C_8
REMARK    5  A    between atoms: C_8  and  C_9
REMARK    6  A    between atoms: C_9  and  C_10
REMARK    7  A    between atoms: C_10  and  C_11
REMARK    8  A    between atoms: C_11  and  C_12
REMARK    9  A    between atoms: C_12  and  C_13
REMARK   10  A    between atoms: C_13  and  C_14
REMARK   11  A    between atoms: C_14  and  C_15
REMARK   12  A    between atoms: C_15  and  C_16
REMARK   13  A    between atoms: C_16  and  C_17
REMARK   14  A    between atoms: C_16  and  O_19
REMARK   15  A    between atoms: C_16  and  C_20
REMARK   16  A    between atoms: C_17  and  C_18
REMARK                            x       y       z     vdW  Elec       q    Type
REMARK                         _______ _______ _______ _____ _____    ______ ____
ROOT
ATOM      1  C   LIG A   1      -6.529   1.007 129.058  0.00  0.00    +0.057 C 
ENDROOT
BRANCH   1   5
ATOM      2  O   LIG A   1      -5.454   3.266 124.833  0.00  0.00    -0.283 OA
ATOM      3  C   LIG A   1      -6.203   2.627 125.551  0.00  0.00    +0.231 A 
ATOM      4  C   LIG A   1      -5.868   2.234 126.976  0.00  0.00    +0.186 A 
ATOM      5  C   LIG A   1      -6.784   1.494 127.636  0.00  0.00    +0.062 A 
ATOM      6  N   LIG A   1      -7.988   1.093 127.088  0.00  0.00    -0.355 N 
ATOM      7  H   LIG A   1      -8.657   0.628 127.683  0.00  0.00    +0.166 HD
ATOM      8  C   LIG A   1      -8.380   1.471 125.796  0.00  0.00    +0.051 A 
ATOM      9  C   LIG A   1      -9.606   1.077 125.265  0.00  0.00    +0.026 A 
ATOM     10  C   LIG A   1      -9.956   1.435 123.958  0.00  0.00    +0.002 A 
ATOM     11  C   LIG A   1      -9.082   2.181 123.171  0.00  0.00    +0.001 A 
ATOM     12  C   LIG A   1      -7.851   2.575 123.693  0.00  0.00    +0.014 A 
ATOM     13  C   LIG A   1      -7.509   2.216 124.998  0.00  0.00    +0.049 A 
BRANCH   4  14
ATOM     14  O   LIG A   1      -4.693   2.626 127.610  0.00  0.00    -0.490 OA
ATOM     15  C   LIG A   1      -4.618   3.963 128.091  0.00  0.00    +0.277 C 
ENDBRANCH   4  14
ENDBRANCH   1   5
BRANCH   1  16
ATOM     16  C   LIG A   1      -6.478  -0.522 129.141  0.00  0.00    +0.006 C 
BRANCH  16  17
ATOM     17  C   LIG A   1      -7.709  -1.068 129.864  0.00  0.00    +0.000 C 
BRANCH  17  18
ATOM     18  C   LIG A   1      -7.604  -2.574 130.121  0.00  0.00    +0.000 C 
BRANCH  18  19
ATOM     19  C   LIG A   1      -7.534  -3.387 128.822  0.00  0.00    -0.000 C 
BRANCH  19  20
ATOM     20  C   LIG A   1      -8.922  -3.703 128.258  0.00  0.00    -0.000 C 
BRANCH  20  21
ATOM     21  C   LIG A   1      -8.982  -3.522 126.740  0.00  0.00    +0.000 C 
BRANCH  21  22
ATOM     22  C   LIG A   1      -8.121  -2.335 126.298  0.00  0.00    +0.003 C 
BRANCH  22  23
ATOM     23  C   LIG A   1      -8.051  -2.196 124.768  0.00  0.00    +0.034 C 
BRANCH  23  24
ATOM     24  C   LIG A   1      -6.640  -1.833 124.231  0.00  0.00    +0.063 C 
ATOM     25  C   LIG A   1      -5.724  -1.383 125.373  0.00  0.00    +0.041 C 
BRANCH  24  26
ATOM     26  C   LIG A   1      -6.028  -3.027 123.458  0.00  0.00    +0.031 C 
ATOM     27  C   LIG A   1      -4.521  -3.195 123.654  0.00  0.00    +0.007 C 
ENDBRANCH  24  26
BRANCH  24  28
ATOM     28  O   LIG A   1      -6.765  -0.726 123.331  0.00  0.00    -0.389 OA
ATOM     29  H   LIG A   1      -5.880  -0.517 122.986  0.00  0.00    +0.210 HD
ENDBRANCH  24  28
ENDBRANCH  23  24
ENDBRANCH  22  23
ENDBRANCH  21  22
ENDBRANCH  20  21
ENDBRANCH  19  20
ENDBRANCH  18  19
ENDBRANCH  17  18
ENDBRANCH  16  17
ENDBRANCH   1  16
TORSDOF 13
ENDMDL
