MODEL 1
REMARK VINA RESULT:      -5.1      0.000      0.000
REMARK  Name = NuBBE_1380
REMARK  8 active torsions:
REMARK  status: ('A' for Active; 'I' for Inactive)
REMARK    1  A    between atoms: C_1  and  C_2
REMARK    2  A    between atoms: C_2  and  C_3
REMARK    3  A    between atoms: C_4  and  C_5
REMARK    4  A    between atoms: C_5  and  C_6
REMARK    5  A    between atoms: C_6  and  C_7
REMARK    6  A    between atoms: C_7  and  O_8
REMARK    7  A    between atoms: C_7  and  C_9
REMARK    8  A    between atoms: C_7  and  C_10
REMARK                            x       y       z     vdW  Elec       q    Type
REMARK                         _______ _______ _______ _____ _____    ______ ____
ROOT
ATOM      1  C   LIG A   1     -12.376   6.852 131.223  0.00  0.00    +0.043 C 
ENDROOT
BRANCH   1   2
ATOM      2  C   LIG A   1     -11.031   6.098 131.315  0.00  0.00    +0.081 C 
ATOM      3  C   LIG A   1     -11.118   4.796 130.505  0.00  0.00    +0.046 C 
BRANCH   2   4
ATOM      4  O   LIG A   1     -10.787   5.742 132.678  0.00  0.00    -0.385 OA
ATOM      5  H   LIG A   1     -10.632   6.561 133.176  0.00  0.00    +0.211 HD
ENDBRANCH   2   4
BRANCH   2   6
ATOM      6  C   LIG A   1      -9.874   6.944 130.818  0.00  0.00    -0.001 C 
ATOM      7  C   LIG A   1      -8.574   6.708 131.033  0.00  0.00    +0.007 C 
ENDBRANCH   2   6
ENDBRANCH   1   2
BRANCH   1   8
ATOM      8  C   LIG A   1     -12.385   7.993 130.198  0.00  0.00    +0.030 C 
BRANCH   8  12
ATOM      9  C   LIG A   1     -12.576   7.003 126.407  0.00  0.00    +0.038 C 
ATOM     10  C   LIG A   1     -12.079   7.605 127.696  0.00  0.00    -0.080 C 
ATOM     11  C   LIG A   1     -10.748   8.296 127.586  0.00  0.00    +0.038 C 
ATOM     12  C   LIG A   1     -12.799   7.512 128.831  0.00  0.00    -0.028 C 
ENDBRANCH   8  12
ENDBRANCH   1   8
TORSDOF 5
ENDMDL
MODEL 2
REMARK VINA RESULT:      -5.1      2.362      4.665
REMARK  Name = NuBBE_1380
REMARK  8 active torsions:
REMARK  status: ('A' for Active; 'I' for Inactive)
REMARK    1  A    between atoms: C_1  and  C_2
REMARK    2  A    between atoms: C_2  and  C_3
REMARK    3  A    between atoms: C_4  and  C_5
REMARK    4  A    between atoms: C_5  and  C_6
REMARK    5  A    between atoms: C_6  and  C_7
REMARK    6  A    between atoms: C_7  and  O_8
REMARK    7  A    between atoms: C_7  and  C_9
REMARK    8  A    between atoms: C_7  and  C_10
REMARK                            x       y       z     vdW  Elec       q    Type
REMARK                         _______ _______ _______ _____ _____    ______ ____
ROOT
ATOM      1  C   LIG A   1     -12.768   8.355 130.349  0.00  0.00    +0.043 C 
ENDROOT
BRANCH   1   2
ATOM      2  C   LIG A   1     -12.885   8.994 128.946  0.00  0.00    +0.081 C 
ATOM      3  C   LIG A   1     -13.650   8.042 128.014  0.00  0.00    +0.046 C 
BRANCH   2   4
ATOM      4  O   LIG A   1     -11.576   9.170 128.403  0.00  0.00    -0.385 OA
ATOM      5  H   LIG A   1     -11.394   8.418 127.814  0.00  0.00    +0.211 HD
ENDBRANCH   2   4
BRANCH   2   6
ATOM      6  C   LIG A   1     -13.578  10.342 128.996  0.00  0.00    -0.001 C 
ATOM      7  C   LIG A   1     -13.578  11.192 130.030  0.00  0.00    +0.007 C 
ENDBRANCH   2   6
ENDBRANCH   1   2
BRANCH   1   8
ATOM      8  C   LIG A   1     -12.571   6.834 130.329  0.00  0.00    +0.030 C 
BRANCH   8  12
ATOM      9  C   LIG A   1      -9.551   6.029 132.700  0.00  0.00    +0.038 C 
ATOM     10  C   LIG A   1     -10.327   6.448 131.478  0.00  0.00    -0.080 C 
ATOM     11  C   LIG A   1      -9.475   6.937 130.339  0.00  0.00    +0.038 C 
ATOM     12  C   LIG A   1     -11.672   6.374 131.448  0.00  0.00    -0.028 C 
ENDBRANCH   8  12
ENDBRANCH   1   8
TORSDOF 5
ENDMDL
MODEL 3
REMARK VINA RESULT:      -5.0      2.227      4.568
REMARK  Name = NuBBE_1380
REMARK  8 active torsions:
REMARK  status: ('A' for Active; 'I' for Inactive)
REMARK    1  A    between atoms: C_1  and  C_2
REMARK    2  A    between atoms: C_2  and  C_3
REMARK    3  A    between atoms: C_4  and  C_5
REMARK    4  A    between atoms: C_5  and  C_6
REMARK    5  A    between atoms: C_6  and  C_7
REMARK    6  A    between atoms: C_7  and  O_8
REMARK    7  A    between atoms: C_7  and  C_9
REMARK    8  A    between atoms: C_7  and  C_10
REMARK                            x       y       z     vdW  Elec       q    Type
REMARK                         _______ _______ _______ _____ _____    ______ ____
ROOT
ATOM      1  C   LIG A   1     -12.765   8.588 130.441  0.00  0.00    +0.043 C 
ENDROOT
BRANCH   1   2
ATOM      2  C   LIG A   1     -12.679   8.781 128.910  0.00  0.00    +0.081 C 
ATOM      3  C   LIG A   1     -11.210   8.711 128.468  0.00  0.00    +0.046 C 
BRANCH   2   4
ATOM      4  O   LIG A   1     -13.168  10.081 128.575  0.00  0.00    -0.385 OA
ATOM      5  H   LIG A   1     -12.873  10.287 127.672  0.00  0.00    +0.211 HD
ENDBRANCH   2   4
BRANCH   2   6
ATOM      6  C   LIG A   1     -13.497   7.745 128.164  0.00  0.00    -0.001 C 
ATOM      7  C   LIG A   1     -13.068   6.980 127.153  0.00  0.00    +0.007 C 
ENDBRANCH   2   6
ENDBRANCH   1   2
BRANCH   1   8
ATOM      8  C   LIG A   1     -12.902   7.125 130.880  0.00  0.00    +0.030 C 
BRANCH   8  12
ATOM      9  C   LIG A   1      -9.604   5.820 132.555  0.00  0.00    +0.038 C 
ATOM     10  C   LIG A   1     -10.661   6.085 131.516  0.00  0.00    -0.080 C 
ATOM     11  C   LIG A   1     -10.321   5.580 130.141  0.00  0.00    +0.038 C 
ATOM     12  C   LIG A   1     -11.804   6.724 131.833  0.00  0.00    -0.028 C 
ENDBRANCH   8  12
ENDBRANCH   1   8
TORSDOF 5
ENDMDL
MODEL 4
REMARK VINA RESULT:      -5.0      2.322      4.775
REMARK  Name = NuBBE_1380
REMARK  8 active torsions:
REMARK  status: ('A' for Active; 'I' for Inactive)
REMARK    1  A    between atoms: C_1  and  C_2
REMARK    2  A    between atoms: C_2  and  C_3
REMARK    3  A    between atoms: C_4  and  C_5
REMARK    4  A    between atoms: C_5  and  C_6
REMARK    5  A    between atoms: C_6  and  C_7
REMARK    6  A    between atoms: C_7  and  O_8
REMARK    7  A    between atoms: C_7  and  C_9
REMARK    8  A    between atoms: C_7  and  C_10
REMARK                            x       y       z     vdW  Elec       q    Type
REMARK                         _______ _______ _______ _____ _____    ______ ____
ROOT
ATOM      1  C   LIG A   1     -12.300   8.110 130.075  0.00  0.00    +0.043 C 
ENDROOT
BRANCH   1   2
ATOM      2  C   LIG A   1     -12.756   8.723 128.732  0.00  0.00    +0.081 C 
ATOM      3  C   LIG A   1     -13.613   7.703 127.969  0.00  0.00    +0.046 C 
BRANCH   2   4
ATOM      4  O   LIG A   1     -11.605   9.003 127.932  0.00  0.00    -0.385 OA
ATOM      5  H   LIG A   1     -10.939   8.321 128.120  0.00  0.00    +0.211 HD
ENDBRANCH   2   4
BRANCH   2   6
ATOM      6  C   LIG A   1     -13.534  10.009 128.933  0.00  0.00    -0.001 C 
ATOM      7  C   LIG A   1     -13.428  10.841 129.977  0.00  0.00    +0.007 C 
ENDBRANCH   2   6
ENDBRANCH   1   2
BRANCH   1   8
ATOM      8  C   LIG A   1     -11.515   6.800 129.931  0.00  0.00    +0.030 C 
BRANCH   8  12
ATOM      9  C   LIG A   1      -7.816   6.809 131.234  0.00  0.00    +0.038 C 
ATOM     10  C   LIG A   1      -9.308   6.611 131.195  0.00  0.00    -0.080 C 
ATOM     11  C   LIG A   1      -9.879   5.946 132.418  0.00  0.00    +0.038 C 
ATOM     12  C   LIG A   1     -10.037   7.010 130.135  0.00  0.00    -0.028 C 
ENDBRANCH   8  12
ENDBRANCH   1   8
TORSDOF 5
ENDMDL
MODEL 5
REMARK VINA RESULT:      -4.9      2.158      3.526
REMARK  Name = NuBBE_1380
REMARK  8 active torsions:
REMARK  status: ('A' for Active; 'I' for Inactive)
REMARK    1  A    between atoms: C_1  and  C_2
REMARK    2  A    between atoms: C_2  and  C_3
REMARK    3  A    between atoms: C_4  and  C_5
REMARK    4  A    between atoms: C_5  and  C_6
REMARK    5  A    between atoms: C_6  and  C_7
REMARK    6  A    between atoms: C_7  and  O_8
REMARK    7  A    between atoms: C_7  and  C_9
REMARK    8  A    between atoms: C_7  and  C_10
REMARK                            x       y       z     vdW  Elec       q    Type
REMARK                         _______ _______ _______ _____ _____    ______ ____
ROOT
ATOM      1  C   LIG A   1     -11.127   7.809 127.867  0.00  0.00    +0.043 C 
ENDROOT
BRANCH   1   2
ATOM      2  C   LIG A   1     -10.435   6.792 128.802  0.00  0.00    +0.081 C 
ATOM      3  C   LIG A   1      -9.631   7.547 129.871  0.00  0.00    +0.046 C 
BRANCH   2   4
ATOM      4  O   LIG A   1      -9.514   6.009 128.042  0.00  0.00    -0.385 OA
ATOM      5  H   LIG A   1      -9.654   6.214 127.102  0.00  0.00    +0.211 HD
ENDBRANCH   2   4
BRANCH   2   6
ATOM      6  C   LIG A   1     -11.435   5.863 129.464  0.00  0.00    -0.001 C 
ATOM      7  C   LIG A   1     -11.236   5.159 130.585  0.00  0.00    +0.007 C 
ENDBRANCH   2   6
ENDBRANCH   1   2
BRANCH   1   8
ATOM      8  C   LIG A   1     -12.641   7.927 128.081  0.00  0.00    +0.030 C 
BRANCH   8  12
ATOM      9  C   LIG A   1     -13.459  11.111 130.222  0.00  0.00    +0.038 C 
ATOM     10  C   LIG A   1     -13.147   9.682 129.862  0.00  0.00    -0.080 C 
ATOM     11  C   LIG A   1     -12.989   8.764 131.043  0.00  0.00    +0.038 C 
ATOM     12  C   LIG A   1     -13.029   9.297 128.577  0.00  0.00    -0.028 C 
ENDBRANCH   8  12
ENDBRANCH   1   8
TORSDOF 5
ENDMDL
MODEL 6
REMARK VINA RESULT:      -4.8     10.822     12.349
REMARK  Name = NuBBE_1380
REMARK  8 active torsions:
REMARK  status: ('A' for Active; 'I' for Inactive)
REMARK    1  A    between atoms: C_1  and  C_2
REMARK    2  A    between atoms: C_2  and  C_3
REMARK    3  A    between atoms: C_4  and  C_5
REMARK    4  A    between atoms: C_5  and  C_6
REMARK    5  A    between atoms: C_6  and  C_7
REMARK    6  A    between atoms: C_7  and  O_8
REMARK    7  A    between atoms: C_7  and  C_9
REMARK    8  A    between atoms: C_7  and  C_10
REMARK                            x       y       z     vdW  Elec       q    Type
REMARK                         _______ _______ _______ _____ _____    ______ ____
ROOT
ATOM      1  C   LIG A   1      -5.612  -1.834 125.079  0.00  0.00    +0.043 C 
ENDROOT
BRANCH   1   2
ATOM      2  C   LIG A   1      -5.769  -2.748 123.843  0.00  0.00    +0.081 C 
ATOM      3  C   LIG A   1      -6.283  -1.919 122.657  0.00  0.00    +0.046 C 
BRANCH   2   4
ATOM      4  O   LIG A   1      -6.747  -3.751 124.125  0.00  0.00    -0.385 OA
ATOM      5  H   LIG A   1      -6.697  -4.422 123.424  0.00  0.00    +0.211 HD
ENDBRANCH   2   4
BRANCH   2   6
ATOM      6  C   LIG A   1      -4.465  -3.429 123.476  0.00  0.00    -0.001 C 
ATOM      7  C   LIG A   1      -4.230  -4.747 123.491  0.00  0.00    +0.007 C 
ENDBRANCH   2   6
ENDBRANCH   1   2
BRANCH   1   8
ATOM      8  C   LIG A   1      -6.941  -1.329 125.657  0.00  0.00    +0.030 C 
BRANCH   8  12
ATOM      9  C   LIG A   1      -8.671  -3.634 128.318  0.00  0.00    +0.038 C 
ATOM     10  C   LIG A   1      -8.439  -2.850 127.053  0.00  0.00    -0.080 C 
ATOM     11  C   LIG A   1      -9.526  -2.996 126.024  0.00  0.00    +0.038 C 
ATOM     12  C   LIG A   1      -7.336  -2.093 126.895  0.00  0.00    -0.028 C 
ENDBRANCH   8  12
ENDBRANCH   1   8
TORSDOF 5
ENDMDL
MODEL 7
REMARK VINA RESULT:      -4.7     10.187     11.916
REMARK  Name = NuBBE_1380
REMARK  8 active torsions:
REMARK  status: ('A' for Active; 'I' for Inactive)
REMARK    1  A    between atoms: C_1  and  C_2
REMARK    2  A    between atoms: C_2  and  C_3
REMARK    3  A    between atoms: C_4  and  C_5
REMARK    4  A    between atoms: C_5  and  C_6
REMARK    5  A    between atoms: C_6  and  C_7
REMARK    6  A    between atoms: C_7  and  O_8
REMARK    7  A    between atoms: C_7  and  C_9
REMARK    8  A    between atoms: C_7  and  C_10
REMARK                            x       y       z     vdW  Elec       q    Type
REMARK                         _______ _______ _______ _____ _____    ______ ____
ROOT
ATOM      1  C   LIG A   1      -8.863  -3.813 127.543  0.00  0.00    +0.043 C 
ENDROOT
BRANCH   1   2
ATOM      2  C   LIG A   1      -8.871  -3.115 126.164  0.00  0.00    +0.081 C 
ATOM      3  C   LIG A   1      -8.222  -1.728 126.290  0.00  0.00    +0.046 C 
BRANCH   2   4
ATOM      4  O   LIG A   1     -10.223  -2.922 125.746  0.00  0.00    -0.385 OA
ATOM      5  H   LIG A   1     -10.553  -3.769 125.403  0.00  0.00    +0.211 HD
ENDBRANCH   2   4
BRANCH   2   6
ATOM      6  C   LIG A   1      -8.147  -3.934 125.113  0.00  0.00    -0.001 C 
ATOM      7  C   LIG A   1      -7.162  -3.503 124.316  0.00  0.00    +0.007 C 
ENDBRANCH   2   6
ENDBRANCH   1   2
BRANCH   1   8
ATOM      8  C   LIG A   1      -8.336  -2.935 128.686  0.00  0.00    +0.030 C 
BRANCH   8  12
ATOM      9  C   LIG A   1      -5.202  -4.301 130.609  0.00  0.00    +0.038 C 
ATOM     10  C   LIG A   1      -6.038  -3.544 129.611  0.00  0.00    -0.080 C 
ATOM     11  C   LIG A   1      -5.252  -2.644 128.698  0.00  0.00    +0.038 C 
ATOM     12  C   LIG A   1      -7.377  -3.689 129.571  0.00  0.00    -0.028 C 
ENDBRANCH   8  12
ENDBRANCH   1   8
TORSDOF 5
ENDMDL
MODEL 8
REMARK VINA RESULT:      -4.6      1.606      2.651
REMARK  Name = NuBBE_1380
REMARK  8 active torsions:
REMARK  status: ('A' for Active; 'I' for Inactive)
REMARK    1  A    between atoms: C_1  and  C_2
REMARK    2  A    between atoms: C_2  and  C_3
REMARK    3  A    between atoms: C_4  and  C_5
REMARK    4  A    between atoms: C_5  and  C_6
REMARK    5  A    between atoms: C_6  and  C_7
REMARK    6  A    between atoms: C_7  and  O_8
REMARK    7  A    between atoms: C_7  and  C_9
REMARK    8  A    between atoms: C_7  and  C_10
REMARK                            x       y       z     vdW  Elec       q    Type
REMARK                         _______ _______ _______ _____ _____    ______ ____
ROOT
ATOM      1  C   LIG A   1      -9.146   7.215 130.395  0.00  0.00    +0.043 C 
ENDROOT
BRANCH   1   2
ATOM      2  C   LIG A   1      -9.030   6.160 131.518  0.00  0.00    +0.081 C 
ATOM      3  C   LIG A   1      -9.440   4.784 130.970  0.00  0.00    +0.046 C 
BRANCH   2   4
ATOM      4  O   LIG A   1      -9.940   6.493 132.568  0.00  0.00    -0.385 OA
ATOM      5  H   LIG A   1     -10.758   6.822 132.160  0.00  0.00    +0.211 HD
ENDBRANCH   2   4
BRANCH   2   6
ATOM      6  C   LIG A   1      -7.627   6.095 132.089  0.00  0.00    -0.001 C 
ATOM      7  C   LIG A   1      -6.517   6.569 131.511  0.00  0.00    +0.007 C 
ENDBRANCH   2   6
ENDBRANCH   1   2
BRANCH   1   8
ATOM      8  C   LIG A   1     -10.189   6.876 129.322  0.00  0.00    +0.030 C 
BRANCH   8  12
ATOM      9  C   LIG A   1     -13.015   9.596 129.387  0.00  0.00    +0.038 C 
ATOM     10  C   LIG A   1     -12.236   8.348 129.710  0.00  0.00    -0.080 C 
ATOM     11  C   LIG A   1     -12.830   7.512 130.810  0.00  0.00    +0.038 C 
ATOM     12  C   LIG A   1     -11.105   8.041 129.046  0.00  0.00    -0.028 C 
ENDBRANCH   8  12
ENDBRANCH   1   8
TORSDOF 5
ENDMDL
MODEL 9
REMARK VINA RESULT:      -4.6      1.731      2.765
REMARK  Name = NuBBE_1380
REMARK  8 active torsions:
REMARK  status: ('A' for Active; 'I' for Inactive)
REMARK    1  A    between atoms: C_1  and  C_2
REMARK    2  A    between atoms: C_2  and  C_3
REMARK    3  A    between atoms: C_4  and  C_5
REMARK    4  A    between atoms: C_5  and  C_6
REMARK    5  A    between atoms: C_6  and  C_7
REMARK    6  A    between atoms: C_7  and  O_8
REMARK    7  A    between atoms: C_7  and  C_9
REMARK    8  A    between atoms: C_7  and  C_10
REMARK                            x       y       z     vdW  Elec       q    Type
REMARK                         _______ _______ _______ _____ _____    ______ ____
ROOT
ATOM      1  C   LIG A   1     -11.315   6.518 131.529  0.00  0.00    +0.043 C 
ENDROOT
BRANCH   1   2
ATOM      2  C   LIG A   1     -10.240   5.956 130.572  0.00  0.00    +0.081 C 
ATOM      3  C   LIG A   1      -9.061   6.938 130.496  0.00  0.00    +0.046 C 
BRANCH   2   4
ATOM      4  O   LIG A   1     -10.794   5.846 129.259  0.00  0.00    -0.385 OA
ATOM      5  H   LIG A   1     -11.731   6.099 129.310  0.00  0.00    +0.211 HD
ENDBRANCH   2   4
BRANCH   2   6
ATOM      6  C   LIG A   1      -9.751   4.589 131.011  0.00  0.00    -0.001 C 
ATOM      7  C   LIG A   1      -9.389   3.584 130.205  0.00  0.00    +0.007 C 
ENDBRANCH   2   6
ENDBRANCH   1   2
BRANCH   1   8
ATOM      8  C   LIG A   1     -12.646   6.858 130.845  0.00  0.00    +0.030 C 
BRANCH   8  12
ATOM      9  C   LIG A   1     -13.283  10.622 129.946  0.00  0.00    +0.038 C 
ATOM     10  C   LIG A   1     -12.905   9.171 129.802  0.00  0.00    -0.080 C 
ATOM     11  C   LIG A   1     -12.523   8.764 128.406  0.00  0.00    +0.038 C 
ATOM     12  C   LIG A   1     -12.919   8.340 130.862  0.00  0.00    -0.028 C 
ENDBRANCH   8  12
ENDBRANCH   1   8
TORSDOF 5
ENDMDL
