MODEL 1
REMARK VINA RESULT:      -7.0      0.000      0.000
REMARK  Name = NuBBE_2412
REMARK  22 active torsions:
REMARK  status: ('A' for Active; 'I' for Inactive)
REMARK    1  A    between atoms: C_1  and  C_2
REMARK    2  A    between atoms: C_1  and  C_31
REMARK    3  A    between atoms: C_2  and  C_3
REMARK    4  A    between atoms: C_3  and  C_4
REMARK    5  A    between atoms: C_4  and  C_5
REMARK    6  A    between atoms: C_5  and  C_6
REMARK    7  A    between atoms: C_6  and  C_7
REMARK    8  A    between atoms: C_7  and  C_8
REMARK    9  A    between atoms: C_8  and  C_9
REMARK   10  A    between atoms: C_9  and  C_10
REMARK   11  A    between atoms: C_10  and  C_11
REMARK   12  A    between atoms: C_11  and  C_12
REMARK   13  A    between atoms: C_12  and  C_13
REMARK   14  A    between atoms: C_13  and  C_14
REMARK   15  A    between atoms: C_14  and  C_15
REMARK   16  A    between atoms: C_15  and  C_16
REMARK   17  A    between atoms: C_16  and  C_17
REMARK   18  A    between atoms: C_17  and  C_18
REMARK   19  A    between atoms: C_18  and  C_19
REMARK   20  A    between atoms: C_19  and  C_20
REMARK   21  A    between atoms: C_22  and  O_24
REMARK   22  A    between atoms: C_25  and  C_30
REMARK                            x       y       z     vdW  Elec       q    Type
REMARK                         _______ _______ _______ _____ _____    ______ ____
ROOT
ATOM      1  C   LIG A   1      -7.003   1.592 128.654  0.00  0.00    -0.000 C 
ENDROOT
BRANCH   1   2
ATOM      2  C   LIG A   1      -7.511   1.411 130.073  0.00  0.00    -0.000 C 
BRANCH   2   3
ATOM      3  C   LIG A   1      -8.429   0.374 130.806  0.00  0.00    -0.000 C 
BRANCH   3   4
ATOM      4  C   LIG A   1      -9.169   0.832 132.019  0.00  0.00    -0.000 C 
BRANCH   4   5
ATOM      5  C   LIG A   1      -9.703   2.207 131.966  0.00  0.00    -0.000 C 
BRANCH   5   6
ATOM      6  C   LIG A   1      -9.359   2.900 133.279  0.00  0.00    -0.000 C 
BRANCH   6   7
ATOM      7  C   LIG A   1      -8.617   4.264 133.242  0.00  0.00    -0.000 C 
BRANCH   7   8
ATOM      8  C   LIG A   1      -7.643   4.854 132.182  0.00  0.00    +0.000 C 
BRANCH   8   9
ATOM      9  C   LIG A   1      -8.058   5.387 130.749  0.00  0.00    +0.001 C 
BRANCH   9  10
ATOM     10  C   LIG A   1      -8.527   6.855 130.731  0.00  0.00    +0.017 C 
BRANCH  10  11
ATOM     11  C   LIG A   1     -10.200   7.280 130.194  0.00  0.00    +0.130 C 
ATOM     12  C   LIG A   1     -10.552   7.333 128.450  0.00  0.00    +0.168 C 
ATOM     13  C   LIG A   1     -12.050   6.992 128.322  0.00  0.00    +0.203 C 
ATOM     14  O   LIG A   1     -12.603   6.665 129.626  0.00  0.00    -0.459 OA
ATOM     15  C   LIG A   1     -11.704   6.768 130.666  0.00  0.00    +0.313 C 
ATOM     16  O   LIG A   1     -12.113   6.268 131.929  0.00  0.00    -0.250 OA
ATOM     17  C   LIG A   1     -12.785   8.181 127.843  0.00  0.00    +0.055 C 
BRANCH  12  18
ATOM     18  O   LIG A   1      -9.954   6.549 127.359  0.00  0.00    -0.387 OA
ATOM     19  H   LIG A   1     -10.554   6.424 126.588  0.00  0.00    +0.210 HD
ENDBRANCH  12  18
ENDBRANCH  10  11
ENDBRANCH   9  10
ENDBRANCH   8   9
ENDBRANCH   7   8
ENDBRANCH   6   7
ENDBRANCH   5   6
ENDBRANCH   4   5
ENDBRANCH   3   4
ENDBRANCH   2   3
ENDBRANCH   1   2
BRANCH   1  20
ATOM     20  C   LIG A   1      -6.833   0.397 127.757  0.00  0.00    -0.000 C 
BRANCH  20  21
ATOM     21  C   LIG A   1      -5.600  -0.299 127.356  0.00  0.00    -0.000 C 
BRANCH  21  22
ATOM     22  C   LIG A   1      -5.175  -1.043 128.535  0.00  0.00    -0.000 C 
BRANCH  22  23
ATOM     23  C   LIG A   1      -5.541  -2.471 128.406  0.00  0.00    -0.000 C 
BRANCH  23  24
ATOM     24  C   LIG A   1      -6.661  -3.084 129.269  0.00  0.00    -0.000 C 
BRANCH  24  25
ATOM     25  C   LIG A   1      -8.168  -2.914 128.984  0.00  0.00    +0.000 C 
BRANCH  25  26
ATOM     26  C   LIG A   1      -8.801  -3.944 128.095  0.00  0.00    +0.000 C 
BRANCH  26  27
ATOM     27  C   LIG A   1      -9.260  -3.477 126.708  0.00  0.00    +0.005 C 
BRANCH  27  28
ATOM     28  C   LIG A   1      -8.230  -3.232 125.620  0.00  0.00    +0.035 C 
BRANCH  28  29
ATOM     29  C   LIG A   1      -8.061  -1.832 125.085  0.00  0.00    -0.044 A 
ATOM     30  C   LIG A   1      -9.038  -0.837 125.250  0.00  0.00    +0.053 A 
ATOM     31  C   LIG A   1      -8.903   0.334 124.531  0.00  0.00    +0.167 A 
ATOM     32  C   LIG A   1      -7.846   0.548 123.679  0.00  0.00    +0.166 A 
ATOM     33  C   LIG A   1      -6.857  -0.393 123.506  0.00  0.00    +0.050 A 
ATOM     34  C   LIG A   1      -6.972  -1.592 124.215  0.00  0.00    +0.007 A 
ATOM     35  O   LIG A   1      -7.927   1.749 123.045  0.00  0.00    -0.453 OA
ATOM     36  C   LIG A   1      -9.096   2.307 123.680  0.00  0.00    +0.466 C 
ATOM     37  O   LIG A   1      -9.786   1.370 124.532  0.00  0.00    -0.453 OA
ENDBRANCH  28  29
ENDBRANCH  27  28
ENDBRANCH  26  27
ENDBRANCH  25  26
ENDBRANCH  24  25
ENDBRANCH  23  24
ENDBRANCH  22  23
ENDBRANCH  21  22
ENDBRANCH  20  21
ENDBRANCH   1  20
TORSDOF 21
ENDMDL
MODEL 2
REMARK VINA RESULT:      -7.0      1.710      3.101
REMARK  Name = NuBBE_2412
REMARK  22 active torsions:
REMARK  status: ('A' for Active; 'I' for Inactive)
REMARK    1  A    between atoms: C_1  and  C_2
REMARK    2  A    between atoms: C_1  and  C_31
REMARK    3  A    between atoms: C_2  and  C_3
REMARK    4  A    between atoms: C_3  and  C_4
REMARK    5  A    between atoms: C_4  and  C_5
REMARK    6  A    between atoms: C_5  and  C_6
REMARK    7  A    between atoms: C_6  and  C_7
REMARK    8  A    between atoms: C_7  and  C_8
REMARK    9  A    between atoms: C_8  and  C_9
REMARK   10  A    between atoms: C_9  and  C_10
REMARK   11  A    between atoms: C_10  and  C_11
REMARK   12  A    between atoms: C_11  and  C_12
REMARK   13  A    between atoms: C_12  and  C_13
REMARK   14  A    between atoms: C_13  and  C_14
REMARK   15  A    between atoms: C_14  and  C_15
REMARK   16  A    between atoms: C_15  and  C_16
REMARK   17  A    between atoms: C_16  and  C_17
REMARK   18  A    between atoms: C_17  and  C_18
REMARK   19  A    between atoms: C_18  and  C_19
REMARK   20  A    between atoms: C_19  and  C_20
REMARK   21  A    between atoms: C_22  and  O_24
REMARK   22  A    between atoms: C_25  and  C_30
REMARK                            x       y       z     vdW  Elec       q    Type
REMARK                         _______ _______ _______ _____ _____    ______ ____
ROOT
ATOM      1  C   LIG A   1      -5.641  -1.133 130.093  0.00  0.00    -0.000 C 
ENDROOT
BRANCH   1   2
ATOM      2  C   LIG A   1      -5.588  -0.791 128.614  0.00  0.00    -0.000 C 
BRANCH   2   3
ATOM      3  C   LIG A   1      -6.457   0.072 127.637  0.00  0.00    -0.000 C 
BRANCH   3   4
ATOM      4  C   LIG A   1      -7.935   0.088 127.847  0.00  0.00    -0.000 C 
BRANCH   4   5
ATOM      5  C   LIG A   1      -8.583   1.411 127.755  0.00  0.00    -0.000 C 
BRANCH   5   6
ATOM      6  C   LIG A   1      -8.155   2.233 128.964  0.00  0.00    -0.000 C 
BRANCH   6   7
ATOM      7  C   LIG A   1      -8.256   3.782 128.898  0.00  0.00    -0.000 C 
BRANCH   7   8
ATOM      8  C   LIG A   1      -7.564   4.876 129.760  0.00  0.00    +0.000 C 
BRANCH   8   9
ATOM      9  C   LIG A   1      -7.955   5.256 131.248  0.00  0.00    +0.001 C 
BRANCH   9  10
ATOM     10  C   LIG A   1      -8.827   6.521 131.369  0.00  0.00    +0.017 C 
BRANCH  10  11
ATOM     11  C   LIG A   1     -10.472   6.580 130.621  0.00  0.00    +0.130 C 
ATOM     12  C   LIG A   1     -10.823   7.850 129.425  0.00  0.00    +0.168 C 
ATOM     13  C   LIG A   1     -11.898   7.254 128.495  0.00  0.00    +0.203 C 
ATOM     14  O   LIG A   1     -12.166   5.873 128.860  0.00  0.00    -0.459 OA
ATOM     15  C   LIG A   1     -11.451   5.424 129.949  0.00  0.00    +0.313 C 
ATOM     16  O   LIG A   1     -11.504   4.036 130.233  0.00  0.00    -0.250 OA
ATOM     17  C   LIG A   1     -13.168   7.988 128.680  0.00  0.00    +0.055 C 
BRANCH  12  18
ATOM     18  O   LIG A   1      -9.912   8.507 128.475  0.00  0.00    -0.387 OA
ATOM     19  H   LIG A   1     -10.273   9.341 128.096  0.00  0.00    +0.210 HD
ENDBRANCH  12  18
ENDBRANCH  10  11
ENDBRANCH   9  10
ENDBRANCH   8   9
ENDBRANCH   7   8
ENDBRANCH   6   7
ENDBRANCH   5   6
ENDBRANCH   4   5
ENDBRANCH   3   4
ENDBRANCH   2   3
ENDBRANCH   1   2
BRANCH   1  20
ATOM     20  C   LIG A   1      -6.727  -2.030 130.619  0.00  0.00    -0.000 C 
BRANCH  20  21
ATOM     21  C   LIG A   1      -7.094  -3.393 130.203  0.00  0.00    -0.000 C 
BRANCH  21  22
ATOM     22  C   LIG A   1      -8.325  -3.245 129.438  0.00  0.00    -0.000 C 
BRANCH  22  23
ATOM     23  C   LIG A   1      -8.052  -3.376 127.989  0.00  0.00    -0.000 C 
BRANCH  23  24
ATOM     24  C   LIG A   1      -9.205  -3.467 126.970  0.00  0.00    -0.000 C 
BRANCH  24  25
ATOM     25  C   LIG A   1      -9.272  -2.653 125.660  0.00  0.00    +0.000 C 
BRANCH  25  26
ATOM     26  C   LIG A   1      -8.364  -3.095 124.551  0.00  0.00    +0.000 C 
BRANCH  26  27
ATOM     27  C   LIG A   1      -7.177  -2.181 124.219  0.00  0.00    +0.005 C 
BRANCH  27  28
ATOM     28  C   LIG A   1      -7.312  -1.148 123.114  0.00  0.00    +0.035 C 
BRANCH  28  29
ATOM     29  C   LIG A   1      -7.715   0.257 123.483  0.00  0.00    -0.044 A 
ATOM     30  C   LIG A   1      -6.795   1.213 123.943  0.00  0.00    +0.053 A 
ATOM     31  C   LIG A   1      -7.287   2.387 124.476  0.00  0.00    +0.167 A 
ATOM     32  C   LIG A   1      -8.634   2.643 124.556  0.00  0.00    +0.166 A 
ATOM     33  C   LIG A   1      -9.568   1.742 124.097  0.00  0.00    +0.050 A 
ATOM     34  C   LIG A   1      -9.099   0.540 123.560  0.00  0.00    +0.007 A 
ATOM     35  O   LIG A   1      -8.901   3.839 125.146  0.00  0.00    -0.453 OA
ATOM     36  C   LIG A   1      -7.564   4.351 125.326  0.00  0.00    +0.466 C 
ATOM     37  O   LIG A   1      -6.536   3.387 125.015  0.00  0.00    -0.453 OA
ENDBRANCH  28  29
ENDBRANCH  27  28
ENDBRANCH  26  27
ENDBRANCH  25  26
ENDBRANCH  24  25
ENDBRANCH  23  24
ENDBRANCH  22  23
ENDBRANCH  21  22
ENDBRANCH  20  21
ENDBRANCH   1  20
TORSDOF 21
ENDMDL
MODEL 3
REMARK VINA RESULT:      -7.0      2.948      8.270
REMARK  Name = NuBBE_2412
REMARK  22 active torsions:
REMARK  status: ('A' for Active; 'I' for Inactive)
REMARK    1  A    between atoms: C_1  and  C_2
REMARK    2  A    between atoms: C_1  and  C_31
REMARK    3  A    between atoms: C_2  and  C_3
REMARK    4  A    between atoms: C_3  and  C_4
REMARK    5  A    between atoms: C_4  and  C_5
REMARK    6  A    between atoms: C_5  and  C_6
REMARK    7  A    between atoms: C_6  and  C_7
REMARK    8  A    between atoms: C_7  and  C_8
REMARK    9  A    between atoms: C_8  and  C_9
REMARK   10  A    between atoms: C_9  and  C_10
REMARK   11  A    between atoms: C_10  and  C_11
REMARK   12  A    between atoms: C_11  and  C_12
REMARK   13  A    between atoms: C_12  and  C_13
REMARK   14  A    between atoms: C_13  and  C_14
REMARK   15  A    between atoms: C_14  and  C_15
REMARK   16  A    between atoms: C_15  and  C_16
REMARK   17  A    between atoms: C_16  and  C_17
REMARK   18  A    between atoms: C_17  and  C_18
REMARK   19  A    between atoms: C_18  and  C_19
REMARK   20  A    between atoms: C_19  and  C_20
REMARK   21  A    between atoms: C_22  and  O_24
REMARK   22  A    between atoms: C_25  and  C_30
REMARK                            x       y       z     vdW  Elec       q    Type
REMARK                         _______ _______ _______ _____ _____    ______ ____
ROOT
ATOM      1  C   LIG A   1     -10.070   2.986 130.717  0.00  0.00    -0.000 C 
ENDROOT
BRANCH   1   2
ATOM      2  C   LIG A   1      -8.920   2.820 129.740  0.00  0.00    -0.000 C 
BRANCH   2   3
ATOM      3  C   LIG A   1      -7.360   2.954 129.820  0.00  0.00    -0.000 C 
BRANCH   3   4
ATOM      4  C   LIG A   1      -6.534   1.915 129.135  0.00  0.00    -0.000 C 
BRANCH   4   5
ATOM      5  C   LIG A   1      -5.077   2.008 129.349  0.00  0.00    -0.000 C 
BRANCH   5   6
ATOM      6  C   LIG A   1      -4.729   3.468 129.612  0.00  0.00    -0.000 C 
BRANCH   6   7
ATOM      7  C   LIG A   1      -3.401   4.042 129.045  0.00  0.00    -0.000 C 
BRANCH   7   8
ATOM      8  C   LIG A   1      -2.607   3.667 127.761  0.00  0.00    +0.000 C 
BRANCH   8   9
ATOM      9  C   LIG A   1      -3.206   3.613 126.294  0.00  0.00    +0.001 C 
BRANCH   9  10
ATOM     10  C   LIG A   1      -4.693   4.006 126.202  0.00  0.00    +0.017 C 
BRANCH  10  11
ATOM     11  C   LIG A   1      -5.739   3.350 124.882  0.00  0.00    +0.130 C 
ATOM     12  C   LIG A   1      -7.392   2.825 125.280  0.00  0.00    +0.168 C 
ATOM     13  C   LIG A   1      -8.211   3.025 123.989  0.00  0.00    +0.203 C 
ATOM     14  O   LIG A   1      -7.385   3.642 122.964  0.00  0.00    -0.459 OA
ATOM     15  C   LIG A   1      -6.080   3.869 123.346  0.00  0.00    +0.313 C 
ATOM     16  O   LIG A   1      -5.277   4.652 122.477  0.00  0.00    -0.250 OA
ATOM     17  C   LIG A   1      -8.619   1.707 123.458  0.00  0.00    +0.055 C 
BRANCH  12  18
ATOM     18  O   LIG A   1      -8.304   3.336 126.315  0.00  0.00    -0.387 OA
ATOM     19  H   LIG A   1      -9.097   3.792 125.951  0.00  0.00    +0.210 HD
ENDBRANCH  12  18
ENDBRANCH  10  11
ENDBRANCH   9  10
ENDBRANCH   8   9
ENDBRANCH   7   8
ENDBRANCH   6   7
ENDBRANCH   5   6
ENDBRANCH   4   5
ENDBRANCH   3   4
ENDBRANCH   2   3
ENDBRANCH   1   2
BRANCH   1  20
ATOM     20  C   LIG A   1      -9.897   2.590 132.157  0.00  0.00    -0.000 C 
BRANCH  20  21
ATOM     21  C   LIG A   1      -8.713   2.712 133.022  0.00  0.00    -0.000 C 
BRANCH  21  22
ATOM     22  C   LIG A   1      -9.025   3.786 133.956  0.00  0.00    -0.000 C 
BRANCH  22  23
ATOM     23  C   LIG A   1      -7.793   4.273 134.615  0.00  0.00    -0.000 C 
BRANCH  23  24
ATOM     24  C   LIG A   1      -6.884   5.312 133.930  0.00  0.00    -0.000 C 
BRANCH  24  25
ATOM     25  C   LIG A   1      -6.331   5.170 132.495  0.00  0.00    +0.000 C 
BRANCH  25  26
ATOM     26  C   LIG A   1      -6.313   6.415 131.659  0.00  0.00    +0.000 C 
BRANCH  26  27
ATOM     27  C   LIG A   1      -7.642   6.844 131.024  0.00  0.00    +0.005 C 
BRANCH  27  28
ATOM     28  C   LIG A   1      -8.949   6.494 131.711  0.00  0.00    +0.035 C 
BRANCH  28  29
ATOM     29  C   LIG A   1     -10.215   6.475 130.891  0.00  0.00    -0.044 A 
ATOM     30  C   LIG A   1     -10.208   6.539 129.488  0.00  0.00    +0.053 A 
ATOM     31  C   LIG A   1     -11.409   6.754 128.841  0.00  0.00    +0.167 A 
ATOM     32  C   LIG A   1     -12.592   6.893 129.525  0.00  0.00    +0.166 A 
ATOM     33  C   LIG A   1     -12.644   6.815 130.899  0.00  0.00    +0.050 A 
ATOM     34  C   LIG A   1     -11.442   6.607 131.582  0.00  0.00    +0.007 A 
ATOM     35  O   LIG A   1     -13.644   7.132 128.698  0.00  0.00    -0.453 OA
ATOM     36  C   LIG A   1     -13.002   7.017 127.410  0.00  0.00    +0.466 C 
ATOM     37  O   LIG A   1     -11.567   6.898 127.496  0.00  0.00    -0.453 OA
ENDBRANCH  28  29
ENDBRANCH  27  28
ENDBRANCH  26  27
ENDBRANCH  25  26
ENDBRANCH  24  25
ENDBRANCH  23  24
ENDBRANCH  22  23
ENDBRANCH  21  22
ENDBRANCH  20  21
ENDBRANCH   1  20
TORSDOF 21
ENDMDL
MODEL 4
REMARK VINA RESULT:      -6.9      3.303      6.117
REMARK  Name = NuBBE_2412
REMARK  22 active torsions:
REMARK  status: ('A' for Active; 'I' for Inactive)
REMARK    1  A    between atoms: C_1  and  C_2
REMARK    2  A    between atoms: C_1  and  C_31
REMARK    3  A    between atoms: C_2  and  C_3
REMARK    4  A    between atoms: C_3  and  C_4
REMARK    5  A    between atoms: C_4  and  C_5
REMARK    6  A    between atoms: C_5  and  C_6
REMARK    7  A    between atoms: C_6  and  C_7
REMARK    8  A    between atoms: C_7  and  C_8
REMARK    9  A    between atoms: C_8  and  C_9
REMARK   10  A    between atoms: C_9  and  C_10
REMARK   11  A    between atoms: C_10  and  C_11
REMARK   12  A    between atoms: C_11  and  C_12
REMARK   13  A    between atoms: C_12  and  C_13
REMARK   14  A    between atoms: C_13  and  C_14
REMARK   15  A    between atoms: C_14  and  C_15
REMARK   16  A    between atoms: C_15  and  C_16
REMARK   17  A    between atoms: C_16  and  C_17
REMARK   18  A    between atoms: C_17  and  C_18
REMARK   19  A    between atoms: C_18  and  C_19
REMARK   20  A    between atoms: C_19  and  C_20
REMARK   21  A    between atoms: C_22  and  O_24
REMARK   22  A    between atoms: C_25  and  C_30
REMARK                            x       y       z     vdW  Elec       q    Type
REMARK                         _______ _______ _______ _____ _____    ______ ____
ROOT
ATOM      1  C   LIG A   1      -9.412  -3.272 124.220  0.00  0.00    -0.000 C 
ENDROOT
BRANCH   1   2
ATOM      2  C   LIG A   1      -9.235  -2.925 125.688  0.00  0.00    -0.000 C 
BRANCH   2   3
ATOM      3  C   LIG A   1      -9.463  -3.672 127.046  0.00  0.00    -0.000 C 
BRANCH   3   4
ATOM      4  C   LIG A   1      -8.290  -3.844 127.954  0.00  0.00    -0.000 C 
BRANCH   4   5
ATOM      5  C   LIG A   1      -8.125  -2.811 128.995  0.00  0.00    -0.000 C 
BRANCH   5   6
ATOM      6  C   LIG A   1      -7.216  -3.373 130.081  0.00  0.00    -0.000 C 
BRANCH   6   7
ATOM      7  C   LIG A   1      -5.687  -3.453 129.818  0.00  0.00    -0.000 C 
BRANCH   7   8
ATOM      8  C   LIG A   1      -4.710  -2.403 129.218  0.00  0.00    +0.000 C 
BRANCH   8   9
ATOM      9  C   LIG A   1      -4.276  -1.047 129.917  0.00  0.00    +0.001 C 
BRANCH   9  10
ATOM     10  C   LIG A   1      -5.452  -0.207 130.453  0.00  0.00    +0.017 C 
BRANCH  10  11
ATOM     11  C   LIG A   1      -5.828   1.410 129.741  0.00  0.00    +0.130 C 
ATOM     12  C   LIG A   1      -7.524   1.945 129.677  0.00  0.00    +0.168 C 
ATOM     13  C   LIG A   1      -7.475   3.484 129.738  0.00  0.00    +0.203 C 
ATOM     14  O   LIG A   1      -6.104   3.934 129.915  0.00  0.00    -0.459 OA
ATOM     15  C   LIG A   1      -5.172   2.918 129.949  0.00  0.00    +0.313 C 
ATOM     16  O   LIG A   1      -3.849   3.264 130.325  0.00  0.00    -0.250 OA
ATOM     17  C   LIG A   1      -7.932   4.041 128.448  0.00  0.00    +0.055 C 
BRANCH  12  18
ATOM     18  O   LIG A   1      -8.631   1.628 130.592  0.00  0.00    -0.387 OA
ATOM     19  H   LIG A   1      -8.398   0.958 131.276  0.00  0.00    +0.210 HD
ENDBRANCH  12  18
ENDBRANCH  10  11
ENDBRANCH   9  10
ENDBRANCH   8   9
ENDBRANCH   7   8
ENDBRANCH   6   7
ENDBRANCH   5   6
ENDBRANCH   4   5
ENDBRANCH   3   4
ENDBRANCH   2   3
ENDBRANCH   1   2
BRANCH   1  20
ATOM     20  C   LIG A   1      -8.368  -2.863 123.218  0.00  0.00    -0.000 C 
BRANCH  20  21
ATOM     21  C   LIG A   1      -7.733  -1.551 123.016  0.00  0.00    -0.000 C 
BRANCH  21  22
ATOM     22  C   LIG A   1      -6.328  -1.837 122.757  0.00  0.00    -0.000 C 
BRANCH  22  23
ATOM     23  C   LIG A   1      -5.820  -2.844 123.715  0.00  0.00    -0.000 C 
BRANCH  23  24
ATOM     24  C   LIG A   1      -5.567  -2.479 125.191  0.00  0.00    -0.000 C 
BRANCH  24  25
ATOM     25  C   LIG A   1      -5.408  -1.035 125.713  0.00  0.00    +0.000 C 
BRANCH  25  26
ATOM     26  C   LIG A   1      -6.532  -0.500 126.551  0.00  0.00    +0.000 C 
BRANCH  26  27
ATOM     27  C   LIG A   1      -6.934   0.963 126.322  0.00  0.00    +0.005 C 
BRANCH  27  28
ATOM     28  C   LIG A   1      -7.661   1.350 125.046  0.00  0.00    +0.035 C 
BRANCH  28  29
ATOM     29  C   LIG A   1      -7.071   2.434 124.178  0.00  0.00    -0.044 A 
ATOM     30  C   LIG A   1      -7.084   2.370 122.776  0.00  0.00    +0.053 A 
ATOM     31  C   LIG A   1      -6.319   3.282 122.075  0.00  0.00    +0.167 A 
ATOM     32  C   LIG A   1      -5.568   4.242 122.709  0.00  0.00    +0.166 A 
ATOM     33  C   LIG A   1      -5.545   4.351 124.081  0.00  0.00    +0.050 A 
ATOM     34  C   LIG A   1      -6.303   3.436 124.817  0.00  0.00    +0.007 A 
ATOM     35  O   LIG A   1      -4.865   5.011 121.835  0.00  0.00    -0.453 OA
ATOM     36  C   LIG A   1      -5.349   4.494 120.577  0.00  0.00    +0.466 C 
ATOM     37  O   LIG A   1      -6.176   3.321 120.722  0.00  0.00    -0.453 OA
ENDBRANCH  28  29
ENDBRANCH  27  28
ENDBRANCH  26  27
ENDBRANCH  25  26
ENDBRANCH  24  25
ENDBRANCH  23  24
ENDBRANCH  22  23
ENDBRANCH  21  22
ENDBRANCH  20  21
ENDBRANCH   1  20
TORSDOF 21
ENDMDL
MODEL 5
REMARK VINA RESULT:      -6.9      3.854      6.397
REMARK  Name = NuBBE_2412
REMARK  22 active torsions:
REMARK  status: ('A' for Active; 'I' for Inactive)
REMARK    1  A    between atoms: C_1  and  C_2
REMARK    2  A    between atoms: C_1  and  C_31
REMARK    3  A    between atoms: C_2  and  C_3
REMARK    4  A    between atoms: C_3  and  C_4
REMARK    5  A    between atoms: C_4  and  C_5
REMARK    6  A    between atoms: C_5  and  C_6
REMARK    7  A    between atoms: C_6  and  C_7
REMARK    8  A    between atoms: C_7  and  C_8
REMARK    9  A    between atoms: C_8  and  C_9
REMARK   10  A    between atoms: C_9  and  C_10
REMARK   11  A    between atoms: C_10  and  C_11
REMARK   12  A    between atoms: C_11  and  C_12
REMARK   13  A    between atoms: C_12  and  C_13
REMARK   14  A    between atoms: C_13  and  C_14
REMARK   15  A    between atoms: C_14  and  C_15
REMARK   16  A    between atoms: C_15  and  C_16
REMARK   17  A    between atoms: C_16  and  C_17
REMARK   18  A    between atoms: C_17  and  C_18
REMARK   19  A    between atoms: C_18  and  C_19
REMARK   20  A    between atoms: C_19  and  C_20
REMARK   21  A    between atoms: C_22  and  O_24
REMARK   22  A    between atoms: C_25  and  C_30
REMARK                            x       y       z     vdW  Elec       q    Type
REMARK                         _______ _______ _______ _____ _____    ______ ____
ROOT
ATOM      1  C   LIG A   1      -9.449  -3.030 124.667  0.00  0.00    -0.000 C 
ENDROOT
BRANCH   1   2
ATOM      2  C   LIG A   1      -8.990  -2.899 126.108  0.00  0.00    -0.000 C 
BRANCH   2   3
ATOM      3  C   LIG A   1      -9.096  -3.783 127.398  0.00  0.00    -0.000 C 
BRANCH   3   4
ATOM      4  C   LIG A   1      -8.004  -3.673 128.411  0.00  0.00    -0.000 C 
BRANCH   4   5
ATOM      5  C   LIG A   1      -8.274  -2.778 129.552  0.00  0.00    -0.000 C 
BRANCH   5   6
ATOM      6  C   LIG A   1      -7.243  -3.068 130.636  0.00  0.00    -0.000 C 
BRANCH   6   7
ATOM      7  C   LIG A   1      -5.880  -3.696 130.233  0.00  0.00    -0.000 C 
BRANCH   7   8
ATOM      8  C   LIG A   1      -4.553  -3.023 129.783  0.00  0.00    +0.000 C 
BRANCH   8   9
ATOM      9  C   LIG A   1      -3.742  -1.945 130.615  0.00  0.00    +0.001 C 
BRANCH   9  10
ATOM     10  C   LIG A   1      -4.251  -0.500 130.445  0.00  0.00    +0.017 C 
BRANCH  10  11
ATOM     11  C   LIG A   1      -5.103   0.340 131.800  0.00  0.00    +0.130 C 
ATOM     12  C   LIG A   1      -6.729   1.002 131.510  0.00  0.00    +0.168 C 
ATOM     13  C   LIG A   1      -7.439   0.968 132.878  0.00  0.00    +0.203 C 
ATOM     14  O   LIG A   1      -6.583   0.338 133.870  0.00  0.00    -0.459 OA
ATOM     15  C   LIG A   1      -5.346  -0.043 133.394  0.00  0.00    +0.313 C 
ATOM     16  O   LIG A   1      -4.543  -0.845 134.244  0.00  0.00    -0.250 OA
ATOM     17  C   LIG A   1      -7.670   2.351 133.345  0.00  0.00    +0.055 C 
BRANCH  12  18
ATOM     18  O   LIG A   1      -7.778   0.520 130.598  0.00  0.00    -0.387 OA
ATOM     19  H   LIG A   1      -8.126   1.215 129.995  0.00  0.00    +0.210 HD
ENDBRANCH  12  18
ENDBRANCH  10  11
ENDBRANCH   9  10
ENDBRANCH   8   9
ENDBRANCH   7   8
ENDBRANCH   6   7
ENDBRANCH   5   6
ENDBRANCH   4   5
ENDBRANCH   3   4
ENDBRANCH   2   3
ENDBRANCH   1   2
BRANCH   1  20
ATOM     20  C   LIG A   1      -8.487  -2.763 123.543  0.00  0.00    -0.000 C 
BRANCH  20  21
ATOM     21  C   LIG A   1      -7.495  -1.684 123.401  0.00  0.00    -0.000 C 
BRANCH  21  22
ATOM     22  C   LIG A   1      -6.331  -2.308 122.785  0.00  0.00    -0.000 C 
BRANCH  22  23
ATOM     23  C   LIG A   1      -5.250  -2.484 123.781  0.00  0.00    -0.000 C 
BRANCH  23  24
ATOM     24  C   LIG A   1      -5.530  -2.336 125.289  0.00  0.00    -0.000 C 
BRANCH  24  25
ATOM     25  C   LIG A   1      -5.304  -1.036 126.090  0.00  0.00    +0.000 C 
BRANCH  25  26
ATOM     26  C   LIG A   1      -6.133  -0.861 127.329  0.00  0.00    +0.000 C 
BRANCH  26  27
ATOM     27  C   LIG A   1      -6.895   0.462 127.473  0.00  0.00    +0.005 C 
BRANCH  27  28
ATOM     28  C   LIG A   1      -8.288   0.594 126.883  0.00  0.00    +0.035 C 
BRANCH  28  29
ATOM     29  C   LIG A   1      -8.428   1.055 125.454  0.00  0.00    -0.044 A 
ATOM     30  C   LIG A   1      -7.422   1.776 124.790  0.00  0.00    +0.053 A 
ATOM     31  C   LIG A   1      -7.730   2.355 123.575  0.00  0.00    +0.167 A 
ATOM     32  C   LIG A   1      -8.975   2.236 123.006  0.00  0.00    +0.166 A 
ATOM     33  C   LIG A   1      -9.981   1.521 123.614  0.00  0.00    +0.050 A 
ATOM     34  C   LIG A   1      -9.701   0.930 124.849  0.00  0.00    +0.007 A 
ATOM     35  O   LIG A   1      -9.073   2.912 121.830  0.00  0.00    -0.453 OA
ATOM     36  C   LIG A   1      -7.716   3.377 121.675  0.00  0.00    +0.466 C 
ATOM     37  O   LIG A   1      -6.892   3.130 122.833  0.00  0.00    -0.453 OA
ENDBRANCH  28  29
ENDBRANCH  27  28
ENDBRANCH  26  27
ENDBRANCH  25  26
ENDBRANCH  24  25
ENDBRANCH  23  24
ENDBRANCH  22  23
ENDBRANCH  21  22
ENDBRANCH  20  21
ENDBRANCH   1  20
TORSDOF 21
ENDMDL
MODEL 6
REMARK VINA RESULT:      -6.8      1.258      2.014
REMARK  Name = NuBBE_2412
REMARK  22 active torsions:
REMARK  status: ('A' for Active; 'I' for Inactive)
REMARK    1  A    between atoms: C_1  and  C_2
REMARK    2  A    between atoms: C_1  and  C_31
REMARK    3  A    between atoms: C_2  and  C_3
REMARK    4  A    between atoms: C_3  and  C_4
REMARK    5  A    between atoms: C_4  and  C_5
REMARK    6  A    between atoms: C_5  and  C_6
REMARK    7  A    between atoms: C_6  and  C_7
REMARK    8  A    between atoms: C_7  and  C_8
REMARK    9  A    between atoms: C_8  and  C_9
REMARK   10  A    between atoms: C_9  and  C_10
REMARK   11  A    between atoms: C_10  and  C_11
REMARK   12  A    between atoms: C_11  and  C_12
REMARK   13  A    between atoms: C_12  and  C_13
REMARK   14  A    between atoms: C_13  and  C_14
REMARK   15  A    between atoms: C_14  and  C_15
REMARK   16  A    between atoms: C_15  and  C_16
REMARK   17  A    between atoms: C_16  and  C_17
REMARK   18  A    between atoms: C_17  and  C_18
REMARK   19  A    between atoms: C_18  and  C_19
REMARK   20  A    between atoms: C_19  and  C_20
REMARK   21  A    between atoms: C_22  and  O_24
REMARK   22  A    between atoms: C_25  and  C_30
REMARK                            x       y       z     vdW  Elec       q    Type
REMARK                         _______ _______ _______ _____ _____    ______ ____
ROOT
ATOM      1  C   LIG A   1      -7.153   2.038 129.102  0.00  0.00    -0.000 C 
ENDROOT
BRANCH   1   2
ATOM      2  C   LIG A   1      -6.586   1.729 130.477  0.00  0.00    -0.000 C 
BRANCH   2   3
ATOM      3  C   LIG A   1      -7.075   0.925 131.730  0.00  0.00    -0.000 C 
BRANCH   3   4
ATOM      4  C   LIG A   1      -8.197   1.496 132.532  0.00  0.00    -0.000 C 
BRANCH   4   5
ATOM      5  C   LIG A   1      -9.544   1.353 131.945  0.00  0.00    -0.000 C 
BRANCH   5   6
ATOM      6  C   LIG A   1      -9.995   2.723 131.456  0.00  0.00    -0.000 C 
BRANCH   6   7
ATOM      7  C   LIG A   1      -9.416   3.996 132.134  0.00  0.00    -0.000 C 
BRANCH   7   8
ATOM      8  C   LIG A   1      -8.191   4.874 131.751  0.00  0.00    +0.000 C 
BRANCH   8   9
ATOM      9  C   LIG A   1      -8.068   5.757 130.440  0.00  0.00    +0.001 C 
BRANCH   9  10
ATOM     10  C   LIG A   1      -8.721   7.148 130.550  0.00  0.00    +0.017 C 
BRANCH  10  11
ATOM     11  C   LIG A   1     -10.429   7.408 130.019  0.00  0.00    +0.130 C 
ATOM     12  C   LIG A   1     -10.798   7.378 128.278  0.00  0.00    +0.168 C 
ATOM     13  C   LIG A   1     -12.260   6.902 128.174  0.00  0.00    +0.203 C 
ATOM     14  O   LIG A   1     -12.772   6.567 129.493  0.00  0.00    -0.459 OA
ATOM     15  C   LIG A   1     -11.878   6.779 130.521  0.00  0.00    +0.313 C 
ATOM     16  O   LIG A   1     -12.231   6.282 131.801  0.00  0.00    -0.250 OA
ATOM     17  C   LIG A   1     -13.101   8.008 127.670  0.00  0.00    +0.055 C 
BRANCH  12  18
ATOM     18  O   LIG A   1     -10.141   6.619 127.204  0.00  0.00    -0.387 OA
ATOM     19  H   LIG A   1      -9.252   6.966 126.962  0.00  0.00    +0.210 HD
ENDBRANCH  12  18
ENDBRANCH  10  11
ENDBRANCH   9  10
ENDBRANCH   8   9
ENDBRANCH   7   8
ENDBRANCH   6   7
ENDBRANCH   5   6
ENDBRANCH   4   5
ENDBRANCH   3   4
ENDBRANCH   2   3
ENDBRANCH   1   2
BRANCH   1  20
ATOM     20  C   LIG A   1      -8.099   1.073 128.444  0.00  0.00    -0.000 C 
BRANCH  20  21
ATOM     21  C   LIG A   1      -7.804  -0.158 127.695  0.00  0.00    -0.000 C 
BRANCH  21  22
ATOM     22  C   LIG A   1      -7.389  -1.131 128.698  0.00  0.00    -0.000 C 
BRANCH  22  23
ATOM     23  C   LIG A   1      -7.386  -2.495 128.125  0.00  0.00    -0.000 C 
BRANCH  23  24
ATOM     24  C   LIG A   1      -8.689  -3.150 127.627  0.00  0.00    -0.000 C 
BRANCH  24  25
ATOM     25  C   LIG A   1      -9.122  -3.202 126.146  0.00  0.00    +0.000 C 
BRANCH  25  26
ATOM     26  C   LIG A   1      -8.051  -2.948 125.126  0.00  0.00    +0.000 C 
BRANCH  26  27
ATOM     27  C   LIG A   1      -8.502  -2.812 123.666  0.00  0.00    +0.005 C 
BRANCH  27  28
ATOM     28  C   LIG A   1      -7.959  -1.677 122.816  0.00  0.00    +0.035 C 
BRANCH  28  29
ATOM     29  C   LIG A   1      -8.193  -0.258 123.269  0.00  0.00    -0.044 A 
ATOM     30  C   LIG A   1      -7.247   0.465 124.013  0.00  0.00    +0.053 A 
ATOM     31  C   LIG A   1      -7.640   1.661 124.581  0.00  0.00    +0.167 A 
ATOM     32  C   LIG A   1      -8.912   2.156 124.428  0.00  0.00    +0.166 A 
ATOM     33  C   LIG A   1      -9.863   1.489 123.690  0.00  0.00    +0.050 A 
ATOM     34  C   LIG A   1      -9.495   0.271 123.110  0.00  0.00    +0.007 A 
ATOM     35  O   LIG A   1      -9.096   3.326 125.098  0.00  0.00    -0.453 OA
ATOM     36  C   LIG A   1      -7.762   3.561 125.596  0.00  0.00    +0.466 C 
ATOM     37  O   LIG A   1      -6.866   2.452 125.374  0.00  0.00    -0.453 OA
ENDBRANCH  28  29
ENDBRANCH  27  28
ENDBRANCH  26  27
ENDBRANCH  25  26
ENDBRANCH  24  25
ENDBRANCH  23  24
ENDBRANCH  22  23
ENDBRANCH  21  22
ENDBRANCH  20  21
ENDBRANCH   1  20
TORSDOF 21
ENDMDL
MODEL 7
REMARK VINA RESULT:      -6.8      2.248      4.979
REMARK  Name = NuBBE_2412
REMARK  22 active torsions:
REMARK  status: ('A' for Active; 'I' for Inactive)
REMARK    1  A    between atoms: C_1  and  C_2
REMARK    2  A    between atoms: C_1  and  C_31
REMARK    3  A    between atoms: C_2  and  C_3
REMARK    4  A    between atoms: C_3  and  C_4
REMARK    5  A    between atoms: C_4  and  C_5
REMARK    6  A    between atoms: C_5  and  C_6
REMARK    7  A    between atoms: C_6  and  C_7
REMARK    8  A    between atoms: C_7  and  C_8
REMARK    9  A    between atoms: C_8  and  C_9
REMARK   10  A    between atoms: C_9  and  C_10
REMARK   11  A    between atoms: C_10  and  C_11
REMARK   12  A    between atoms: C_11  and  C_12
REMARK   13  A    between atoms: C_12  and  C_13
REMARK   14  A    between atoms: C_13  and  C_14
REMARK   15  A    between atoms: C_14  and  C_15
REMARK   16  A    between atoms: C_15  and  C_16
REMARK   17  A    between atoms: C_16  and  C_17
REMARK   18  A    between atoms: C_17  and  C_18
REMARK   19  A    between atoms: C_18  and  C_19
REMARK   20  A    between atoms: C_19  and  C_20
REMARK   21  A    between atoms: C_22  and  O_24
REMARK   22  A    between atoms: C_25  and  C_30
REMARK                            x       y       z     vdW  Elec       q    Type
REMARK                         _______ _______ _______ _____ _____    ______ ____
ROOT
ATOM      1  C   LIG A   1      -4.958  -3.112 124.227  0.00  0.00    -0.000 C 
ENDROOT
BRANCH   1   2
ATOM      2  C   LIG A   1      -5.359  -2.514 125.564  0.00  0.00    -0.000 C 
BRANCH   2   3
ATOM      3  C   LIG A   1      -5.289  -1.090 126.214  0.00  0.00    -0.000 C 
BRANCH   3   4
ATOM      4  C   LIG A   1      -5.648  -0.964 127.658  0.00  0.00    -0.000 C 
BRANCH   4   5
ATOM      5  C   LIG A   1      -6.013  -2.220 128.342  0.00  0.00    -0.000 C 
BRANCH   5   6
ATOM      6  C   LIG A   1      -5.807  -2.022 129.838  0.00  0.00    -0.000 C 
BRANCH   6   7
ATOM      7  C   LIG A   1      -6.984  -1.485 130.699  0.00  0.00    -0.000 C 
BRANCH   7   8
ATOM      8  C   LIG A   1      -8.081  -0.434 130.365  0.00  0.00    +0.000 C 
BRANCH   8   9
ATOM      9  C   LIG A   1      -7.812   1.064 129.921  0.00  0.00    +0.001 C 
BRANCH   9  10
ATOM     10  C   LIG A   1      -8.905   2.058 130.358  0.00  0.00    +0.017 C 
BRANCH  10  11
ATOM     11  C   LIG A   1      -8.765   3.815 129.958  0.00  0.00    +0.130 C 
ATOM     12  C   LIG A   1      -9.815   4.974 130.807  0.00  0.00    +0.168 C 
ATOM     13  C   LIG A   1      -9.029   6.300 130.834  0.00  0.00    +0.203 C 
ATOM     14  O   LIG A   1      -7.709   6.111 130.257  0.00  0.00    -0.459 OA
ATOM     15  C   LIG A   1      -7.470   4.836 129.788  0.00  0.00    +0.313 C 
ATOM     16  O   LIG A   1      -6.141   4.525 129.404  0.00  0.00    -0.250 OA
ATOM     17  C   LIG A   1      -9.717   7.296 129.986  0.00  0.00    +0.055 C 
BRANCH  12  18
ATOM     18  O   LIG A   1     -10.364   4.903 132.169  0.00  0.00    -0.387 OA
ATOM     19  H   LIG A   1     -11.340   4.776 132.195  0.00  0.00    +0.210 HD
ENDBRANCH  12  18
ENDBRANCH  10  11
ENDBRANCH   9  10
ENDBRANCH   8   9
ENDBRANCH   7   8
ENDBRANCH   6   7
ENDBRANCH   5   6
ENDBRANCH   4   5
ENDBRANCH   3   4
ENDBRANCH   2   3
ENDBRANCH   1   2
BRANCH   1  20
ATOM     20  C   LIG A   1      -5.677  -2.701 122.972  0.00  0.00    -0.000 C 
BRANCH  20  21
ATOM     21  C   LIG A   1      -6.651  -1.617 122.768  0.00  0.00    -0.000 C 
BRANCH  21  22
ATOM     22  C   LIG A   1      -7.773  -2.231 122.071  0.00  0.00    -0.000 C 
BRANCH  22  23
ATOM     23  C   LIG A   1      -9.013  -2.097 122.867  0.00  0.00    -0.000 C 
BRANCH  23  24
ATOM     24  C   LIG A   1      -9.449  -3.202 123.849  0.00  0.00    -0.000 C 
BRANCH  24  25
ATOM     25  C   LIG A   1      -8.813  -3.431 125.237  0.00  0.00    +0.000 C 
BRANCH  25  26
ATOM     26  C   LIG A   1      -8.935  -2.306 126.222  0.00  0.00    +0.000 C 
BRANCH  26  27
ATOM     27  C   LIG A   1      -9.211  -0.910 125.650  0.00  0.00    +0.005 C 
BRANCH  27  28
ATOM     28  C   LIG A   1      -8.895   0.319 126.485  0.00  0.00    +0.035 C 
BRANCH  28  29
ATOM     29  C   LIG A   1      -7.992   1.376 125.901  0.00  0.00    -0.044 A 
ATOM     30  C   LIG A   1      -7.786   2.620 126.520  0.00  0.00    +0.053 A 
ATOM     31  C   LIG A   1      -7.137   3.605 125.802  0.00  0.00    +0.167 A 
ATOM     32  C   LIG A   1      -6.687   3.396 124.521  0.00  0.00    +0.166 A 
ATOM     33  C   LIG A   1      -6.850   2.185 123.887  0.00  0.00    +0.050 A 
ATOM     34  C   LIG A   1      -7.511   1.172 124.587  0.00  0.00    +0.007 A 
ATOM     35  O   LIG A   1      -6.110   4.506 123.987  0.00  0.00    -0.453 OA
ATOM     36  C   LIG A   1      -6.153   5.399 125.119  0.00  0.00    +0.466 C 
ATOM     37  O   LIG A   1      -6.909   4.877 126.231  0.00  0.00    -0.453 OA
ENDBRANCH  28  29
ENDBRANCH  27  28
ENDBRANCH  26  27
ENDBRANCH  25  26
ENDBRANCH  24  25
ENDBRANCH  23  24
ENDBRANCH  22  23
ENDBRANCH  21  22
ENDBRANCH  20  21
ENDBRANCH   1  20
TORSDOF 21
ENDMDL
MODEL 8
REMARK VINA RESULT:      -6.7      3.971      7.913
REMARK  Name = NuBBE_2412
REMARK  22 active torsions:
REMARK  status: ('A' for Active; 'I' for Inactive)
REMARK    1  A    between atoms: C_1  and  C_2
REMARK    2  A    between atoms: C_1  and  C_31
REMARK    3  A    between atoms: C_2  and  C_3
REMARK    4  A    between atoms: C_3  and  C_4
REMARK    5  A    between atoms: C_4  and  C_5
REMARK    6  A    between atoms: C_5  and  C_6
REMARK    7  A    between atoms: C_6  and  C_7
REMARK    8  A    between atoms: C_7  and  C_8
REMARK    9  A    between atoms: C_8  and  C_9
REMARK   10  A    between atoms: C_9  and  C_10
REMARK   11  A    between atoms: C_10  and  C_11
REMARK   12  A    between atoms: C_11  and  C_12
REMARK   13  A    between atoms: C_12  and  C_13
REMARK   14  A    between atoms: C_13  and  C_14
REMARK   15  A    between atoms: C_14  and  C_15
REMARK   16  A    between atoms: C_15  and  C_16
REMARK   17  A    between atoms: C_16  and  C_17
REMARK   18  A    between atoms: C_17  and  C_18
REMARK   19  A    between atoms: C_18  and  C_19
REMARK   20  A    between atoms: C_19  and  C_20
REMARK   21  A    between atoms: C_22  and  O_24
REMARK   22  A    between atoms: C_25  and  C_30
REMARK                            x       y       z     vdW  Elec       q    Type
REMARK                         _______ _______ _______ _____ _____    ______ ____
ROOT
ATOM      1  C   LIG A   1      -8.989  -3.680 127.400  0.00  0.00    -0.000 C 
ENDROOT
BRANCH   1   2
ATOM      2  C   LIG A   1      -9.157  -3.182 125.976  0.00  0.00    -0.000 C 
BRANCH   2   3
ATOM      3  C   LIG A   1      -8.472  -3.485 124.600  0.00  0.00    -0.000 C 
BRANCH   3   4
ATOM      4  C   LIG A   1      -8.567  -2.449 123.528  0.00  0.00    -0.000 C 
BRANCH   4   5
ATOM      5  C   LIG A   1      -7.501  -1.429 123.525  0.00  0.00    -0.000 C 
BRANCH   5   6
ATOM      6  C   LIG A   1      -6.188  -2.113 123.886  0.00  0.00    -0.000 C 
BRANCH   6   7
ATOM      7  C   LIG A   1      -5.487  -1.744 125.224  0.00  0.00    -0.000 C 
BRANCH   7   8
ATOM      8  C   LIG A   1      -5.881  -0.712 126.317  0.00  0.00    +0.000 C 
BRANCH   8   9
ATOM      9  C   LIG A   1      -5.951   0.859 126.116  0.00  0.00    +0.001 C 
BRANCH   9  10
ATOM     10  C   LIG A   1      -4.595   1.576 126.259  0.00  0.00    +0.017 C 
BRANCH  10  11
ATOM     11  C   LIG A   1      -4.454   3.093 127.231  0.00  0.00    +0.130 C 
ATOM     12  C   LIG A   1      -2.832   3.699 127.645  0.00  0.00    +0.168 C 
ATOM     13  C   LIG A   1      -2.984   5.227 127.780  0.00  0.00    +0.203 C 
ATOM     14  O   LIG A   1      -4.339   5.627 127.439  0.00  0.00    -0.459 OA
ATOM     15  C   LIG A   1      -5.177   4.580 127.118  0.00  0.00    +0.313 C 
ATOM     16  O   LIG A   1      -6.446   4.909 126.577  0.00  0.00    -0.250 OA
ATOM     17  C   LIG A   1      -2.776   5.617 129.191  0.00  0.00    +0.055 C 
BRANCH  12  18
ATOM     18  O   LIG A   1      -1.575   3.571 126.892  0.00  0.00    -0.387 OA
ATOM     19  H   LIG A   1      -0.771   3.720 127.440  0.00  0.00    +0.210 HD
ENDBRANCH  12  18
ENDBRANCH  10  11
ENDBRANCH   9  10
ENDBRANCH   8   9
ENDBRANCH   7   8
ENDBRANCH   6   7
ENDBRANCH   5   6
ENDBRANCH   4   5
ENDBRANCH   3   4
ENDBRANCH   2   3
ENDBRANCH   1   2
BRANCH   1  20
ATOM     20  C   LIG A   1      -7.936  -3.078 128.289  0.00  0.00    -0.000 C 
BRANCH  20  21
ATOM     21  C   LIG A   1      -7.718  -3.262 129.733  0.00  0.00    -0.000 C 
BRANCH  21  22
ATOM     22  C   LIG A   1      -7.508  -1.922 130.266  0.00  0.00    -0.000 C 
BRANCH  22  23
ATOM     23  C   LIG A   1      -8.007  -0.903 129.316  0.00  0.00    -0.000 C 
BRANCH  23  24
ATOM     24  C   LIG A   1      -7.908   0.600 129.641  0.00  0.00    -0.000 C 
BRANCH  24  25
ATOM     25  C   LIG A   1      -8.214   1.211 131.025  0.00  0.00    +0.000 C 
BRANCH  25  26
ATOM     26  C   LIG A   1      -7.066   1.293 131.988  0.00  0.00    +0.000 C 
BRANCH  26  27
ATOM     27  C   LIG A   1      -6.012   2.375 131.720  0.00  0.00    +0.005 C 
BRANCH  27  28
ATOM     28  C   LIG A   1      -4.830   2.064 130.819  0.00  0.00    +0.035 C 
BRANCH  28  29
ATOM     29  C   LIG A   1      -4.270   0.664 130.818  0.00  0.00    -0.044 A 
ATOM     30  C   LIG A   1      -4.363  -0.188 129.706  0.00  0.00    +0.053 A 
ATOM     31  C   LIG A   1      -4.036  -1.519 129.876  0.00  0.00    +0.167 A 
ATOM     32  C   LIG A   1      -3.618  -2.018 131.086  0.00  0.00    +0.166 A 
ATOM     33  C   LIG A   1      -3.493  -1.212 132.194  0.00  0.00    +0.050 A 
ATOM     34  C   LIG A   1      -3.825   0.138 132.054  0.00  0.00    +0.007 A 
ATOM     35  O   LIG A   1      -3.384  -3.357 131.040  0.00  0.00    -0.453 OA
ATOM     36  C   LIG A   1      -3.597  -3.618 129.637  0.00  0.00    +0.466 C 
ATOM     37  O   LIG A   1      -4.126  -2.484 128.920  0.00  0.00    -0.453 OA
ENDBRANCH  28  29
ENDBRANCH  27  28
ENDBRANCH  26  27
ENDBRANCH  25  26
ENDBRANCH  24  25
ENDBRANCH  23  24
ENDBRANCH  22  23
ENDBRANCH  21  22
ENDBRANCH  20  21
ENDBRANCH   1  20
TORSDOF 21
ENDMDL
MODEL 9
REMARK VINA RESULT:      -6.7      2.338      7.145
REMARK  Name = NuBBE_2412
REMARK  22 active torsions:
REMARK  status: ('A' for Active; 'I' for Inactive)
REMARK    1  A    between atoms: C_1  and  C_2
REMARK    2  A    between atoms: C_1  and  C_31
REMARK    3  A    between atoms: C_2  and  C_3
REMARK    4  A    between atoms: C_3  and  C_4
REMARK    5  A    between atoms: C_4  and  C_5
REMARK    6  A    between atoms: C_5  and  C_6
REMARK    7  A    between atoms: C_6  and  C_7
REMARK    8  A    between atoms: C_7  and  C_8
REMARK    9  A    between atoms: C_8  and  C_9
REMARK   10  A    between atoms: C_9  and  C_10
REMARK   11  A    between atoms: C_10  and  C_11
REMARK   12  A    between atoms: C_11  and  C_12
REMARK   13  A    between atoms: C_12  and  C_13
REMARK   14  A    between atoms: C_13  and  C_14
REMARK   15  A    between atoms: C_14  and  C_15
REMARK   16  A    between atoms: C_15  and  C_16
REMARK   17  A    between atoms: C_16  and  C_17
REMARK   18  A    between atoms: C_17  and  C_18
REMARK   19  A    between atoms: C_18  and  C_19
REMARK   20  A    between atoms: C_19  and  C_20
REMARK   21  A    between atoms: C_22  and  O_24
REMARK   22  A    between atoms: C_25  and  C_30
REMARK                            x       y       z     vdW  Elec       q    Type
REMARK                         _______ _______ _______ _____ _____    ______ ____
ROOT
ATOM      1  C   LIG A   1      -8.642  -3.670 125.110  0.00  0.00    -0.000 C 
ENDROOT
BRANCH   1   2
ATOM      2  C   LIG A   1      -8.538  -2.736 123.917  0.00  0.00    -0.000 C 
BRANCH   2   3
ATOM      3  C   LIG A   1      -7.376  -1.963 123.204  0.00  0.00    -0.000 C 
BRANCH   3   4
ATOM      4  C   LIG A   1      -6.779  -0.791 123.911  0.00  0.00    -0.000 C 
BRANCH   4   5
ATOM      5  C   LIG A   1      -7.159   0.536 123.390  0.00  0.00    -0.000 C 
BRANCH   5   6
ATOM      6  C   LIG A   1      -7.371   1.468 124.577  0.00  0.00    -0.000 C 
BRANCH   6   7
ATOM      7  C   LIG A   1      -8.661   1.321 125.432  0.00  0.00    -0.000 C 
BRANCH   7   8
ATOM      8  C   LIG A   1      -8.875   0.682 126.833  0.00  0.00    +0.000 C 
BRANCH   8   9
ATOM      9  C   LIG A   1      -8.173   1.152 128.174  0.00  0.00    +0.001 C 
BRANCH   9  10
ATOM     10  C   LIG A   1      -6.647   1.334 128.060  0.00  0.00    +0.017 C 
BRANCH  10  11
ATOM     11  C   LIG A   1      -5.923   2.985 127.942  0.00  0.00    +0.130 C 
ATOM     12  C   LIG A   1      -4.176   3.135 127.637  0.00  0.00    +0.168 C 
ATOM     13  C   LIG A   1      -4.000   4.476 126.897  0.00  0.00    +0.203 C 
ATOM     14  O   LIG A   1      -5.297   5.078 126.636  0.00  0.00    -0.459 OA
ATOM     15  C   LIG A   1      -6.366   4.359 127.128  0.00  0.00    +0.313 C 
ATOM     16  O   LIG A   1      -7.663   4.775 126.734  0.00  0.00    -0.250 OA
ATOM     17  C   LIG A   1      -3.268   5.423 127.764  0.00  0.00    +0.055 C 
BRANCH  12  18
ATOM     18  O   LIG A   1      -3.286   2.239 126.884  0.00  0.00    -0.387 OA
ATOM     19  H   LIG A   1      -2.370   2.586 126.783  0.00  0.00    +0.210 HD
ENDBRANCH  12  18
ENDBRANCH  10  11
ENDBRANCH   9  10
ENDBRANCH   8   9
ENDBRANCH   7   8
ENDBRANCH   6   7
ENDBRANCH   5   6
ENDBRANCH   4   5
ENDBRANCH   3   4
ENDBRANCH   2   3
ENDBRANCH   1   2
BRANCH   1  20
ATOM     20  C   LIG A   1      -8.861  -3.110 126.488  0.00  0.00    -0.000 C 
BRANCH  20  21
ATOM     21  C   LIG A   1      -9.098  -3.818 127.755  0.00  0.00    -0.000 C 
BRANCH  21  22
ATOM     22  C   LIG A   1      -7.896  -3.603 128.550  0.00  0.00    -0.000 C 
BRANCH  22  23
ATOM     23  C   LIG A   1      -8.048  -2.404 129.404  0.00  0.00    -0.000 C 
BRANCH  23  24
ATOM     24  C   LIG A   1      -6.832  -1.775 130.111  0.00  0.00    -0.000 C 
BRANCH  24  25
ATOM     25  C   LIG A   1      -6.930  -0.706 131.221  0.00  0.00    +0.000 C 
BRANCH  25  26
ATOM     26  C   LIG A   1      -8.277  -0.525 131.857  0.00  0.00    +0.000 C 
BRANCH  26  27
ATOM     27  C   LIG A   1      -8.659   0.899 132.281  0.00  0.00    +0.005 C 
BRANCH  27  28
ATOM     28  C   LIG A   1      -9.851   1.581 131.633  0.00  0.00    +0.035 C 
BRANCH  28  29
ATOM     29  C   LIG A   1      -9.696   2.999 131.146  0.00  0.00    -0.044 A 
ATOM     30  C   LIG A   1     -10.762   3.732 130.598  0.00  0.00    +0.053 A 
ATOM     31  C   LIG A   1     -10.475   4.926 129.968  0.00  0.00    +0.167 A 
ATOM     32  C   LIG A   1      -9.193   5.412 129.875  0.00  0.00    +0.166 A 
ATOM     33  C   LIG A   1      -8.124   4.735 130.417  0.00  0.00    +0.050 A 
ATOM     34  C   LIG A   1      -8.383   3.518 131.054  0.00  0.00    +0.007 A 
ATOM     35  O   LIG A   1      -9.131   6.582 129.184  0.00  0.00    -0.453 OA
ATOM     36  C   LIG A   1     -10.534   6.828 128.951  0.00  0.00    +0.466 C 
ATOM     37  O   LIG A   1     -11.380   5.726 129.338  0.00  0.00    -0.453 OA
ENDBRANCH  28  29
ENDBRANCH  27  28
ENDBRANCH  26  27
ENDBRANCH  25  26
ENDBRANCH  24  25
ENDBRANCH  23  24
ENDBRANCH  22  23
ENDBRANCH  21  22
ENDBRANCH  20  21
ENDBRANCH   1  20
TORSDOF 21
ENDMDL
