MODEL 1
REMARK VINA RESULT:      -6.6      0.000      0.000
REMARK  Name = NuBBE_1472
REMARK  11 active torsions:
REMARK  status: ('A' for Active; 'I' for Inactive)
REMARK    1  A    between atoms: C_1  and  O_2
REMARK    2  A    between atoms: O_2  and  C_3
REMARK    3  A    between atoms: C_5  and  C_6
REMARK    4  A    between atoms: C_10  and  O_11
REMARK    5  A    between atoms: O_11  and  C_12
REMARK    6  A    between atoms: C_14  and  O_15
REMARK    7  A    between atoms: O_15  and  C_16
REMARK    8  A    between atoms: C_22  and  O_23
REMARK    9  A    between atoms: O_23  and  C_24
REMARK   10  A    between atoms: C_25  and  O_26
REMARK   11  A    between atoms: O_26  and  C_27
REMARK                            x       y       z     vdW  Elec       q    Type
REMARK                         _______ _______ _______ _____ _____    ______ ____
ROOT
ATOM      1  C   LIG A   1      -5.727  -1.979 128.464  0.00  0.00    +0.211 C 
ATOM      2  C   LIG A   1      -4.537  -2.922 128.468  0.00  0.00    +0.129 C 
ATOM      3  C   LIG A   1      -3.924  -2.838 129.844  0.00  0.00    +0.174 C 
ATOM      4  C   LIG A   1      -4.899  -3.002 130.953  0.00  0.00    +0.101 A 
ATOM      5  C   LIG A   1      -4.557  -3.449 132.238  0.00  0.00    +0.138 A 
ATOM      6  C   LIG A   1      -5.577  -3.605 133.196  0.00  0.00    +0.092 A 
ATOM      7  C   LIG A   1      -6.915  -3.378 132.862  0.00  0.00    +0.127 A 
ATOM      8  C   LIG A   1      -7.233  -2.929 131.589  0.00  0.00    +0.092 A 
ATOM      9  C   LIG A   1      -6.234  -2.747 130.645  0.00  0.00    +0.139 A 
ATOM     10  O   LIG A   1      -6.708  -2.356 129.428  0.00  0.00    -0.483 OA
ATOM     11  O   LIG A   1      -2.741  -2.656 130.008  0.00  0.00    -0.292 OA
ENDROOT
BRANCH   1  14
ATOM     12  C   LIG A   1      -6.380  -2.453 124.724  0.00  0.00    +0.166 A 
ATOM     13  C   LIG A   1      -5.779  -2.493 125.993  0.00  0.00    +0.057 A 
ATOM     14  C   LIG A   1      -6.425  -1.973 127.118  0.00  0.00    +0.000 A 
ATOM     15  C   LIG A   1      -7.714  -1.442 126.963  0.00  0.00    +0.057 A 
ATOM     16  C   LIG A   1      -8.358  -1.448 125.721  0.00  0.00    +0.166 A 
ATOM     17  C   LIG A   1      -7.695  -1.958 124.585  0.00  0.00    +0.203 A 
BRANCH  12  19
ATOM     18  C   LIG A   1      -4.630  -3.737 123.697  0.00  0.00    +0.277 C 
ATOM     19  O   LIG A   1      -5.725  -2.844 123.588  0.00  0.00    -0.491 OA
ENDBRANCH  12  19
BRANCH  16  20
ATOM     20  O   LIG A   1      -9.615  -0.885 125.761  0.00  0.00    -0.491 OA
ATOM     21  C   LIG A   1      -9.681   0.537 125.706  0.00  0.00    +0.277 C 
ENDBRANCH  16  20
BRANCH  17  22
ATOM     22  O   LIG A   1      -8.413  -1.901 123.424  0.00  0.00    -0.488 OA
ATOM     23  C   LIG A   1      -9.296  -2.932 123.034  0.00  0.00    +0.277 C 
ENDBRANCH  17  22
ENDBRANCH   1  14
BRANCH   5  24
ATOM     24  O   LIG A   1      -3.242  -3.718 132.498  0.00  0.00    -0.494 OA
ATOM     25  C   LIG A   1      -2.977  -4.701 133.491  0.00  0.00    +0.277 C 
ENDBRANCH   5  24
BRANCH   7  26
ATOM     26  O   LIG A   1      -7.848  -3.605 133.840  0.00  0.00    -0.495 OA
ATOM     27  C   LIG A   1      -7.451  -4.564 134.822  0.00  0.00    +0.277 C 
ENDBRANCH   7  26
TORSDOF 6
ENDMDL
MODEL 2
REMARK VINA RESULT:      -6.6      4.589      7.338
REMARK  Name = NuBBE_1472
REMARK  11 active torsions:
REMARK  status: ('A' for Active; 'I' for Inactive)
REMARK    1  A    between atoms: C_1  and  O_2
REMARK    2  A    between atoms: O_2  and  C_3
REMARK    3  A    between atoms: C_5  and  C_6
REMARK    4  A    between atoms: C_10  and  O_11
REMARK    5  A    between atoms: O_11  and  C_12
REMARK    6  A    between atoms: C_14  and  O_15
REMARK    7  A    between atoms: O_15  and  C_16
REMARK    8  A    between atoms: C_22  and  O_23
REMARK    9  A    between atoms: O_23  and  C_24
REMARK   10  A    between atoms: C_25  and  O_26
REMARK   11  A    between atoms: O_26  and  C_27
REMARK                            x       y       z     vdW  Elec       q    Type
REMARK                         _______ _______ _______ _____ _____    ______ ____
ROOT
ATOM      1  C   LIG A   1      -6.384   1.078 125.833  0.00  0.00    +0.211 C 
ATOM      2  C   LIG A   1      -7.651   1.356 125.045  0.00  0.00    +0.129 C 
ATOM      3  C   LIG A   1      -8.114   0.032 124.489  0.00  0.00    +0.174 C 
ATOM      4  C   LIG A   1      -8.192  -1.055 125.499  0.00  0.00    +0.101 A 
ATOM      5  C   LIG A   1      -9.023  -2.179 125.380  0.00  0.00    +0.138 A 
ATOM      6  C   LIG A   1      -9.042  -3.123 126.423  0.00  0.00    +0.092 A 
ATOM      7  C   LIG A   1      -8.295  -2.921 127.588  0.00  0.00    +0.127 A 
ATOM      8  C   LIG A   1      -7.474  -1.808 127.685  0.00  0.00    +0.092 A 
ATOM      9  C   LIG A   1      -7.427  -0.884 126.652  0.00  0.00    +0.139 A 
ATOM     10  O   LIG A   1      -6.619   0.181 126.918  0.00  0.00    -0.483 OA
ATOM     11  O   LIG A   1      -8.395  -0.111 123.323  0.00  0.00    -0.292 OA
ENDROOT
BRANCH   1  14
ATOM     12  C   LIG A   1      -3.919   3.845 126.784  0.00  0.00    +0.166 A 
ATOM     13  C   LIG A   1      -4.487   2.703 126.195  0.00  0.00    +0.057 A 
ATOM     14  C   LIG A   1      -5.816   2.346 126.438  0.00  0.00    +0.000 A 
ATOM     15  C   LIG A   1      -6.593   3.180 127.256  0.00  0.00    +0.057 A 
ATOM     16  C   LIG A   1      -6.067   4.354 127.804  0.00  0.00    +0.166 A 
ATOM     17  C   LIG A   1      -4.720   4.702 127.570  0.00  0.00    +0.203 A 
BRANCH  12  19
ATOM     18  C   LIG A   1      -1.646   3.099 126.569  0.00  0.00    +0.277 C 
ATOM     19  O   LIG A   1      -2.591   4.152 126.661  0.00  0.00    -0.491 OA
ENDBRANCH  12  19
BRANCH  16  20
ATOM     20  O   LIG A   1      -6.974   5.043 128.580  0.00  0.00    -0.491 OA
ATOM     21  C   LIG A   1      -7.360   4.430 129.808  0.00  0.00    +0.277 C 
ENDBRANCH  16  20
BRANCH  17  22
ATOM     22  O   LIG A   1      -4.311   5.862 128.165  0.00  0.00    -0.488 OA
ATOM     23  C   LIG A   1      -3.707   5.880 129.442  0.00  0.00    +0.277 C 
ENDBRANCH  17  22
ENDBRANCH   1  14
BRANCH   5  24
ATOM     24  O   LIG A   1      -9.782  -2.301 124.249  0.00  0.00    -0.494 OA
ATOM     25  C   LIG A   1      -9.525  -3.435 123.429  0.00  0.00    +0.277 C 
ENDBRANCH   5  24
BRANCH   7  26
ATOM     26  O   LIG A   1      -8.414  -3.863 128.575  0.00  0.00    -0.495 OA
ATOM     27  C   LIG A   1      -7.606  -3.615 129.728  0.00  0.00    +0.277 C 
ENDBRANCH   7  26
TORSDOF 6
ENDMDL
MODEL 3
REMARK VINA RESULT:      -6.6      4.510      7.586
REMARK  Name = NuBBE_1472
REMARK  11 active torsions:
REMARK  status: ('A' for Active; 'I' for Inactive)
REMARK    1  A    between atoms: C_1  and  O_2
REMARK    2  A    between atoms: O_2  and  C_3
REMARK    3  A    between atoms: C_5  and  C_6
REMARK    4  A    between atoms: C_10  and  O_11
REMARK    5  A    between atoms: O_11  and  C_12
REMARK    6  A    between atoms: C_14  and  O_15
REMARK    7  A    between atoms: O_15  and  C_16
REMARK    8  A    between atoms: C_22  and  O_23
REMARK    9  A    between atoms: O_23  and  C_24
REMARK   10  A    between atoms: C_25  and  O_26
REMARK   11  A    between atoms: O_26  and  C_27
REMARK                            x       y       z     vdW  Elec       q    Type
REMARK                         _______ _______ _______ _____ _____    ______ ____
ROOT
ATOM      1  C   LIG A   1      -5.768   0.664 125.799  0.00  0.00    +0.211 C 
ATOM      2  C   LIG A   1      -6.619   0.779 124.546  0.00  0.00    +0.129 C 
ATOM      3  C   LIG A   1      -6.855  -0.628 124.055  0.00  0.00    +0.174 C 
ATOM      4  C   LIG A   1      -7.345  -1.562 125.101  0.00  0.00    +0.101 A 
ATOM      5  C   LIG A   1      -8.086  -2.722 124.832  0.00  0.00    +0.138 A 
ATOM      6  C   LIG A   1      -8.532  -3.508 125.912  0.00  0.00    +0.092 A 
ATOM      7  C   LIG A   1      -8.298  -3.113 127.232  0.00  0.00    +0.127 A 
ATOM      8  C   LIG A   1      -7.557  -1.967 127.479  0.00  0.00    +0.092 A 
ATOM      9  C   LIG A   1      -7.090  -1.199 126.422  0.00  0.00    +0.139 A 
ATOM     10  O   LIG A   1      -6.428  -0.077 126.825  0.00  0.00    -0.483 OA
ATOM     11  O   LIG A   1      -6.660  -0.946 122.906  0.00  0.00    -0.292 OA
ENDROOT
BRANCH   1  14
ATOM     12  C   LIG A   1      -6.228   4.080 127.458  0.00  0.00    +0.166 A 
ATOM     13  C   LIG A   1      -6.477   2.793 126.955  0.00  0.00    +0.057 A 
ATOM     14  C   LIG A   1      -5.457   2.027 126.384  0.00  0.00    +0.000 A 
ATOM     15  C   LIG A   1      -4.158   2.556 126.361  0.00  0.00    +0.057 A 
ATOM     16  C   LIG A   1      -3.874   3.810 126.911  0.00  0.00    +0.166 A 
ATOM     17  C   LIG A   1      -4.911   4.587 127.470  0.00  0.00    +0.203 A 
BRANCH  12  19
ATOM     18  C   LIG A   1      -7.992   4.495 129.035  0.00  0.00    +0.277 C 
ATOM     19  O   LIG A   1      -7.228   4.898 127.911  0.00  0.00    -0.491 OA
ENDBRANCH  12  19
BRANCH  16  20
ATOM     20  O   LIG A   1      -2.547   4.164 126.795  0.00  0.00    -0.491 OA
ATOM     21  C   LIG A   1      -1.623   3.108 126.550  0.00  0.00    +0.277 C 
ENDBRANCH  16  20
BRANCH  17  22
ATOM     22  O   LIG A   1      -4.521   5.799 127.966  0.00  0.00    -0.488 OA
ATOM     23  C   LIG A   1      -4.214   5.991 129.331  0.00  0.00    +0.277 C 
ENDBRANCH  17  22
ENDBRANCH   1  14
BRANCH   5  24
ATOM     24  O   LIG A   1      -8.344  -3.034 123.526  0.00  0.00    -0.494 OA
ATOM     25  C   LIG A   1      -9.699  -3.309 123.193  0.00  0.00    +0.277 C 
ENDBRANCH   5  24
BRANCH   7  26
ATOM     26  O   LIG A   1      -8.814  -3.908 128.221  0.00  0.00    -0.495 OA
ATOM     27  C   LIG A   1      -8.428  -3.530 129.544  0.00  0.00    +0.277 C 
ENDBRANCH   7  26
TORSDOF 6
ENDMDL
MODEL 4
REMARK VINA RESULT:      -6.5      4.952      6.926
REMARK  Name = NuBBE_1472
REMARK  11 active torsions:
REMARK  status: ('A' for Active; 'I' for Inactive)
REMARK    1  A    between atoms: C_1  and  O_2
REMARK    2  A    between atoms: O_2  and  C_3
REMARK    3  A    between atoms: C_5  and  C_6
REMARK    4  A    between atoms: C_10  and  O_11
REMARK    5  A    between atoms: O_11  and  C_12
REMARK    6  A    between atoms: C_14  and  O_15
REMARK    7  A    between atoms: O_15  and  C_16
REMARK    8  A    between atoms: C_22  and  O_23
REMARK    9  A    between atoms: O_23  and  C_24
REMARK   10  A    between atoms: C_25  and  O_26
REMARK   11  A    between atoms: O_26  and  C_27
REMARK                            x       y       z     vdW  Elec       q    Type
REMARK                         _______ _______ _______ _____ _____    ______ ____
ROOT
ATOM      1  C   LIG A   1      -7.780   1.604 128.712  0.00  0.00    +0.211 C 
ATOM      2  C   LIG A   1      -8.193   1.046 130.063  0.00  0.00    +0.129 C 
ATOM      3  C   LIG A   1      -7.678   2.010 131.104  0.00  0.00    +0.174 C 
ATOM      4  C   LIG A   1      -8.030   3.430 130.842  0.00  0.00    +0.101 A 
ATOM      5  C   LIG A   1      -8.118   4.413 131.838  0.00  0.00    +0.138 A 
ATOM      6  C   LIG A   1      -8.501   5.718 131.473  0.00  0.00    +0.092 A 
ATOM      7  C   LIG A   1      -8.849   6.020 130.153  0.00  0.00    +0.127 A 
ATOM      8  C   LIG A   1      -8.748   5.037 129.180  0.00  0.00    +0.092 A 
ATOM      9  C   LIG A   1      -8.347   3.755 129.524  0.00  0.00    +0.139 A 
ATOM     10  O   LIG A   1      -8.350   2.890 128.471  0.00  0.00    -0.483 OA
ATOM     11  O   LIG A   1      -7.041   1.640 132.061  0.00  0.00    -0.292 OA
ENDROOT
BRANCH   1  14
ATOM     12  C   LIG A   1      -9.490   0.421 125.501  0.00  0.00    +0.166 A 
ATOM     13  C   LIG A   1      -9.007   1.237 126.537  0.00  0.00    +0.057 A 
ATOM     14  C   LIG A   1      -8.238   0.709 127.579  0.00  0.00    +0.000 A 
ATOM     15  C   LIG A   1      -7.921  -0.657 127.548  0.00  0.00    +0.057 A 
ATOM     16  C   LIG A   1      -8.339  -1.477 126.495  0.00  0.00    +0.166 A 
ATOM     17  C   LIG A   1      -9.129  -0.943 125.455  0.00  0.00    +0.203 A 
BRANCH  12  19
ATOM     18  C   LIG A   1      -9.808   1.581 123.422  0.00  0.00    +0.277 C 
ATOM     19  O   LIG A   1     -10.342   0.886 124.537  0.00  0.00    -0.491 OA
ENDBRANCH  12  19
BRANCH  16  20
ATOM     20  O   LIG A   1      -7.936  -2.787 126.636  0.00  0.00    -0.491 OA
ATOM     21  C   LIG A   1      -8.719  -3.608 127.498  0.00  0.00    +0.277 C 
ENDBRANCH  16  20
BRANCH  17  22
ATOM     22  O   LIG A   1      -9.490  -1.837 124.487  0.00  0.00    -0.488 OA
ATOM     23  C   LIG A   1      -8.719  -2.036 123.320  0.00  0.00    +0.277 C 
ENDBRANCH  17  22
ENDBRANCH   1  14
BRANCH   5  24
ATOM     24  O   LIG A   1      -7.828   4.053 133.125  0.00  0.00    -0.494 OA
ATOM     25  C   LIG A   1      -8.930   3.940 134.018  0.00  0.00    +0.277 C 
ENDBRANCH   5  24
BRANCH   7  26
ATOM     26  O   LIG A   1      -9.262   7.300 129.896  0.00  0.00    -0.495 OA
ATOM     27  C   LIG A   1     -10.672   7.439 129.710  0.00  0.00    +0.277 C 
ENDBRANCH   7  26
TORSDOF 6
ENDMDL
MODEL 5
REMARK VINA RESULT:      -6.5      2.237      3.412
REMARK  Name = NuBBE_1472
REMARK  11 active torsions:
REMARK  status: ('A' for Active; 'I' for Inactive)
REMARK    1  A    between atoms: C_1  and  O_2
REMARK    2  A    between atoms: O_2  and  C_3
REMARK    3  A    between atoms: C_5  and  C_6
REMARK    4  A    between atoms: C_10  and  O_11
REMARK    5  A    between atoms: O_11  and  C_12
REMARK    6  A    between atoms: C_14  and  O_15
REMARK    7  A    between atoms: O_15  and  C_16
REMARK    8  A    between atoms: C_22  and  O_23
REMARK    9  A    between atoms: O_23  and  C_24
REMARK   10  A    between atoms: C_25  and  O_26
REMARK   11  A    between atoms: O_26  and  C_27
REMARK                            x       y       z     vdW  Elec       q    Type
REMARK                         _______ _______ _______ _____ _____    ______ ____
ROOT
ATOM      1  C   LIG A   1      -6.913  -1.972 128.895  0.00  0.00    +0.211 C 
ATOM      2  C   LIG A   1      -7.380  -3.371 129.256  0.00  0.00    +0.129 C 
ATOM      3  C   LIG A   1      -6.508  -3.835 130.398  0.00  0.00    +0.174 C 
ATOM      4  C   LIG A   1      -6.408  -2.864 131.518  0.00  0.00    +0.101 A 
ATOM      5  C   LIG A   1      -6.103  -3.220 132.839  0.00  0.00    +0.138 A 
ATOM      6  C   LIG A   1      -6.077  -2.214 133.825  0.00  0.00    +0.092 A 
ATOM      7  C   LIG A   1      -6.408  -0.893 133.510  0.00  0.00    +0.127 A 
ATOM      8  C   LIG A   1      -6.699  -0.558 132.196  0.00  0.00    +0.092 A 
ATOM      9  C   LIG A   1      -6.702  -1.536 131.212  0.00  0.00    +0.139 A 
ATOM     10  O   LIG A   1      -7.061  -1.063 129.985  0.00  0.00    -0.483 OA
ATOM     11  O   LIG A   1      -5.953  -4.908 130.385  0.00  0.00    -0.292 OA
ENDROOT
BRANCH   1  14
ATOM     12  C   LIG A   1      -8.617   0.544 126.571  0.00  0.00    +0.166 A 
ATOM     13  C   LIG A   1      -7.836  -0.014 127.596  0.00  0.00    +0.057 A 
ATOM     14  C   LIG A   1      -7.717  -1.399 127.745  0.00  0.00    +0.000 A 
ATOM     15  C   LIG A   1      -8.364  -2.229 126.817  0.00  0.00    +0.057 A 
ATOM     16  C   LIG A   1      -9.097  -1.695 125.752  0.00  0.00    +0.166 A 
ATOM     17  C   LIG A   1      -9.228  -0.297 125.616  0.00  0.00    +0.203 A 
BRANCH  12  19
ATOM     18  C   LIG A   1      -7.745   2.776 126.404  0.00  0.00    +0.277 C 
ATOM     19  O   LIG A   1      -8.849   1.889 126.474  0.00  0.00    -0.491 OA
ENDBRANCH  12  19
BRANCH  16  20
ATOM     20  O   LIG A   1      -9.662  -2.660 124.947  0.00  0.00    -0.491 OA
ATOM     21  C   LIG A   1      -8.809  -3.265 123.979  0.00  0.00    +0.277 C 
ENDBRANCH  16  20
BRANCH  17  22
ATOM     22  O   LIG A   1      -9.977   0.111 124.548  0.00  0.00    -0.488 OA
ATOM     23  C   LIG A   1      -9.394   0.458 123.309  0.00  0.00    +0.277 C 
ENDBRANCH  17  22
ENDBRANCH   1  14
BRANCH   5  24
ATOM     24  O   LIG A   1      -5.848  -4.535 133.110  0.00  0.00    -0.494 OA
ATOM     25  C   LIG A   1      -6.403  -5.058 134.311  0.00  0.00    +0.277 C 
ENDBRANCH   5  24
BRANCH   7  26
ATOM     26  O   LIG A   1      -6.409   0.011 134.539  0.00  0.00    -0.495 OA
ATOM     27  C   LIG A   1      -6.244   1.370 134.132  0.00  0.00    +0.277 C 
ENDBRANCH   7  26
TORSDOF 6
ENDMDL
MODEL 6
REMARK VINA RESULT:      -6.5      5.411      8.453
REMARK  Name = NuBBE_1472
REMARK  11 active torsions:
REMARK  status: ('A' for Active; 'I' for Inactive)
REMARK    1  A    between atoms: C_1  and  O_2
REMARK    2  A    between atoms: O_2  and  C_3
REMARK    3  A    between atoms: C_5  and  C_6
REMARK    4  A    between atoms: C_10  and  O_11
REMARK    5  A    between atoms: O_11  and  C_12
REMARK    6  A    between atoms: C_14  and  O_15
REMARK    7  A    between atoms: O_15  and  C_16
REMARK    8  A    between atoms: C_22  and  O_23
REMARK    9  A    between atoms: O_23  and  C_24
REMARK   10  A    between atoms: C_25  and  O_26
REMARK   11  A    between atoms: O_26  and  C_27
REMARK                            x       y       z     vdW  Elec       q    Type
REMARK                         _______ _______ _______ _____ _____    ______ ____
ROOT
ATOM      1  C   LIG A   1      -6.537   1.518 125.561  0.00  0.00    +0.211 C 
ATOM      2  C   LIG A   1      -7.917   1.191 126.105  0.00  0.00    +0.129 C 
ATOM      3  C   LIG A   1      -8.502   0.140 125.195  0.00  0.00    +0.174 C 
ATOM      4  C   LIG A   1      -7.602  -1.015 124.945  0.00  0.00    +0.101 A 
ATOM      5  C   LIG A   1      -8.048  -2.293 124.578  0.00  0.00    +0.138 A 
ATOM      6  C   LIG A   1      -7.101  -3.321 124.409  0.00  0.00    +0.092 A 
ATOM      7  C   LIG A   1      -5.745  -3.095 124.661  0.00  0.00    +0.127 A 
ATOM      8  C   LIG A   1      -5.320  -1.823 125.016  0.00  0.00    +0.092 A 
ATOM      9  C   LIG A   1      -6.242  -0.797 125.160  0.00  0.00    +0.139 A 
ATOM     10  O   LIG A   1      -5.680   0.377 125.565  0.00  0.00    -0.483 OA
ATOM     11  O   LIG A   1      -9.609   0.245 124.724  0.00  0.00    -0.292 OA
ENDROOT
BRANCH   1  14
ATOM     12  C   LIG A   1      -5.963   4.284 128.141  0.00  0.00    +0.166 A 
ATOM     13  C   LIG A   1      -6.560   3.261 127.386  0.00  0.00    +0.057 A 
ATOM     14  C   LIG A   1      -5.848   2.578 126.396  0.00  0.00    +0.000 A 
ATOM     15  C   LIG A   1      -4.500   2.909 126.195  0.00  0.00    +0.057 A 
ATOM     16  C   LIG A   1      -3.866   3.881 126.976  0.00  0.00    +0.166 A 
ATOM     17  C   LIG A   1      -4.594   4.579 127.962  0.00  0.00    +0.203 A 
BRANCH  12  19
ATOM     18  C   LIG A   1      -6.920   4.539 130.328  0.00  0.00    +0.277 C 
ATOM     19  O   LIG A   1      -6.667   5.049 129.030  0.00  0.00    -0.491 OA
ENDBRANCH  12  19
BRANCH  16  20
ATOM     20  O   LIG A   1      -2.544   4.071 126.635  0.00  0.00    -0.491 OA
ATOM     21  C   LIG A   1      -1.699   2.925 126.686  0.00  0.00    +0.277 C 
ENDBRANCH  16  20
BRANCH  17  22
ATOM     22  O   LIG A   1      -3.877   5.515 128.654  0.00  0.00    -0.488 OA
ATOM     23  C   LIG A   1      -3.641   6.811 128.143  0.00  0.00    +0.277 C 
ENDBRANCH  17  22
ENDBRANCH   1  14
BRANCH   5  24
ATOM     24  O   LIG A   1      -9.392  -2.481 124.405  0.00  0.00    -0.494 OA
ATOM     25  C   LIG A   1      -9.782  -3.345 123.345  0.00  0.00    +0.277 C 
ENDBRANCH   5  24
BRANCH   7  26
ATOM     26  O   LIG A   1      -4.900  -4.164 124.524  0.00  0.00    -0.495 OA
ATOM     27  C   LIG A   1      -4.155  -4.176 123.304  0.00  0.00    +0.277 C 
ENDBRANCH   7  26
TORSDOF 6
ENDMDL
MODEL 7
REMARK VINA RESULT:      -6.5      0.238      2.496
REMARK  Name = NuBBE_1472
REMARK  11 active torsions:
REMARK  status: ('A' for Active; 'I' for Inactive)
REMARK    1  A    between atoms: C_1  and  O_2
REMARK    2  A    between atoms: O_2  and  C_3
REMARK    3  A    between atoms: C_5  and  C_6
REMARK    4  A    between atoms: C_10  and  O_11
REMARK    5  A    between atoms: O_11  and  C_12
REMARK    6  A    between atoms: C_14  and  O_15
REMARK    7  A    between atoms: O_15  and  C_16
REMARK    8  A    between atoms: C_22  and  O_23
REMARK    9  A    between atoms: O_23  and  C_24
REMARK   10  A    between atoms: C_25  and  O_26
REMARK   11  A    between atoms: O_26  and  C_27
REMARK                            x       y       z     vdW  Elec       q    Type
REMARK                         _______ _______ _______ _____ _____    ______ ____
ROOT
ATOM      1  C   LIG A   1      -5.598  -2.041 128.389  0.00  0.00    +0.211 C 
ATOM      2  C   LIG A   1      -4.485  -3.074 128.350  0.00  0.00    +0.129 C 
ATOM      3  C   LIG A   1      -3.850  -3.076 129.719  0.00  0.00    +0.174 C 
ATOM      4  C   LIG A   1      -4.821  -3.194 130.838  0.00  0.00    +0.101 A 
ATOM      5  C   LIG A   1      -4.499  -3.702 132.105  0.00  0.00    +0.138 A 
ATOM      6  C   LIG A   1      -5.515  -3.805 133.073  0.00  0.00    +0.092 A 
ATOM      7  C   LIG A   1      -6.836  -3.465 132.766  0.00  0.00    +0.127 A 
ATOM      8  C   LIG A   1      -7.134  -2.958 131.510  0.00  0.00    +0.092 A 
ATOM      9  C   LIG A   1      -6.136  -2.828 130.556  0.00  0.00    +0.139 A 
ATOM     10  O   LIG A   1      -6.594  -2.368 129.358  0.00  0.00    -0.483 OA
ATOM     11  O   LIG A   1      -2.655  -2.991 129.871  0.00  0.00    -0.292 OA
ENDROOT
BRANCH   1  14
ATOM     12  C   LIG A   1      -8.274  -1.280 125.764  0.00  0.00    +0.166 A 
ATOM     13  C   LIG A   1      -7.568  -1.339 126.976  0.00  0.00    +0.057 A 
ATOM     14  C   LIG A   1      -6.310  -1.943 127.055  0.00  0.00    +0.000 A 
ATOM     15  C   LIG A   1      -5.743  -2.459 125.881  0.00  0.00    +0.057 A 
ATOM     16  C   LIG A   1      -6.400  -2.358 124.650  0.00  0.00    +0.166 A 
ATOM     17  C   LIG A   1      -7.677  -1.762 124.579  0.00  0.00    +0.203 A 
BRANCH  12  19
ATOM     18  C   LIG A   1      -9.765   0.595 125.596  0.00  0.00    +0.277 C 
ATOM     19  O   LIG A   1      -9.555  -0.804 125.682  0.00  0.00    -0.491 OA
ENDBRANCH  12  19
BRANCH  16  20
ATOM     20  O   LIG A   1      -5.693  -2.921 123.611  0.00  0.00    -0.491 OA
ATOM     21  C   LIG A   1      -4.725  -3.908 123.956  0.00  0.00    +0.277 C 
ENDBRANCH  16  20
BRANCH  17  22
ATOM     22  O   LIG A   1      -8.230  -1.730 123.330  0.00  0.00    -0.488 OA
ATOM     23  C   LIG A   1      -9.165  -2.695 122.896  0.00  0.00    +0.277 C 
ENDBRANCH  17  22
ENDBRANCH   1  14
BRANCH   5  24
ATOM     24  O   LIG A   1      -3.206  -4.080 132.338  0.00  0.00    -0.494 OA
ATOM     25  C   LIG A   1      -2.978  -4.906 133.473  0.00  0.00    +0.277 C 
ENDBRANCH   5  24
BRANCH   7  26
ATOM     26  O   LIG A   1      -7.771  -3.647 133.750  0.00  0.00    -0.495 OA
ATOM     27  C   LIG A   1      -7.238  -4.115 134.991  0.00  0.00    +0.277 C 
ENDBRANCH   7  26
TORSDOF 6
ENDMDL
MODEL 8
REMARK VINA RESULT:      -6.3      4.987      6.487
REMARK  Name = NuBBE_1472
REMARK  11 active torsions:
REMARK  status: ('A' for Active; 'I' for Inactive)
REMARK    1  A    between atoms: C_1  and  O_2
REMARK    2  A    between atoms: O_2  and  C_3
REMARK    3  A    between atoms: C_5  and  C_6
REMARK    4  A    between atoms: C_10  and  O_11
REMARK    5  A    between atoms: O_11  and  C_12
REMARK    6  A    between atoms: C_14  and  O_15
REMARK    7  A    between atoms: O_15  and  C_16
REMARK    8  A    between atoms: C_22  and  O_23
REMARK    9  A    between atoms: O_23  and  C_24
REMARK   10  A    between atoms: C_25  and  O_26
REMARK   11  A    between atoms: O_26  and  C_27
REMARK                            x       y       z     vdW  Elec       q    Type
REMARK                         _______ _______ _______ _____ _____    ______ ____
ROOT
ATOM      1  C   LIG A   1      -8.000   1.878 128.705  0.00  0.00    +0.211 C 
ATOM      2  C   LIG A   1      -7.539   1.190 129.979  0.00  0.00    +0.129 C 
ATOM      3  C   LIG A   1      -7.185   2.285 130.955  0.00  0.00    +0.174 C 
ATOM      4  C   LIG A   1      -8.236   3.323 131.110  0.00  0.00    +0.101 A 
ATOM      5  C   LIG A   1      -8.384   4.125 132.251  0.00  0.00    +0.138 A 
ATOM      6  C   LIG A   1      -9.446   5.049 132.299  0.00  0.00    +0.092 A 
ATOM      7  C   LIG A   1     -10.376   5.127 131.258  0.00  0.00    +0.127 A 
ATOM      8  C   LIG A   1     -10.209   4.331 130.134  0.00  0.00    +0.092 A 
ATOM      9  C   LIG A   1      -9.151   3.437 130.065  0.00  0.00    +0.139 A 
ATOM     10  O   LIG A   1      -9.153   2.689 128.926  0.00  0.00    -0.483 OA
ATOM     11  O   LIG A   1      -6.134   2.295 131.552  0.00  0.00    -0.292 OA
ENDROOT
BRANCH   1  14
ATOM     12  C   LIG A   1      -8.274  -1.408 126.765  0.00  0.00    +0.166 A 
ATOM     13  C   LIG A   1      -7.982  -0.464 127.763  0.00  0.00    +0.057 A 
ATOM     14  C   LIG A   1      -8.379   0.871 127.638  0.00  0.00    +0.000 A 
ATOM     15  C   LIG A   1      -9.117   1.245 126.505  0.00  0.00    +0.057 A 
ATOM     16  C   LIG A   1      -9.472   0.310 125.528  0.00  0.00    +0.166 A 
ATOM     17  C   LIG A   1      -9.055  -1.032 125.650  0.00  0.00    +0.203 A 
BRANCH  12  19
ATOM     18  C   LIG A   1      -8.547  -3.686 127.476  0.00  0.00    +0.277 C 
ATOM     19  O   LIG A   1      -7.796  -2.689 126.803  0.00  0.00    -0.491 OA
ENDBRANCH  12  19
BRANCH  16  20
ATOM     20  O   LIG A   1     -10.194   0.859 124.490  0.00  0.00    -0.491 OA
ATOM     21  C   LIG A   1      -9.512   1.801 123.666  0.00  0.00    +0.277 C 
ENDBRANCH  16  20
BRANCH  17  22
ATOM     22  O   LIG A   1      -9.448  -1.854 124.631  0.00  0.00    -0.488 OA
ATOM     23  C   LIG A   1      -8.649  -2.067 123.486  0.00  0.00    +0.277 C 
ENDBRANCH  17  22
ENDBRANCH   1  14
BRANCH   5  24
ATOM     24  O   LIG A   1      -7.486   3.968 133.270  0.00  0.00    -0.494 OA
ATOM     25  C   LIG A   1      -7.949   4.274 134.580  0.00  0.00    +0.277 C 
ENDBRANCH   5  24
BRANCH   7  26
ATOM     26  O   LIG A   1     -11.408   6.014 131.411  0.00  0.00    -0.495 OA
ATOM     27  C   LIG A   1     -12.004   6.443 130.184  0.00  0.00    +0.277 C 
ENDBRANCH   7  26
TORSDOF 6
ENDMDL
MODEL 9
REMARK VINA RESULT:      -6.3      2.027      8.358
REMARK  Name = NuBBE_1472
REMARK  11 active torsions:
REMARK  status: ('A' for Active; 'I' for Inactive)
REMARK    1  A    between atoms: C_1  and  O_2
REMARK    2  A    between atoms: O_2  and  C_3
REMARK    3  A    between atoms: C_5  and  C_6
REMARK    4  A    between atoms: C_10  and  O_11
REMARK    5  A    between atoms: O_11  and  C_12
REMARK    6  A    between atoms: C_14  and  O_15
REMARK    7  A    between atoms: O_15  and  C_16
REMARK    8  A    between atoms: C_22  and  O_23
REMARK    9  A    between atoms: O_23  and  C_24
REMARK   10  A    between atoms: C_25  and  O_26
REMARK   11  A    between atoms: O_26  and  C_27
REMARK                            x       y       z     vdW  Elec       q    Type
REMARK                         _______ _______ _______ _____ _____    ______ ____
ROOT
ATOM      1  C   LIG A   1      -8.030  -1.808 128.213  0.00  0.00    +0.211 C 
ATOM      2  C   LIG A   1      -7.883  -2.566 126.905  0.00  0.00    +0.129 C 
ATOM      3  C   LIG A   1      -8.881  -1.967 125.945  0.00  0.00    +0.174 C 
ATOM      4  C   LIG A   1      -8.825  -0.485 125.857  0.00  0.00    +0.101 A 
ATOM      5  C   LIG A   1      -9.255   0.252 124.744  0.00  0.00    +0.138 A 
ATOM      6  C   LIG A   1      -9.112   1.653 124.761  0.00  0.00    +0.092 A 
ATOM      7  C   LIG A   1      -8.498   2.299 125.839  0.00  0.00    +0.127 A 
ATOM      8  C   LIG A   1      -8.086   1.554 126.934  0.00  0.00    +0.092 A 
ATOM      9  C   LIG A   1      -8.245   0.177 126.939  0.00  0.00    +0.139 A 
ATOM     10  O   LIG A   1      -7.743  -0.418 128.058  0.00  0.00    -0.483 OA
ATOM     11  O   LIG A   1      -9.648  -2.650 125.309  0.00  0.00    -0.292 OA
ENDROOT
BRANCH   1  14
ATOM     12  C   LIG A   1      -6.706  -3.255 131.497  0.00  0.00    +0.166 A 
ATOM     13  C   LIG A   1      -7.570  -2.813 130.482  0.00  0.00    +0.057 A 
ATOM     14  C   LIG A   1      -7.075  -2.330 129.267  0.00  0.00    +0.000 A 
ATOM     15  C   LIG A   1      -5.688  -2.333 129.063  0.00  0.00    +0.057 A 
ATOM     16  C   LIG A   1      -4.810  -2.825 130.035  0.00  0.00    +0.166 A 
ATOM     17  C   LIG A   1      -5.314  -3.296 131.266  0.00  0.00    +0.203 A 
BRANCH  12  19
ATOM     18  C   LIG A   1      -7.611  -2.614 133.628  0.00  0.00    +0.277 C 
ATOM     19  O   LIG A   1      -7.155  -3.619 132.738  0.00  0.00    -0.491 OA
ENDBRANCH  12  19
BRANCH  16  20
ATOM     20  O   LIG A   1      -3.487  -2.746 129.660  0.00  0.00    -0.491 OA
ATOM     21  C   LIG A   1      -2.961  -3.855 128.936  0.00  0.00    +0.277 C 
ENDBRANCH  16  20
BRANCH  17  22
ATOM     22  O   LIG A   1      -4.366  -3.740 132.146  0.00  0.00    -0.488 OA
ATOM     23  C   LIG A   1      -3.768  -2.888 133.101  0.00  0.00    +0.277 C 
ENDBRANCH  17  22
ENDBRANCH   1  14
BRANCH   5  24
ATOM     24  O   LIG A   1      -9.791  -0.430 123.688  0.00  0.00    -0.494 OA
ATOM     25  C   LIG A   1     -10.177   0.345 122.559  0.00  0.00    +0.277 C 
ENDBRANCH   5  24
BRANCH   7  26
ATOM     26  O   LIG A   1      -8.352   3.658 125.748  0.00  0.00    -0.495 OA
ATOM     27  C   LIG A   1      -7.403   4.086 124.770  0.00  0.00    +0.277 C 
ENDBRANCH   7  26
TORSDOF 6
ENDMDL
