MODEL 1
REMARK VINA RESULT:      -7.3      0.000      0.000
REMARK  Name = NuBBE_2064
REMARK  6 active torsions:
REMARK  status: ('A' for Active; 'I' for Inactive)
REMARK    1  A    between atoms: C_1  and  O_2
REMARK    2  A    between atoms: O_2  and  C_3
REMARK    3  A    between atoms: C_15  and  O_16
REMARK    4  A    between atoms: O_16  and  C_17
REMARK    5  A    between atoms: C_18  and  O_19
REMARK    6  A    between atoms: O_19  and  C_20
REMARK                            x       y       z     vdW  Elec       q    Type
REMARK                         _______ _______ _______ _____ _____    ______ ____
ROOT
ATOM      1  C   LIG A   1      -5.151  -2.502 123.673  0.00  0.00    +0.143 C 
ATOM      2  C   LIG A   1      -5.955  -2.460 122.394  0.00  0.00    +0.004 C 
ATOM      3  C   LIG A   1      -7.290  -2.293 122.405  0.00  0.00    +0.004 C 
ATOM      4  C   LIG A   1      -7.924  -2.134 123.678  0.00  0.00    -0.026 C 
ATOM      5  C   LIG A   1      -9.026  -2.775 124.097  0.00  0.00    -0.006 C 
ATOM      6  C   LIG A   1      -9.116  -2.659 125.581  0.00  0.00    +0.113 C 
ATOM      7  N   LIG A   1      -7.759  -2.229 125.975  0.00  0.00    -0.285 NA
ATOM      8  C   LIG A   1      -7.683  -1.555 127.263  0.00  0.00    +0.090 C 
ATOM      9  C   LIG A   1      -8.366  -0.188 127.315  0.00  0.00    +0.051 C 
ATOM     10  C   LIG A   1      -8.140   0.633 126.076  0.00  0.00    -0.037 A 
ATOM     11  C   LIG A   1      -8.497   1.990 126.086  0.00  0.00    +0.053 A 
ATOM     12  C   LIG A   1      -8.397   2.790 124.939  0.00  0.00    +0.162 A 
ATOM     13  C   LIG A   1      -7.902   2.231 123.756  0.00  0.00    +0.162 A 
ATOM     14  C   LIG A   1      -7.508   0.883 123.761  0.00  0.00    +0.055 A 
ATOM     15  C   LIG A   1      -7.647   0.058 124.898  0.00  0.00    -0.016 A 
ATOM     16  C   LIG A   1      -7.226  -1.430 124.832  0.00  0.00    +0.075 C 
ATOM     17  C   LIG A   1      -5.678  -1.501 124.717  0.00  0.00    +0.068 C 
ENDROOT
BRANCH   1  19
ATOM     18  C   LIG A   1      -4.190  -4.689 123.482  0.00  0.00    +0.194 C 
ATOM     19  O   LIG A   1      -5.165  -3.866 124.101  0.00  0.00    -0.376 OA
ENDBRANCH   1  19
BRANCH  12  20
ATOM     20  O   LIG A   1      -8.781   4.085 125.166  0.00  0.00    -0.491 OA
ATOM     21  C   LIG A   1      -7.848   4.947 125.800  0.00  0.00    +0.277 C 
ENDBRANCH  12  20
BRANCH  13  22
ATOM     22  O   LIG A   1      -7.749   3.016 122.644  0.00  0.00    -0.491 OA
ATOM     23  C   LIG A   1      -6.432   3.523 122.431  0.00  0.00    +0.277 C 
ENDBRANCH  13  22
TORSDOF 3
ENDMDL
MODEL 2
REMARK VINA RESULT:      -7.0      1.035      1.117
REMARK  Name = NuBBE_2064
REMARK  6 active torsions:
REMARK  status: ('A' for Active; 'I' for Inactive)
REMARK    1  A    between atoms: C_1  and  O_2
REMARK    2  A    between atoms: O_2  and  C_3
REMARK    3  A    between atoms: C_15  and  O_16
REMARK    4  A    between atoms: O_16  and  C_17
REMARK    5  A    between atoms: C_18  and  O_19
REMARK    6  A    between atoms: O_19  and  C_20
REMARK                            x       y       z     vdW  Elec       q    Type
REMARK                         _______ _______ _______ _____ _____    ______ ____
ROOT
ATOM      1  C   LIG A   1      -5.261  -2.526 123.620  0.00  0.00    +0.143 C 
ATOM      2  C   LIG A   1      -6.220  -2.184 122.503  0.00  0.00    +0.004 C 
ATOM      3  C   LIG A   1      -7.530  -1.980 122.734  0.00  0.00    +0.004 C 
ATOM      4  C   LIG A   1      -7.983  -2.078 124.088  0.00  0.00    -0.026 C 
ATOM      5  C   LIG A   1      -9.059  -2.757 124.514  0.00  0.00    -0.006 C 
ATOM      6  C   LIG A   1      -8.949  -2.960 125.987  0.00  0.00    +0.113 C 
ATOM      7  N   LIG A   1      -7.529  -2.668 126.269  0.00  0.00    -0.285 NA
ATOM      8  C   LIG A   1      -7.246  -2.290 127.645  0.00  0.00    +0.090 C 
ATOM      9  C   LIG A   1      -7.830  -0.945 128.076  0.00  0.00    +0.051 C 
ATOM     10  C   LIG A   1      -7.717   0.116 127.016  0.00  0.00    -0.037 A 
ATOM     11  C   LIG A   1      -7.985   1.450 127.357  0.00  0.00    +0.053 A 
ATOM     12  C   LIG A   1      -7.985   2.474 126.400  0.00  0.00    +0.162 A 
ATOM     13  C   LIG A   1      -7.682   2.166 125.070  0.00  0.00    +0.162 A 
ATOM     14  C   LIG A   1      -7.375   0.837 124.739  0.00  0.00    +0.055 A 
ATOM     15  C   LIG A   1      -7.416  -0.209 125.686  0.00  0.00    -0.016 A 
ATOM     16  C   LIG A   1      -7.099  -1.661 125.255  0.00  0.00    +0.075 C 
ATOM     17  C   LIG A   1      -5.586  -1.756 124.913  0.00  0.00    +0.068 C 
ENDROOT
BRANCH   1  19
ATOM     18  C   LIG A   1      -4.055  -4.597 123.571  0.00  0.00    +0.194 C 
ATOM     19  O   LIG A   1      -5.304  -3.949 123.753  0.00  0.00    -0.376 OA
ENDBRANCH   1  19
BRANCH  12  20
ATOM     20  O   LIG A   1      -8.256   3.701 126.943  0.00  0.00    -0.491 OA
ATOM     21  C   LIG A   1      -7.861   3.928 128.288  0.00  0.00    +0.277 C 
ENDBRANCH  12  20
BRANCH  13  22
ATOM     22  O   LIG A   1      -7.626   3.166 124.135  0.00  0.00    -0.491 OA
ATOM     23  C   LIG A   1      -6.316   3.641 123.828  0.00  0.00    +0.277 C 
ENDBRANCH  13  22
TORSDOF 3
ENDMDL
MODEL 3
REMARK VINA RESULT:      -6.7      1.744      3.566
REMARK  Name = NuBBE_2064
REMARK  6 active torsions:
REMARK  status: ('A' for Active; 'I' for Inactive)
REMARK    1  A    between atoms: C_1  and  O_2
REMARK    2  A    between atoms: O_2  and  C_3
REMARK    3  A    between atoms: C_15  and  O_16
REMARK    4  A    between atoms: O_16  and  C_17
REMARK    5  A    between atoms: C_18  and  O_19
REMARK    6  A    between atoms: O_19  and  C_20
REMARK                            x       y       z     vdW  Elec       q    Type
REMARK                         _______ _______ _______ _____ _____    ______ ____
ROOT
ATOM      1  C   LIG A   1      -7.325  -1.374 127.881  0.00  0.00    +0.143 C 
ATOM      2  C   LIG A   1      -5.935  -0.795 127.749  0.00  0.00    +0.004 C 
ATOM      3  C   LIG A   1      -5.299  -0.748 126.565  0.00  0.00    +0.004 C 
ATOM      4  C   LIG A   1      -5.999  -1.248 125.420  0.00  0.00    -0.026 C 
ATOM      5  C   LIG A   1      -5.504  -2.086 124.497  0.00  0.00    -0.006 C 
ATOM      6  C   LIG A   1      -6.637  -2.685 123.734  0.00  0.00    +0.113 C 
ATOM      7  N   LIG A   1      -7.812  -2.395 124.580  0.00  0.00    -0.285 NA
ATOM      8  C   LIG A   1      -9.086  -2.399 123.875  0.00  0.00    +0.090 C 
ATOM      9  C   LIG A   1      -9.265  -1.268 122.863  0.00  0.00    +0.051 C 
ATOM     10  C   LIG A   1      -8.734   0.052 123.351  0.00  0.00    -0.037 A 
ATOM     11  C   LIG A   1      -9.049   1.218 122.637  0.00  0.00    +0.053 A 
ATOM     12  C   LIG A   1      -8.515   2.467 122.984  0.00  0.00    +0.162 A 
ATOM     13  C   LIG A   1      -7.665   2.562 124.091  0.00  0.00    +0.162 A 
ATOM     14  C   LIG A   1      -7.384   1.401 124.828  0.00  0.00    +0.055 A 
ATOM     15  C   LIG A   1      -7.881   0.132 124.459  0.00  0.00    -0.016 A 
ATOM     16  C   LIG A   1      -7.510  -1.118 125.293  0.00  0.00    +0.075 C 
ATOM     17  C   LIG A   1      -8.213  -1.018 126.675  0.00  0.00    +0.068 C 
ENDROOT
BRANCH   1  19
ATOM     18  C   LIG A   1      -8.291  -3.448 128.595  0.00  0.00    +0.194 C 
ATOM     19  O   LIG A   1      -7.147  -2.777 128.092  0.00  0.00    -0.376 OA
ENDBRANCH   1  19
BRANCH  12  20
ATOM     20  O   LIG A   1      -8.959   3.473 122.169  0.00  0.00    -0.491 OA
ATOM     21  C   LIG A   1      -8.327   3.627 120.907  0.00  0.00    +0.277 C 
ENDBRANCH  12  20
BRANCH  13  22
ATOM     22  O   LIG A   1      -7.179   3.786 124.472  0.00  0.00    -0.491 OA
ATOM     23  C   LIG A   1      -5.932   4.156 123.887  0.00  0.00    +0.277 C 
ENDBRANCH  13  22
TORSDOF 3
ENDMDL
MODEL 4
REMARK VINA RESULT:      -6.5      3.216      5.331
REMARK  Name = NuBBE_2064
REMARK  6 active torsions:
REMARK  status: ('A' for Active; 'I' for Inactive)
REMARK    1  A    between atoms: C_1  and  O_2
REMARK    2  A    between atoms: O_2  and  C_3
REMARK    3  A    between atoms: C_15  and  O_16
REMARK    4  A    between atoms: O_16  and  C_17
REMARK    5  A    between atoms: C_18  and  O_19
REMARK    6  A    between atoms: O_19  and  C_20
REMARK                            x       y       z     vdW  Elec       q    Type
REMARK                         _______ _______ _______ _____ _____    ______ ____
ROOT
ATOM      1  C   LIG A   1      -5.276  -3.160 129.461  0.00  0.00    +0.143 C 
ATOM      2  C   LIG A   1      -6.553  -3.846 129.889  0.00  0.00    +0.004 C 
ATOM      3  C   LIG A   1      -7.681  -3.153 130.131  0.00  0.00    +0.004 C 
ATOM      4  C   LIG A   1      -7.635  -1.735 129.946  0.00  0.00    -0.026 C 
ATOM      5  C   LIG A   1      -8.098  -0.812 130.804  0.00  0.00    -0.006 C 
ATOM      6  C   LIG A   1      -7.498   0.509 130.459  0.00  0.00    +0.113 C 
ATOM      7  N   LIG A   1      -6.366   0.154 129.579  0.00  0.00    -0.285 NA
ATOM      8  C   LIG A   1      -5.921   1.222 128.697  0.00  0.00    +0.090 C 
ATOM      9  C   LIG A   1      -6.921   1.618 127.611  0.00  0.00    +0.051 C 
ATOM     10  C   LIG A   1      -7.621   0.440 126.992  0.00  0.00    -0.037 A 
ATOM     11  C   LIG A   1      -8.375   0.633 125.826  0.00  0.00    +0.053 A 
ATOM     12  C   LIG A   1      -9.124  -0.403 125.248  0.00  0.00    +0.162 A 
ATOM     13  C   LIG A   1      -9.099  -1.673 125.834  0.00  0.00    +0.162 A 
ATOM     14  C   LIG A   1      -8.310  -1.872 126.978  0.00  0.00    +0.055 A 
ATOM     15  C   LIG A   1      -7.589  -0.826 127.593  0.00  0.00    -0.016 A 
ATOM     16  C   LIG A   1      -6.764  -1.100 128.873  0.00  0.00    +0.075 C 
ATOM     17  C   LIG A   1      -5.548  -1.992 128.496  0.00  0.00    +0.068 C 
ENDROOT
BRANCH   1  19
ATOM     18  C   LIG A   1      -3.471  -1.959 130.482  0.00  0.00    +0.194 C 
ATOM     19  O   LIG A   1      -4.608  -2.787 130.668  0.00  0.00    -0.376 OA
ENDBRANCH   1  19
BRANCH  12  20
ATOM     20  O   LIG A   1      -9.774  -0.009 124.110  0.00  0.00    -0.491 OA
ATOM     21  C   LIG A   1     -10.105   1.366 123.982  0.00  0.00    +0.277 C 
ENDBRANCH  12  20
BRANCH  13  22
ATOM     22  O   LIG A   1      -9.783  -2.705 125.248  0.00  0.00    -0.491 OA
ATOM     23  C   LIG A   1      -9.085  -3.387 124.206  0.00  0.00    +0.277 C 
ENDBRANCH  13  22
TORSDOF 3
ENDMDL
MODEL 5
REMARK VINA RESULT:      -6.4      3.262      5.861
REMARK  Name = NuBBE_2064
REMARK  6 active torsions:
REMARK  status: ('A' for Active; 'I' for Inactive)
REMARK    1  A    between atoms: C_1  and  O_2
REMARK    2  A    between atoms: O_2  and  C_3
REMARK    3  A    between atoms: C_15  and  O_16
REMARK    4  A    between atoms: O_16  and  C_17
REMARK    5  A    between atoms: C_18  and  O_19
REMARK    6  A    between atoms: O_19  and  C_20
REMARK                            x       y       z     vdW  Elec       q    Type
REMARK                         _______ _______ _______ _____ _____    ______ ____
ROOT
ATOM      1  C   LIG A   1      -6.923   0.978 130.520  0.00  0.00    +0.143 C 
ATOM      2  C   LIG A   1      -5.782   1.429 129.637  0.00  0.00    +0.004 C 
ATOM      3  C   LIG A   1      -5.122   0.569 128.841  0.00  0.00    +0.004 C 
ATOM      4  C   LIG A   1      -5.556  -0.796 128.842  0.00  0.00    -0.026 C 
ATOM      5  C   LIG A   1      -4.766  -1.875 128.944  0.00  0.00    -0.006 C 
ATOM      6  C   LIG A   1      -5.601  -3.050 129.326  0.00  0.00    +0.113 C 
ATOM      7  N   LIG A   1      -6.858  -2.437 129.802  0.00  0.00    -0.285 NA
ATOM      8  C   LIG A   1      -8.019  -3.313 129.757  0.00  0.00    +0.090 C 
ATOM      9  C   LIG A   1      -8.484  -3.692 128.351  0.00  0.00    +0.051 C 
ATOM     10  C   LIG A   1      -8.429  -2.545 127.380  0.00  0.00    -0.037 A 
ATOM     11  C   LIG A   1      -9.052  -2.681 126.131  0.00  0.00    +0.053 A 
ATOM     12  C   LIG A   1      -8.963  -1.687 125.146  0.00  0.00    +0.162 A 
ATOM     13  C   LIG A   1      -8.257  -0.512 125.424  0.00  0.00    +0.162 A 
ATOM     14  C   LIG A   1      -7.669  -0.362 126.690  0.00  0.00    +0.055 A 
ATOM     15  C   LIG A   1      -7.715  -1.376 127.671  0.00  0.00    -0.016 A 
ATOM     16  C   LIG A   1      -7.019  -1.165 129.037  0.00  0.00    +0.075 C 
ATOM     17  C   LIG A   1      -7.801  -0.080 129.828  0.00  0.00    +0.068 C 
ENDROOT
BRANCH   1  19
ATOM     18  C   LIG A   1      -7.208  -0.125 132.629  0.00  0.00    +0.194 C 
ATOM     19  O   LIG A   1      -6.324   0.542 131.743  0.00  0.00    -0.376 OA
ENDBRANCH   1  19
BRANCH  12  20
ATOM     20  O   LIG A   1      -9.652  -2.011 124.008  0.00  0.00    -0.491 OA
ATOM     21  C   LIG A   1      -9.418  -3.291 123.439  0.00  0.00    +0.277 C 
ENDBRANCH  12  20
BRANCH  13  22
ATOM     22  O   LIG A   1      -8.208   0.489 124.489  0.00  0.00    -0.491 OA
ATOM     23  C   LIG A   1      -7.131   0.401 123.557  0.00  0.00    +0.277 C 
ENDBRANCH  13  22
TORSDOF 3
ENDMDL
MODEL 6
REMARK VINA RESULT:      -6.3      3.136      5.642
REMARK  Name = NuBBE_2064
REMARK  6 active torsions:
REMARK  status: ('A' for Active; 'I' for Inactive)
REMARK    1  A    between atoms: C_1  and  O_2
REMARK    2  A    between atoms: O_2  and  C_3
REMARK    3  A    between atoms: C_15  and  O_16
REMARK    4  A    between atoms: O_16  and  C_17
REMARK    5  A    between atoms: C_18  and  O_19
REMARK    6  A    between atoms: O_19  and  C_20
REMARK                            x       y       z     vdW  Elec       q    Type
REMARK                         _______ _______ _______ _____ _____    ______ ____
ROOT
ATOM      1  C   LIG A   1      -8.432  -2.842 124.229  0.00  0.00    +0.143 C 
ATOM      2  C   LIG A   1      -7.105  -3.558 124.337  0.00  0.00    +0.004 C 
ATOM      3  C   LIG A   1      -6.035  -2.980 124.913  0.00  0.00    +0.004 C 
ATOM      4  C   LIG A   1      -6.205  -1.662 125.446  0.00  0.00    -0.026 C 
ATOM      5  C   LIG A   1      -5.383  -0.620 125.251  0.00  0.00    -0.006 C 
ATOM      6  C   LIG A   1      -6.105   0.636 125.602  0.00  0.00    +0.113 C 
ATOM      7  N   LIG A   1      -7.522   0.219 125.637  0.00  0.00    -0.285 NA
ATOM      8  C   LIG A   1      -8.390   1.076 126.431  0.00  0.00    +0.090 C 
ATOM      9  C   LIG A   1      -8.121   1.047 127.936  0.00  0.00    +0.051 C 
ATOM     10  C   LIG A   1      -7.823  -0.332 128.457  0.00  0.00    -0.037 A 
ATOM     11  C   LIG A   1      -7.800  -0.544 129.843  0.00  0.00    +0.053 A 
ATOM     12  C   LIG A   1      -7.442  -1.782 130.397  0.00  0.00    +0.162 A 
ATOM     13  C   LIG A   1      -7.125  -2.846 129.546  0.00  0.00    +0.162 A 
ATOM     14  C   LIG A   1      -7.189  -2.641 128.159  0.00  0.00    +0.055 A 
ATOM     15  C   LIG A   1      -7.504  -1.387 127.592  0.00  0.00    -0.016 A 
ATOM     16  C   LIG A   1      -7.526  -1.214 126.054  0.00  0.00    +0.075 C 
ATOM     17  C   LIG A   1      -8.737  -2.005 125.485  0.00  0.00    +0.068 C 
ENDROOT
BRANCH   1  19
ATOM     18  C   LIG A   1      -9.378  -1.094 122.890  0.00  0.00    +0.194 C 
ATOM     19  O   LIG A   1      -8.374  -2.088 123.016  0.00  0.00    -0.376 OA
ENDBRANCH   1  19
BRANCH  12  20
ATOM     20  O   LIG A   1      -7.497  -1.781 131.765  0.00  0.00    -0.491 OA
ATOM     21  C   LIG A   1      -6.332  -1.380 132.471  0.00  0.00    +0.277 C 
ENDBRANCH  12  20
BRANCH  13  22
ATOM     22  O   LIG A   1      -6.827  -4.074 130.075  0.00  0.00    -0.491 OA
ATOM     23  C   LIG A   1      -5.440  -4.314 130.316  0.00  0.00    +0.277 C 
ENDBRANCH  13  22
TORSDOF 3
ENDMDL
MODEL 7
REMARK VINA RESULT:      -6.0      4.010      5.698
REMARK  Name = NuBBE_2064
REMARK  6 active torsions:
REMARK  status: ('A' for Active; 'I' for Inactive)
REMARK    1  A    between atoms: C_1  and  O_2
REMARK    2  A    between atoms: O_2  and  C_3
REMARK    3  A    between atoms: C_15  and  O_16
REMARK    4  A    between atoms: O_16  and  C_17
REMARK    5  A    between atoms: C_18  and  O_19
REMARK    6  A    between atoms: O_19  and  C_20
REMARK                            x       y       z     vdW  Elec       q    Type
REMARK                         _______ _______ _______ _____ _____    ______ ____
ROOT
ATOM      1  C   LIG A   1      -2.988  -1.907 130.423  0.00  0.00    +0.143 C 
ATOM      2  C   LIG A   1      -2.948  -3.117 129.517  0.00  0.00    +0.004 C 
ATOM      3  C   LIG A   1      -4.071  -3.758 129.146  0.00  0.00    +0.004 C 
ATOM      4  C   LIG A   1      -5.316  -3.237 129.623  0.00  0.00    -0.026 C 
ATOM      5  C   LIG A   1      -6.310  -3.951 130.174  0.00  0.00    -0.006 C 
ATOM      6  C   LIG A   1      -7.220  -3.023 130.906  0.00  0.00    +0.113 C 
ATOM      7  N   LIG A   1      -6.422  -1.786 131.031  0.00  0.00    -0.285 NA
ATOM      8  C   LIG A   1      -7.203  -0.575 131.233  0.00  0.00    +0.090 C 
ATOM      9  C   LIG A   1      -8.062  -0.156 130.040  0.00  0.00    +0.051 C 
ATOM     10  C   LIG A   1      -7.366  -0.333 128.718  0.00  0.00    -0.037 A 
ATOM     11  C   LIG A   1      -7.934   0.235 127.569  0.00  0.00    +0.053 A 
ATOM     12  C   LIG A   1      -7.386   0.033 126.294  0.00  0.00    +0.162 A 
ATOM     13  C   LIG A   1      -6.223  -0.733 126.164  0.00  0.00    +0.162 A 
ATOM     14  C   LIG A   1      -5.634  -1.266 127.322  0.00  0.00    +0.055 A 
ATOM     15  C   LIG A   1      -6.203  -1.107 128.603  0.00  0.00    -0.016 A 
ATOM     16  C   LIG A   1      -5.524  -1.746 129.839  0.00  0.00    +0.075 C 
ATOM     17  C   LIG A   1      -4.190  -0.997 130.113  0.00  0.00    +0.068 C 
ENDROOT
BRANCH   1  19
ATOM     18  C   LIG A   1      -3.181  -1.442 132.766  0.00  0.00    +0.194 C 
ATOM     19  O   LIG A   1      -2.958  -2.415 131.758  0.00  0.00    -0.376 OA
ENDBRANCH   1  19
BRANCH  12  20
ATOM     20  O   LIG A   1      -8.084   0.684 125.313  0.00  0.00    -0.491 OA
ATOM     21  C   LIG A   1      -9.057  -0.058 124.593  0.00  0.00    +0.277 C 
ENDBRANCH  12  20
BRANCH  13  22
ATOM     22  O   LIG A   1      -5.648  -0.893 124.931  0.00  0.00    -0.491 OA
ATOM     23  C   LIG A   1      -5.787  -2.192 124.356  0.00  0.00    +0.277 C 
ENDBRANCH  13  22
TORSDOF 3
ENDMDL
MODEL 8
REMARK VINA RESULT:      -5.9      9.646     12.346
REMARK  Name = NuBBE_2064
REMARK  6 active torsions:
REMARK  status: ('A' for Active; 'I' for Inactive)
REMARK    1  A    between atoms: C_1  and  O_2
REMARK    2  A    between atoms: O_2  and  C_3
REMARK    3  A    between atoms: C_15  and  O_16
REMARK    4  A    between atoms: O_16  and  C_17
REMARK    5  A    between atoms: C_18  and  O_19
REMARK    6  A    between atoms: O_19  and  C_20
REMARK                            x       y       z     vdW  Elec       q    Type
REMARK                         _______ _______ _______ _____ _____    ______ ____
ROOT
ATOM      1  C   LIG A   1      -2.141   6.268 129.429  0.00  0.00    +0.143 C 
ATOM      2  C   LIG A   1      -3.087   7.313 128.884  0.00  0.00    +0.004 C 
ATOM      3  C   LIG A   1      -4.138   7.756 129.599  0.00  0.00    +0.004 C 
ATOM      4  C   LIG A   1      -4.316   7.216 130.912  0.00  0.00    -0.026 C 
ATOM      5  C   LIG A   1      -5.466   6.753 131.425  0.00  0.00    -0.006 C 
ATOM      6  C   LIG A   1      -5.158   5.912 132.618  0.00  0.00    +0.113 C 
ATOM      7  N   LIG A   1      -3.712   5.641 132.482  0.00  0.00    -0.285 NA
ATOM      8  C   LIG A   1      -3.038   5.292 133.723  0.00  0.00    +0.090 C 
ATOM      9  C   LIG A   1      -2.948   6.423 134.747  0.00  0.00    +0.051 C 
ATOM     10  C   LIG A   1      -2.638   7.758 134.128  0.00  0.00    -0.037 A 
ATOM     11  C   LIG A   1      -2.286   8.829 134.963  0.00  0.00    +0.053 A 
ATOM     12  C   LIG A   1      -2.071  10.120 134.460  0.00  0.00    +0.162 A 
ATOM     13  C   LIG A   1      -2.182  10.345 133.084  0.00  0.00    +0.162 A 
ATOM     14  C   LIG A   1      -2.495   9.262 132.247  0.00  0.00    +0.055 A 
ATOM     15  C   LIG A   1      -2.757   7.969 132.748  0.00  0.00    -0.016 A 
ATOM     16  C   LIG A   1      -3.129   6.822 131.778  0.00  0.00    +0.075 C 
ATOM     17  C   LIG A   1      -1.875   6.462 130.933  0.00  0.00    +0.068 C 
ENDROOT
BRANCH   1  19
ATOM     18  C   LIG A   1      -2.638   4.674 127.710  0.00  0.00    +0.194 C 
ATOM     19  O   LIG A   1      -2.714   5.004 129.088  0.00  0.00    -0.376 OA
ENDBRANCH   1  19
BRANCH  12  20
ATOM     20  O   LIG A   1      -1.724  11.014 135.438  0.00  0.00    -0.491 OA
ATOM     21  C   LIG A   1      -0.431  10.894 136.011  0.00  0.00    +0.277 C 
ENDBRANCH  12  20
BRANCH  13  22
ATOM     22  O   LIG A   1      -1.922  11.590 132.575  0.00  0.00    -0.491 OA
ATOM     23  C   LIG A   1      -0.541  11.894 132.382  0.00  0.00    +0.277 C 
ENDBRANCH  13  22
TORSDOF 3
ENDMDL
MODEL 9
REMARK VINA RESULT:      -5.7      5.791      9.155
REMARK  Name = NuBBE_2064
REMARK  6 active torsions:
REMARK  status: ('A' for Active; 'I' for Inactive)
REMARK    1  A    between atoms: C_1  and  O_2
REMARK    2  A    between atoms: O_2  and  C_3
REMARK    3  A    between atoms: C_15  and  O_16
REMARK    4  A    between atoms: O_16  and  C_17
REMARK    5  A    between atoms: C_18  and  O_19
REMARK    6  A    between atoms: O_19  and  C_20
REMARK                            x       y       z     vdW  Elec       q    Type
REMARK                         _______ _______ _______ _____ _____    ______ ____
ROOT
ATOM      1  C   LIG A   1      -3.953   4.747 132.482  0.00  0.00    +0.143 C 
ATOM      2  C   LIG A   1      -5.069   5.709 132.821  0.00  0.00    +0.004 C 
ATOM      3  C   LIG A   1      -5.507   6.623 131.936  0.00  0.00    +0.004 C 
ATOM      4  C   LIG A   1      -4.891   6.638 130.644  0.00  0.00    -0.026 C 
ATOM      5  C   LIG A   1      -4.442   7.724 129.997  0.00  0.00    -0.006 C 
ATOM      6  C   LIG A   1      -3.514   7.290 128.913  0.00  0.00    +0.113 C 
ATOM      7  N   LIG A   1      -3.194   5.894 129.274  0.00  0.00    -0.285 NA
ATOM      8  C   LIG A   1      -2.738   5.067 128.167  0.00  0.00    +0.090 C 
ATOM      9  C   LIG A   1      -3.797   4.775 127.103  0.00  0.00    +0.051 C 
ATOM     10  C   LIG A   1      -5.155   4.491 127.682  0.00  0.00    -0.037 A 
ATOM     11  C   LIG A   1      -6.155   3.970 126.847  0.00  0.00    +0.053 A 
ATOM     12  C   LIG A   1      -7.466   3.766 127.301  0.00  0.00    +0.162 A 
ATOM     13  C   LIG A   1      -7.784   4.063 128.630  0.00  0.00    +0.162 A 
ATOM     14  C   LIG A   1      -6.771   4.545 129.474  0.00  0.00    +0.055 A 
ATOM     15  C   LIG A   1      -5.459   4.797 129.016  0.00  0.00    -0.016 A 
ATOM     16  C   LIG A   1      -4.393   5.360 129.986  0.00  0.00    +0.075 C 
ATOM     17  C   LIG A   1      -4.039   4.259 131.024  0.00  0.00    +0.068 C 
ENDROOT
BRANCH   1  19
ATOM     18  C   LIG A   1      -1.557   4.703 132.497  0.00  0.00    +0.194 C 
ATOM     19  O   LIG A   1      -2.738   5.425 132.809  0.00  0.00    -0.376 OA
ENDBRANCH   1  19
BRANCH  12  20
ATOM     20  O   LIG A   1      -8.280   3.239 126.334  0.00  0.00    -0.491 OA
ATOM     21  C   LIG A   1      -8.214   1.839 126.108  0.00  0.00    +0.277 C 
ENDBRANCH  12  20
BRANCH  13  22
ATOM     22  O   LIG A   1      -9.048   3.817 129.099  0.00  0.00    -0.491 OA
ATOM     23  C   LIG A   1      -9.207   3.932 130.512  0.00  0.00    +0.277 C 
ENDBRANCH  13  22
TORSDOF 3
ENDMDL
