MODEL 1
REMARK VINA RESULT:      -7.8      0.000      0.000
REMARK  Name = NuBBE_989
REMARK  3 active torsions:
REMARK  status: ('A' for Active; 'I' for Inactive)
REMARK    1  A    between atoms: C_1  and  C_2
REMARK    2  A    between atoms: C_9  and  O_20
REMARK    3  A    between atoms: C_11  and  O_19
REMARK                            x       y       z     vdW  Elec       q    Type
REMARK                         _______ _______ _______ _____ _____    ______ ____
ROOT
ATOM      1  C   LIG A   1      -5.234  -2.998 123.451  0.00  0.00    +0.012 C 
ATOM      2  C   LIG A   1      -6.604  -2.484 123.932  0.00  0.00    -0.022 C 
ATOM      3  C   LIG A   1      -7.200  -1.221 123.069  0.00  0.00    +0.006 C 
ATOM      4  C   LIG A   1      -6.870   0.266 123.914  0.00  0.00    -0.003 C 
ATOM      5  C   LIG A   1      -6.853   1.815 123.571  0.00  0.00    +0.004 C 
ATOM      6  C   LIG A   1      -6.141   2.726 124.775  0.00  0.00    +0.004 C 
ATOM      7  C   LIG A   1      -6.652   2.489 126.258  0.00  0.00    +0.001 C 
ATOM      8  C   LIG A   1      -5.727   2.876 127.633  0.00  0.00    +0.041 C 
ATOM      9  C   LIG A   1      -5.217   1.653 128.646  0.00  0.00    +0.174 C 
ATOM     10  C   LIG A   1      -5.554   0.252 128.100  0.00  0.00    +0.194 C 
ATOM     11  C   LIG A   1      -5.455   0.510 126.646  0.00  0.00    +0.077 C 
ATOM     12  C   LIG A   1      -6.881   1.008 126.389  0.00  0.00    +0.005 C 
ATOM     13  C   LIG A   1      -7.585   0.243 125.269  0.00  0.00    +0.001 C 
ATOM     14  C   LIG A   1      -7.726  -1.197 125.716  0.00  0.00    +0.005 C 
ATOM     15  C   LIG A   1      -6.466  -1.969 125.335  0.00  0.00    +0.007 C 
ATOM     16  C   LIG A   1      -7.706   0.789 127.680  0.00  0.00    +0.171 C 
ATOM     17  O   LIG A   1      -6.891  -0.102 128.429  0.00  0.00    -0.346 OA
ATOM     18  C   LIG A   1      -8.635  -1.777 122.769  0.00  0.00    +0.078 C 
ATOM     19  C   LIG A   1      -8.837  -3.039 123.597  0.00  0.00    +0.134 C 
ATOM     20  C   LIG A   1      -7.606  -3.632 124.139  0.00  0.00    +0.081 C 
ATOM     21  O   LIG A   1      -9.972  -3.551 123.842  0.00  0.00    -0.297 OA
ENDROOT
BRANCH  10  22
ATOM     22  O   LIG A   1      -4.655  -0.772 128.482  0.00  0.00    -0.363 OA
ATOM     23  H   LIG A   1      -4.836  -0.950 129.425  0.00  0.00    +0.213 HD
ENDBRANCH  10  22
BRANCH   9  24
ATOM     24  O   LIG A   1      -3.791   1.685 128.819  0.00  0.00    -0.387 OA
ATOM     25  H   LIG A   1      -3.561   0.765 129.096  0.00  0.00    +0.210 HD
ENDBRANCH   9  24
TORSDOF 2
ENDMDL
MODEL 2
REMARK VINA RESULT:      -7.7      2.683      3.958
REMARK  Name = NuBBE_989
REMARK  3 active torsions:
REMARK  status: ('A' for Active; 'I' for Inactive)
REMARK    1  A    between atoms: C_1  and  C_2
REMARK    2  A    between atoms: C_9  and  O_20
REMARK    3  A    between atoms: C_11  and  O_19
REMARK                            x       y       z     vdW  Elec       q    Type
REMARK                         _______ _______ _______ _____ _____    ______ ____
ROOT
ATOM      1  C   LIG A   1      -9.148  -1.718 123.052  0.00  0.00    +0.012 C 
ATOM      2  C   LIG A   1      -7.727  -1.504 123.606  0.00  0.00    -0.022 C 
ATOM      3  C   LIG A   1      -7.512  -2.015 125.151  0.00  0.00    +0.006 C 
ATOM      4  C   LIG A   1      -7.633  -0.655 126.233  0.00  0.00    -0.003 C 
ATOM      5  C   LIG A   1      -7.845  -0.427 127.788  0.00  0.00    +0.004 C 
ATOM      6  C   LIG A   1      -8.178   1.166 128.159  0.00  0.00    +0.004 C 
ATOM      7  C   LIG A   1      -7.202   2.267 127.562  0.00  0.00    +0.001 C 
ATOM      8  C   LIG A   1      -7.653   3.894 127.354  0.00  0.00    +0.041 C 
ATOM      9  C   LIG A   1      -7.739   4.528 125.813  0.00  0.00    +0.174 C 
ATOM     10  C   LIG A   1      -7.520   3.463 124.721  0.00  0.00    +0.194 C 
ATOM     11  C   LIG A   1      -8.098   2.278 125.394  0.00  0.00    +0.077 C 
ATOM     12  C   LIG A   1      -6.862   1.810 126.169  0.00  0.00    +0.005 C 
ATOM     13  C   LIG A   1      -6.517   0.345 125.909  0.00  0.00    +0.001 C 
ATOM     14  C   LIG A   1      -6.160   0.211 124.444  0.00  0.00    +0.005 C 
ATOM     15  C   LIG A   1      -7.431  -0.033 123.635  0.00  0.00    +0.007 C 
ATOM     16  C   LIG A   1      -5.653   2.655 125.699  0.00  0.00    +0.171 C 
ATOM     17  O   LIG A   1      -6.131   3.253 124.502  0.00  0.00    -0.346 OA
ATOM     18  C   LIG A   1      -6.224  -2.885 124.952  0.00  0.00    +0.078 C 
ATOM     19  C   LIG A   1      -5.695  -2.635 123.546  0.00  0.00    +0.134 C 
ATOM     20  C   LIG A   1      -6.649  -1.999 122.626  0.00  0.00    +0.081 C 
ATOM     21  O   LIG A   1      -4.516  -2.915 123.172  0.00  0.00    -0.297 OA
ENDROOT
BRANCH  10  22
ATOM     22  O   LIG A   1      -8.189   3.712 123.499  0.00  0.00    -0.363 OA
ATOM     23  H   LIG A   1      -7.653   4.382 123.032  0.00  0.00    +0.213 HD
ENDBRANCH  10  22
BRANCH   9  24
ATOM     24  O   LIG A   1      -9.032   5.103 125.562  0.00  0.00    -0.387 OA
ATOM     25  H   LIG A   1      -9.647   4.559 126.112  0.00  0.00    +0.210 HD
ENDBRANCH   9  24
TORSDOF 2
ENDMDL
MODEL 3
REMARK VINA RESULT:      -7.6      2.475      4.184
REMARK  Name = NuBBE_989
REMARK  3 active torsions:
REMARK  status: ('A' for Active; 'I' for Inactive)
REMARK    1  A    between atoms: C_1  and  C_2
REMARK    2  A    between atoms: C_9  and  O_20
REMARK    3  A    between atoms: C_11  and  O_19
REMARK                            x       y       z     vdW  Elec       q    Type
REMARK                         _______ _______ _______ _____ _____    ______ ____
ROOT
ATOM      1  C   LIG A   1      -9.414   0.544 124.783  0.00  0.00    +0.012 C 
ATOM      2  C   LIG A   1      -8.283  -0.500 124.718  0.00  0.00    -0.022 C 
ATOM      3  C   LIG A   1      -8.785  -2.059 124.838  0.00  0.00    +0.006 C 
ATOM      4  C   LIG A   1      -8.568  -2.614 126.475  0.00  0.00    -0.003 C 
ATOM      5  C   LIG A   1      -9.088  -3.816 127.369  0.00  0.00    +0.004 C 
ATOM      6  C   LIG A   1      -8.735  -3.604 128.987  0.00  0.00    +0.004 C 
ATOM      7  C   LIG A   1      -7.236  -3.241 129.359  0.00  0.00    +0.001 C 
ATOM      8  C   LIG A   1      -6.800  -2.469 130.810  0.00  0.00    +0.041 C 
ATOM      9  C   LIG A   1      -6.134  -0.939 130.755  0.00  0.00    +0.174 C 
ATOM     10  C   LIG A   1      -6.130  -0.347 129.333  0.00  0.00    +0.194 C 
ATOM     11  C   LIG A   1      -7.357  -0.969 128.788  0.00  0.00    +0.077 C 
ATOM     12  C   LIG A   1      -6.762  -2.291 128.294  0.00  0.00    +0.005 C 
ATOM     13  C   LIG A   1      -7.077  -2.572 126.825  0.00  0.00    +0.001 C 
ATOM     14  C   LIG A   1      -6.416  -1.488 125.999  0.00  0.00    +0.005 C 
ATOM     15  C   LIG A   1      -7.362  -0.295 125.885  0.00  0.00    +0.007 C 
ATOM     16  C   LIG A   1      -5.221  -2.200 128.421  0.00  0.00    +0.171 C 
ATOM     17  O   LIG A   1      -4.999  -0.809 128.604  0.00  0.00    -0.346 OA
ATOM     18  C   LIG A   1      -8.051  -2.656 123.588  0.00  0.00    +0.078 C 
ATOM     19  C   LIG A   1      -7.087  -1.604 123.057  0.00  0.00    +0.134 C 
ATOM     20  C   LIG A   1      -7.327  -0.237 123.542  0.00  0.00    +0.081 C 
ATOM     21  O   LIG A   1      -6.122  -1.859 122.275  0.00  0.00    -0.297 OA
ENDROOT
BRANCH  10  22
ATOM     22  O   LIG A   1      -6.223   1.064 129.272  0.00  0.00    -0.363 OA
ATOM     23  H   LIG A   1      -5.304   1.396 129.306  0.00  0.00    +0.213 HD
ENDBRANCH  10  22
BRANCH   9  24
ATOM     24  O   LIG A   1      -6.879  -0.021 131.572  0.00  0.00    -0.387 OA
ATOM     25  H   LIG A   1      -6.778   0.847 131.111  0.00  0.00    +0.210 HD
ENDBRANCH   9  24
TORSDOF 2
ENDMDL
MODEL 4
REMARK VINA RESULT:      -7.5      3.259      5.970
REMARK  Name = NuBBE_989
REMARK  3 active torsions:
REMARK  status: ('A' for Active; 'I' for Inactive)
REMARK    1  A    between atoms: C_1  and  C_2
REMARK    2  A    between atoms: C_9  and  O_20
REMARK    3  A    between atoms: C_11  and  O_19
REMARK                            x       y       z     vdW  Elec       q    Type
REMARK                         _______ _______ _______ _____ _____    ______ ____
ROOT
ATOM      1  C   LIG A   1      -4.149  -3.905 129.826  0.00  0.00    +0.012 C 
ATOM      2  C   LIG A   1      -5.286  -2.932 130.191  0.00  0.00    -0.022 C 
ATOM      3  C   LIG A   1      -6.769  -3.627 130.306  0.00  0.00    +0.006 C 
ATOM      4  C   LIG A   1      -7.650  -3.362 128.827  0.00  0.00    -0.003 C 
ATOM      5  C   LIG A   1      -8.932  -3.969 128.117  0.00  0.00    +0.004 C 
ATOM      6  C   LIG A   1      -9.079  -3.468 126.531  0.00  0.00    +0.004 C 
ATOM      7  C   LIG A   1      -8.971  -1.910 126.252  0.00  0.00    +0.001 C 
ATOM      8  C   LIG A   1      -8.549  -1.264 124.736  0.00  0.00    +0.041 C 
ATOM      9  C   LIG A   1      -7.126  -0.406 124.580  0.00  0.00    +0.174 C 
ATOM     10  C   LIG A   1      -6.276  -0.431 125.864  0.00  0.00    +0.194 C 
ATOM     11  C   LIG A   1      -6.634  -1.769 126.387  0.00  0.00    +0.077 C 
ATOM     12  C   LIG A   1      -7.897  -1.395 127.170  0.00  0.00    +0.005 C 
ATOM     13  C   LIG A   1      -7.851  -1.856 128.626  0.00  0.00    +0.001 C 
ATOM     14  C   LIG A   1      -6.713  -1.122 129.304  0.00  0.00    +0.005 C 
ATOM     15  C   LIG A   1      -5.418  -1.905 129.105  0.00  0.00    +0.007 C 
ATOM     16  C   LIG A   1      -8.013   0.149 127.183  0.00  0.00    +0.171 C 
ATOM     17  O   LIG A   1      -6.718   0.568 126.774  0.00  0.00    -0.346 OA
ATOM     18  C   LIG A   1      -7.197  -3.078 131.710  0.00  0.00    +0.078 C 
ATOM     19  C   LIG A   1      -6.183  -2.025 132.136  0.00  0.00    +0.134 C 
ATOM     20  C   LIG A   1      -4.916  -2.042 131.390  0.00  0.00    +0.081 C 
ATOM     21  O   LIG A   1      -6.394  -1.165 133.044  0.00  0.00    -0.297 OA
ENDROOT
BRANCH  10  22
ATOM     22  O   LIG A   1      -4.878  -0.340 125.659  0.00  0.00    -0.363 OA
ATOM     23  H   LIG A   1      -4.752   0.343 124.972  0.00  0.00    +0.213 HD
ENDBRANCH  10  22
BRANCH   9  24
ATOM     24  O   LIG A   1      -6.302  -0.958 123.540  0.00  0.00    -0.387 OA
ATOM     25  H   LIG A   1      -6.881  -1.629 123.104  0.00  0.00    +0.210 HD
ENDBRANCH   9  24
TORSDOF 2
ENDMDL
MODEL 5
REMARK VINA RESULT:      -7.3      2.154      5.785
REMARK  Name = NuBBE_989
REMARK  3 active torsions:
REMARK  status: ('A' for Active; 'I' for Inactive)
REMARK    1  A    between atoms: C_1  and  C_2
REMARK    2  A    between atoms: C_9  and  O_20
REMARK    3  A    between atoms: C_11  and  O_19
REMARK                            x       y       z     vdW  Elec       q    Type
REMARK                         _______ _______ _______ _____ _____    ______ ____
ROOT
ATOM      1  C   LIG A   1      -7.901  -3.149 130.203  0.00  0.00    +0.012 C 
ATOM      2  C   LIG A   1      -6.811  -2.376 129.436  0.00  0.00    -0.022 C 
ATOM      3  C   LIG A   1      -7.005  -0.746 129.432  0.00  0.00    +0.006 C 
ATOM      4  C   LIG A   1      -7.747  -0.254 127.935  0.00  0.00    -0.003 C 
ATOM      5  C   LIG A   1      -8.492   1.032 127.379  0.00  0.00    +0.004 C 
ATOM      6  C   LIG A   1      -9.250   0.746 125.919  0.00  0.00    +0.004 C 
ATOM      7  C   LIG A   1      -8.385   0.064 124.776  0.00  0.00    +0.001 C 
ATOM      8  C   LIG A   1      -9.072  -0.786 123.473  0.00  0.00    +0.041 C 
ATOM      9  C   LIG A   1      -8.786  -2.424 123.324  0.00  0.00    +0.174 C 
ATOM     10  C   LIG A   1      -8.011  -3.001 124.524  0.00  0.00    +0.194 C 
ATOM     11  C   LIG A   1      -8.516  -2.126 125.605  0.00  0.00    +0.077 C 
ATOM     12  C   LIG A   1      -7.527  -0.964 125.461  0.00  0.00    +0.005 C 
ATOM     13  C   LIG A   1      -6.820  -0.619 126.771  0.00  0.00    +0.001 C 
ATOM     14  C   LIG A   1      -5.990  -1.820 127.173  0.00  0.00    +0.005 C 
ATOM     15  C   LIG A   1      -6.853  -2.779 127.991  0.00  0.00    +0.007 C 
ATOM     16  C   LIG A   1      -6.434  -1.388 124.450  0.00  0.00    +0.171 C 
ATOM     17  O   LIG A   1      -6.614  -2.795 124.360  0.00  0.00    -0.346 OA
ATOM     18  C   LIG A   1      -5.570  -0.321 129.898  0.00  0.00    +0.078 C 
ATOM     19  C   LIG A   1      -4.681  -1.557 129.882  0.00  0.00    +0.134 C 
ATOM     20  C   LIG A   1      -5.397  -2.839 129.827  0.00  0.00    +0.081 C 
ATOM     21  O   LIG A   1      -3.413  -1.518 129.886  0.00  0.00    -0.297 OA
ENDROOT
BRANCH  10  22
ATOM     22  O   LIG A   1      -8.287  -4.358 124.818  0.00  0.00    -0.363 OA
ATOM     23  H   LIG A   1      -7.599  -4.877 124.359  0.00  0.00    +0.213 HD
ENDBRANCH  10  22
BRANCH   9  24
ATOM     24  O   LIG A   1     -10.019  -3.158 123.249  0.00  0.00    -0.387 OA
ATOM     25  H   LIG A   1     -10.714  -2.482 123.441  0.00  0.00    +0.210 HD
ENDBRANCH   9  24
TORSDOF 2
ENDMDL
MODEL 6
REMARK VINA RESULT:      -7.2      2.370      5.729
REMARK  Name = NuBBE_989
REMARK  3 active torsions:
REMARK  status: ('A' for Active; 'I' for Inactive)
REMARK    1  A    between atoms: C_1  and  C_2
REMARK    2  A    between atoms: C_9  and  O_20
REMARK    3  A    between atoms: C_11  and  O_19
REMARK                            x       y       z     vdW  Elec       q    Type
REMARK                         _______ _______ _______ _____ _____    ______ ____
ROOT
ATOM      1  C   LIG A   1      -8.253  -1.173 130.062  0.00  0.00    +0.012 C 
ATOM      2  C   LIG A   1      -7.094  -1.923 129.379  0.00  0.00    -0.022 C 
ATOM      3  C   LIG A   1      -5.823  -0.974 128.955  0.00  0.00    +0.006 C 
ATOM      4  C   LIG A   1      -5.939  -0.572 127.264  0.00  0.00    -0.003 C 
ATOM      5  C   LIG A   1      -5.301   0.498 126.281  0.00  0.00    +0.004 C 
ATOM      6  C   LIG A   1      -6.077   0.547 124.804  0.00  0.00    +0.004 C 
ATOM      7  C   LIG A   1      -6.297  -0.836 124.057  0.00  0.00    +0.001 C 
ATOM      8  C   LIG A   1      -7.498  -1.072 122.875  0.00  0.00    +0.041 C 
ATOM      9  C   LIG A   1      -8.740  -2.145 123.174  0.00  0.00    +0.174 C 
ATOM     10  C   LIG A   1      -8.706  -2.704 124.609  0.00  0.00    +0.194 C 
ATOM     11  C   LIG A   1      -8.137  -1.542 125.328  0.00  0.00    +0.077 C 
ATOM     12  C   LIG A   1      -6.647  -1.835 125.125  0.00  0.00    +0.005 C 
ATOM     13  C   LIG A   1      -5.862  -1.858 126.435  0.00  0.00    +0.001 C 
ATOM     14  C   LIG A   1      -6.397  -3.003 127.270  0.00  0.00    +0.005 C 
ATOM     15  C   LIG A   1      -7.588  -2.515 128.091  0.00  0.00    +0.007 C 
ATOM     16  C   LIG A   1      -6.517  -3.241 124.489  0.00  0.00    +0.171 C 
ATOM     17  O   LIG A   1      -7.807  -3.802 124.695  0.00  0.00    -0.346 OA
ATOM     18  C   LIG A   1      -4.662  -1.809 129.596  0.00  0.00    +0.078 C 
ATOM     19  C   LIG A   1      -5.233  -3.144 130.053  0.00  0.00    +0.134 C 
ATOM     20  C   LIG A   1      -6.699  -3.193 130.151  0.00  0.00    +0.081 C 
ATOM     21  O   LIG A   1      -4.527  -4.166 130.311  0.00  0.00    -0.297 OA
ENDROOT
BRANCH  10  22
ATOM     22  O   LIG A   1      -9.969  -3.048 125.149  0.00  0.00    -0.363 OA
ATOM     23  H   LIG A   1      -9.952  -2.753 126.080  0.00  0.00    +0.213 HD
ENDBRANCH  10  22
BRANCH   9  24
ATOM     24  O   LIG A   1     -10.020  -1.510 123.019  0.00  0.00    -0.387 OA
ATOM     25  H   LIG A   1      -9.839  -0.748 122.417  0.00  0.00    +0.210 HD
ENDBRANCH   9  24
TORSDOF 2
ENDMDL
MODEL 7
REMARK VINA RESULT:      -7.2      2.237      3.852
REMARK  Name = NuBBE_989
REMARK  3 active torsions:
REMARK  status: ('A' for Active; 'I' for Inactive)
REMARK    1  A    between atoms: C_1  and  C_2
REMARK    2  A    between atoms: C_9  and  O_20
REMARK    3  A    between atoms: C_11  and  O_19
REMARK                            x       y       z     vdW  Elec       q    Type
REMARK                         _______ _______ _______ _____ _____    ______ ____
ROOT
ATOM      1  C   LIG A   1      -9.064  -1.986 123.262  0.00  0.00    +0.012 C 
ATOM      2  C   LIG A   1      -7.666  -2.039 123.908  0.00  0.00    -0.022 C 
ATOM      3  C   LIG A   1      -7.457  -3.259 124.985  0.00  0.00    +0.006 C 
ATOM      4  C   LIG A   1      -7.666  -2.647 126.603  0.00  0.00    -0.003 C 
ATOM      5  C   LIG A   1      -7.920  -3.251 128.047  0.00  0.00    +0.004 C 
ATOM      6  C   LIG A   1      -8.339  -2.082 129.162  0.00  0.00    +0.004 C 
ATOM      7  C   LIG A   1      -7.407  -0.800 129.250  0.00  0.00    +0.001 C 
ATOM      8  C   LIG A   1      -7.933   0.690 129.880  0.00  0.00    +0.041 C 
ATOM      9  C   LIG A   1      -8.019   2.019 128.875  0.00  0.00    +0.174 C 
ATOM     10  C   LIG A   1      -7.727   1.667 127.404  0.00  0.00    +0.194 C 
ATOM     11  C   LIG A   1      -8.259   0.287 127.355  0.00  0.00    +0.077 C 
ATOM     12  C   LIG A   1      -7.017  -0.471 127.835  0.00  0.00    +0.005 C 
ATOM     13  C   LIG A   1      -6.595  -1.586 126.880  0.00  0.00    +0.001 C 
ATOM     14  C   LIG A   1      -6.202  -0.942 125.567  0.00  0.00    +0.005 C 
ATOM     15  C   LIG A   1      -7.444  -0.780 124.694  0.00  0.00    +0.007 C 
ATOM     16  C   LIG A   1      -5.842   0.534 127.911  0.00  0.00    +0.171 C 
ATOM     17  O   LIG A   1      -6.325   1.644 127.166  0.00  0.00    -0.346 OA
ATOM     18  C   LIG A   1      -6.124  -3.864 124.426  0.00  0.00    +0.078 C 
ATOM     19  C   LIG A   1      -5.580  -2.914 123.367  0.00  0.00    +0.134 C 
ATOM     20  C   LIG A   1      -6.546  -1.929 122.859  0.00  0.00    +0.081 C 
ATOM     21  O   LIG A   1      -4.382  -2.927 122.952  0.00  0.00    -0.297 OA
ENDROOT
BRANCH  10  22
ATOM     22  O   LIG A   1      -8.383   2.483 126.451  0.00  0.00    -0.363 OA
ATOM     23  H   LIG A   1      -9.339   2.335 126.584  0.00  0.00    +0.213 HD
ENDBRANCH  10  22
BRANCH   9  24
ATOM     24  O   LIG A   1      -9.334   2.599 128.897  0.00  0.00    -0.387 OA
ATOM     25  H   LIG A   1      -9.173   3.564 128.757  0.00  0.00    +0.210 HD
ENDBRANCH   9  24
TORSDOF 2
ENDMDL
MODEL 8
REMARK VINA RESULT:      -7.1      6.881      9.282
REMARK  Name = NuBBE_989
REMARK  3 active torsions:
REMARK  status: ('A' for Active; 'I' for Inactive)
REMARK    1  A    between atoms: C_1  and  C_2
REMARK    2  A    between atoms: C_9  and  O_20
REMARK    3  A    between atoms: C_11  and  O_19
REMARK                            x       y       z     vdW  Elec       q    Type
REMARK                         _______ _______ _______ _____ _____    ______ ____
ROOT
ATOM      1  C   LIG A   1      -4.193   2.229 130.576  0.00  0.00    +0.012 C 
ATOM      2  C   LIG A   1      -4.203   3.765 130.691  0.00  0.00    -0.022 C 
ATOM      3  C   LIG A   1      -4.063   4.337 132.223  0.00  0.00    +0.006 C 
ATOM      4  C   LIG A   1      -5.642   4.750 132.834  0.00  0.00    -0.003 C 
ATOM      5  C   LIG A   1      -6.298   5.037 134.249  0.00  0.00    +0.004 C 
ATOM      6  C   LIG A   1      -7.966   5.080 134.180  0.00  0.00    +0.004 C 
ATOM      7  C   LIG A   1      -8.620   6.000 133.065  0.00  0.00    +0.001 C 
ATOM      8  C   LIG A   1     -10.200   5.769 132.480  0.00  0.00    +0.041 C 
ATOM      9  C   LIG A   1     -10.427   5.340 130.883  0.00  0.00    +0.174 C 
ATOM     10  C   LIG A   1      -9.100   5.062 130.151  0.00  0.00    +0.194 C 
ATOM     11  C   LIG A   1      -8.293   4.526 131.270  0.00  0.00    +0.077 C 
ATOM     12  C   LIG A   1      -7.761   5.845 131.840  0.00  0.00    +0.005 C 
ATOM     13  C   LIG A   1      -6.238   5.865 131.969  0.00  0.00    +0.001 C 
ATOM     14  C   LIG A   1      -5.659   5.756 130.573  0.00  0.00    +0.005 C 
ATOM     15  C   LIG A   1      -5.522   4.283 130.198  0.00  0.00    +0.007 C 
ATOM     16  C   LIG A   1      -8.152   6.982 130.865  0.00  0.00    +0.171 C 
ATOM     17  O   LIG A   1      -8.523   6.277 129.689  0.00  0.00    -0.346 OA
ATOM     18  C   LIG A   1      -2.895   5.358 132.006  0.00  0.00    +0.078 C 
ATOM     19  C   LIG A   1      -2.652   5.489 130.508  0.00  0.00    +0.134 C 
ATOM     20  C   LIG A   1      -3.239   4.420 129.687  0.00  0.00    +0.081 C 
ATOM     21  O   LIG A   1      -2.018   6.449 129.974  0.00  0.00    -0.297 OA
ENDROOT
BRANCH  10  22
ATOM     22  O   LIG A   1      -9.181   4.114 129.103  0.00  0.00    -0.363 OA
ATOM     23  H   LIG A   1      -9.402   4.623 128.298  0.00  0.00    +0.213 HD
ENDBRANCH  10  22
BRANCH   9  24
ATOM     24  O   LIG A   1     -11.205   4.136 130.777  0.00  0.00    -0.387 OA
ATOM     25  H   LIG A   1     -10.529   3.418 130.711  0.00  0.00    +0.210 HD
ENDBRANCH   9  24
TORSDOF 2
ENDMDL
MODEL 9
REMARK VINA RESULT:      -7.0      2.568      5.472
REMARK  Name = NuBBE_989
REMARK  3 active torsions:
REMARK  status: ('A' for Active; 'I' for Inactive)
REMARK    1  A    between atoms: C_1  and  C_2
REMARK    2  A    between atoms: C_9  and  O_20
REMARK    3  A    between atoms: C_11  and  O_19
REMARK                            x       y       z     vdW  Elec       q    Type
REMARK                         _______ _______ _______ _____ _____    ______ ____
ROOT
ATOM      1  C   LIG A   1      -5.058   0.508 128.982  0.00  0.00    +0.012 C 
ATOM      2  C   LIG A   1      -5.906  -0.773 128.873  0.00  0.00    -0.022 C 
ATOM      3  C   LIG A   1      -5.157  -2.026 128.123  0.00  0.00    +0.006 C 
ATOM      4  C   LIG A   1      -5.677  -2.102 126.462  0.00  0.00    -0.003 C 
ATOM      5  C   LIG A   1      -5.180  -2.792 125.123  0.00  0.00    +0.004 C 
ATOM      6  C   LIG A   1      -5.974  -2.209 123.774  0.00  0.00    +0.004 C 
ATOM      7  C   LIG A   1      -7.559  -2.172 123.828  0.00  0.00    +0.001 C 
ATOM      8  C   LIG A   1      -8.499  -1.149 122.846  0.00  0.00    +0.041 C 
ATOM      9  C   LIG A   1      -9.414   0.052 123.556  0.00  0.00    +0.174 C 
ATOM     10  C   LIG A   1      -9.166   0.167 125.072  0.00  0.00    +0.194 C 
ATOM     11  C   LIG A   1      -7.743  -0.233 125.134  0.00  0.00    +0.077 C 
ATOM     12  C   LIG A   1      -7.919  -1.752 125.226  0.00  0.00    +0.005 C 
ATOM     13  C   LIG A   1      -7.186  -2.364 126.420  0.00  0.00    +0.001 C 
ATOM     14  C   LIG A   1      -7.810  -1.799 127.679  0.00  0.00    +0.005 C 
ATOM     15  C   LIG A   1      -7.120  -0.485 128.038  0.00  0.00    +0.007 C 
ATOM     16  C   LIG A   1      -9.427  -2.049 125.415  0.00  0.00    +0.171 C 
ATOM     17  O   LIG A   1      -9.956  -0.781 125.778  0.00  0.00    -0.346 OA
ATOM     18  C   LIG A   1      -5.411  -3.146 129.189  0.00  0.00    +0.078 C 
ATOM     19  C   LIG A   1      -6.392  -2.605 130.221  0.00  0.00    +0.134 C 
ATOM     20  C   LIG A   1      -6.558  -1.145 130.216  0.00  0.00    +0.081 C 
ATOM     21  O   LIG A   1      -7.053  -3.335 131.020  0.00  0.00    -0.297 OA
ENDROOT
BRANCH  10  22
ATOM     22  O   LIG A   1      -9.339   1.464 125.611  0.00  0.00    -0.363 OA
ATOM     23  H   LIG A   1      -8.764   2.052 125.083  0.00  0.00    +0.213 HD
ENDBRANCH  10  22
BRANCH   9  24
ATOM     24  O   LIG A   1      -9.100   1.339 122.998  0.00  0.00    -0.387 OA
ATOM     25  H   LIG A   1      -9.838   1.921 123.305  0.00  0.00    +0.210 HD
ENDBRANCH   9  24
TORSDOF 2
ENDMDL
