MODEL 1
REMARK VINA RESULT:      -7.1      0.000      0.000
REMARK  Name = NuBBE_2266
REMARK  7 active torsions:
REMARK  status: ('A' for Active; 'I' for Inactive)
REMARK    1  A    between atoms: C_2  and  C_4
REMARK    2  A    between atoms: C_4  and  C_5
REMARK    3  A    between atoms: C_4  and  C_6
REMARK    4  A    between atoms: C_4  and  O_7
REMARK    5  A    between atoms: C_8  and  O_18
REMARK    6  A    between atoms: C_12  and  C_17
REMARK    7  A    between atoms: C_15  and  C_16
REMARK                            x       y       z     vdW  Elec       q    Type
REMARK                         _______ _______ _______ _____ _____    ______ ____
ROOT
ATOM      1  C   LIG A   1      -6.337   3.473 123.019  0.00  0.00    +0.044 C 
ATOM      2  C   LIG A   1      -7.669   3.199 123.754  0.00  0.00    +0.053 C 
ATOM      3  C   LIG A   1      -8.571   2.381 122.818  0.00  0.00    +0.125 C 
ATOM      4  C   LIG A   1      -8.874   3.162 121.532  0.00  0.00    +0.067 C 
ATOM      5  C   LIG A   1      -7.677   3.808 120.876  0.00  0.00    -0.039 A 
ATOM      6  C   LIG A   1      -6.471   3.979 121.594  0.00  0.00    -0.041 A 
ATOM      7  C   LIG A   1      -5.355   4.571 120.957  0.00  0.00    -0.047 A 
ATOM      8  C   LIG A   1      -5.476   5.031 119.641  0.00  0.00    +0.004 A 
ATOM      9  C   LIG A   1      -6.673   4.893 118.947  0.00  0.00    +0.004 A 
ATOM     10  C   LIG A   1      -7.783   4.292 119.551  0.00  0.00    -0.047 A 
ATOM     11  C   LIG A   1      -9.052   4.157 118.753  0.00  0.00    +0.044 C 
ATOM     12  C   LIG A   1      -4.036   4.746 121.662  0.00  0.00    +0.044 C 
ENDROOT
BRANCH   2  13
ATOM     13  C   LIG A   1      -7.426   2.582 125.170  0.00  0.00    +0.066 C 
ATOM     14  C   LIG A   1      -6.941   1.125 125.118  0.00  0.00    +0.041 C 
ATOM     15  C   LIG A   1      -6.467   3.398 126.044  0.00  0.00    +0.041 C 
BRANCH  13  16
ATOM     16  O   LIG A   1      -8.684   2.552 125.869  0.00  0.00    -0.389 OA
ATOM     17  H   LIG A   1      -9.332   2.100 125.302  0.00  0.00    +0.210 HD
ENDBRANCH  13  16
ENDBRANCH   2  13
BRANCH   3  18
ATOM     18  O   LIG A   1      -9.811   2.045 123.435  0.00  0.00    -0.391 OA
ATOM     19  H   LIG A   1     -10.374   2.838 123.443  0.00  0.00    +0.210 HD
ENDBRANCH   3  18
TORSDOF 3
ENDMDL
MODEL 2
REMARK VINA RESULT:      -6.8      8.924     10.799
REMARK  Name = NuBBE_2266
REMARK  7 active torsions:
REMARK  status: ('A' for Active; 'I' for Inactive)
REMARK    1  A    between atoms: C_2  and  C_4
REMARK    2  A    between atoms: C_4  and  C_5
REMARK    3  A    between atoms: C_4  and  C_6
REMARK    4  A    between atoms: C_4  and  O_7
REMARK    5  A    between atoms: C_8  and  O_18
REMARK    6  A    between atoms: C_12  and  C_17
REMARK    7  A    between atoms: C_15  and  C_16
REMARK                            x       y       z     vdW  Elec       q    Type
REMARK                         _______ _______ _______ _____ _____    ______ ____
ROOT
ATOM      1  C   LIG A   1      -8.916   7.222 130.452  0.00  0.00    +0.044 C 
ATOM      2  C   LIG A   1     -10.365   6.693 130.351  0.00  0.00    +0.053 C 
ATOM      3  C   LIG A   1     -10.939   6.598 131.773  0.00  0.00    +0.125 C 
ATOM      4  C   LIG A   1     -10.121   5.622 132.627  0.00  0.00    +0.067 C 
ATOM      5  C   LIG A   1      -8.623   5.795 132.545  0.00  0.00    -0.039 A 
ATOM      6  C   LIG A   1      -8.045   6.540 131.491  0.00  0.00    -0.041 A 
ATOM      7  C   LIG A   1      -6.640   6.705 131.439  0.00  0.00    -0.047 A 
ATOM      8  C   LIG A   1      -5.836   6.082 132.401  0.00  0.00    +0.004 A 
ATOM      9  C   LIG A   1      -6.405   5.321 133.417  0.00  0.00    +0.004 A 
ATOM     10  C   LIG A   1      -7.792   5.162 133.498  0.00  0.00    -0.047 A 
ATOM     11  C   LIG A   1      -8.358   4.338 134.624  0.00  0.00    +0.044 C 
ATOM     12  C   LIG A   1      -5.973   7.517 130.361  0.00  0.00    +0.044 C 
ENDROOT
BRANCH   2  13
ATOM     13  C   LIG A   1     -11.211   7.528 129.334  0.00  0.00    +0.066 C 
ATOM     14  C   LIG A   1     -10.351   8.406 128.413  0.00  0.00    +0.041 C 
ATOM     15  C   LIG A   1     -12.159   6.682 128.478  0.00  0.00    +0.041 C 
BRANCH  13  16
ATOM     16  O   LIG A   1     -12.041   8.436 130.081  0.00  0.00    -0.389 OA
ATOM     17  H   LIG A   1     -11.857   9.338 129.767  0.00  0.00    +0.210 HD
ENDBRANCH  13  16
ENDBRANCH   2  13
BRANCH   3  18
ATOM     18  O   LIG A   1     -12.295   6.158 131.771  0.00  0.00    -0.391 OA
ATOM     19  H   LIG A   1     -12.818   6.775 132.310  0.00  0.00    +0.210 HD
ENDBRANCH   3  18
TORSDOF 3
ENDMDL
MODEL 3
REMARK VINA RESULT:      -6.4      2.868      5.937
REMARK  Name = NuBBE_2266
REMARK  7 active torsions:
REMARK  status: ('A' for Active; 'I' for Inactive)
REMARK    1  A    between atoms: C_2  and  C_4
REMARK    2  A    between atoms: C_4  and  C_5
REMARK    3  A    between atoms: C_4  and  C_6
REMARK    4  A    between atoms: C_4  and  O_7
REMARK    5  A    between atoms: C_8  and  O_18
REMARK    6  A    between atoms: C_12  and  C_17
REMARK    7  A    between atoms: C_15  and  C_16
REMARK                            x       y       z     vdW  Elec       q    Type
REMARK                         _______ _______ _______ _____ _____    ______ ____
ROOT
ATOM      1  C   LIG A   1      -6.867   0.727 124.466  0.00  0.00    +0.044 C 
ATOM      2  C   LIG A   1      -7.494   1.460 123.257  0.00  0.00    +0.053 C 
ATOM      3  C   LIG A   1      -8.983   1.091 123.196  0.00  0.00    +0.125 C 
ATOM      4  C   LIG A   1      -9.164  -0.419 122.999  0.00  0.00    +0.067 C 
ATOM      5  C   LIG A   1      -8.318  -1.290 123.897  0.00  0.00    -0.039 A 
ATOM      6  C   LIG A   1      -7.205  -0.747 124.580  0.00  0.00    -0.041 A 
ATOM      7  C   LIG A   1      -6.435  -1.575 125.431  0.00  0.00    -0.047 A 
ATOM      8  C   LIG A   1      -6.751  -2.934 125.543  0.00  0.00    +0.004 A 
ATOM      9  C   LIG A   1      -7.825  -3.474 124.843  0.00  0.00    +0.004 A 
ATOM     10  C   LIG A   1      -8.612  -2.669 124.013  0.00  0.00    -0.047 A 
ATOM     11  C   LIG A   1      -9.771  -3.299 123.286  0.00  0.00    +0.044 C 
ATOM     12  C   LIG A   1      -5.261  -1.043 126.210  0.00  0.00    +0.044 C 
ENDROOT
BRANCH   2  13
ATOM     13  C   LIG A   1      -7.176   2.991 123.288  0.00  0.00    +0.066 C 
ATOM     14  C   LIG A   1      -6.199   3.382 124.407  0.00  0.00    +0.041 C 
ATOM     15  C   LIG A   1      -6.657   3.541 121.954  0.00  0.00    +0.041 C 
BRANCH  13  16
ATOM     16  O   LIG A   1      -8.398   3.697 123.569  0.00  0.00    -0.389 OA
ATOM     17  H   LIG A   1      -8.362   4.007 124.489  0.00  0.00    +0.210 HD
ENDBRANCH  13  16
ENDBRANCH   2  13
BRANCH   3  18
ATOM     18  O   LIG A   1      -9.653   1.761 122.130  0.00  0.00    -0.391 OA
ATOM     19  H   LIG A   1      -9.063   1.773 121.358  0.00  0.00    +0.210 HD
ENDBRANCH   3  18
TORSDOF 3
ENDMDL
MODEL 4
REMARK VINA RESULT:      -6.3      2.946      4.908
REMARK  Name = NuBBE_2266
REMARK  7 active torsions:
REMARK  status: ('A' for Active; 'I' for Inactive)
REMARK    1  A    between atoms: C_2  and  C_4
REMARK    2  A    between atoms: C_4  and  C_5
REMARK    3  A    between atoms: C_4  and  C_6
REMARK    4  A    between atoms: C_4  and  O_7
REMARK    5  A    between atoms: C_8  and  O_18
REMARK    6  A    between atoms: C_12  and  C_17
REMARK    7  A    between atoms: C_15  and  C_16
REMARK                            x       y       z     vdW  Elec       q    Type
REMARK                         _______ _______ _______ _____ _____    ______ ____
ROOT
ATOM      1  C   LIG A   1      -7.269  -0.577 125.485  0.00  0.00    +0.044 C 
ATOM      2  C   LIG A   1      -8.614  -1.215 125.069  0.00  0.00    +0.053 C 
ATOM      3  C   LIG A   1      -8.778  -1.037 123.552  0.00  0.00    +0.125 C 
ATOM      4  C   LIG A   1      -8.807   0.451 123.178  0.00  0.00    +0.067 C 
ATOM      5  C   LIG A   1      -7.729   1.294 123.816  0.00  0.00    -0.039 A 
ATOM      6  C   LIG A   1      -7.010   0.813 124.934  0.00  0.00    -0.041 A 
ATOM      7  C   LIG A   1      -5.991   1.611 125.507  0.00  0.00    -0.047 A 
ATOM      8  C   LIG A   1      -5.746   2.890 124.995  0.00  0.00    +0.004 A 
ATOM      9  C   LIG A   1      -6.478   3.376 123.917  0.00  0.00    +0.004 A 
ATOM     10  C   LIG A   1      -7.476   2.596 123.322  0.00  0.00    -0.047 A 
ATOM     11  C   LIG A   1      -8.232   3.163 122.150  0.00  0.00    +0.044 C 
ATOM     12  C   LIG A   1      -5.170   1.134 126.676  0.00  0.00    +0.044 C 
ENDROOT
BRANCH   2  13
ATOM     13  C   LIG A   1      -8.740  -2.683 125.596  0.00  0.00    +0.066 C 
ATOM     14  C   LIG A   1      -7.977  -3.700 124.734  0.00  0.00    +0.041 C 
ATOM     15  C   LIG A   1      -8.321  -2.852 127.060  0.00  0.00    +0.041 C 
BRANCH  13  16
ATOM     16  O   LIG A   1     -10.125  -3.068 125.524  0.00  0.00    -0.389 OA
ATOM     17  H   LIG A   1     -10.349  -3.539 126.344  0.00  0.00    +0.210 HD
ENDBRANCH  13  16
ENDBRANCH   2  13
BRANCH   3  18
ATOM     18  O   LIG A   1      -9.980  -1.638 123.074  0.00  0.00    -0.391 OA
ATOM     19  H   LIG A   1      -9.754  -2.495 122.673  0.00  0.00    +0.210 HD
ENDBRANCH   3  18
TORSDOF 3
ENDMDL
MODEL 5
REMARK VINA RESULT:      -6.3      4.965      8.677
REMARK  Name = NuBBE_2266
REMARK  7 active torsions:
REMARK  status: ('A' for Active; 'I' for Inactive)
REMARK    1  A    between atoms: C_2  and  C_4
REMARK    2  A    between atoms: C_4  and  C_5
REMARK    3  A    between atoms: C_4  and  C_6
REMARK    4  A    between atoms: C_4  and  O_7
REMARK    5  A    between atoms: C_8  and  O_18
REMARK    6  A    between atoms: C_12  and  C_17
REMARK    7  A    between atoms: C_15  and  C_16
REMARK                            x       y       z     vdW  Elec       q    Type
REMARK                         _______ _______ _______ _____ _____    ______ ____
ROOT
ATOM      1  C   LIG A   1      -6.811  -1.866 125.636  0.00  0.00    +0.044 C 
ATOM      2  C   LIG A   1      -7.569  -2.440 124.416  0.00  0.00    +0.053 C 
ATOM      3  C   LIG A   1      -9.069  -2.442 124.745  0.00  0.00    +0.125 C 
ATOM      4  C   LIG A   1      -9.359  -3.330 125.962  0.00  0.00    +0.067 C 
ATOM      5  C   LIG A   1      -8.439  -3.124 127.141  0.00  0.00    -0.039 A 
ATOM      6  C   LIG A   1      -7.209  -2.445 126.981  0.00  0.00    -0.041 A 
ATOM      7  C   LIG A   1      -6.368  -2.246 128.101  0.00  0.00    -0.047 A 
ATOM      8  C   LIG A   1      -6.738  -2.773 129.344  0.00  0.00    +0.004 A 
ATOM      9  C   LIG A   1      -7.932  -3.471 129.492  0.00  0.00    +0.004 A 
ATOM     10  C   LIG A   1      -8.788  -3.661 128.403  0.00  0.00    -0.047 A 
ATOM     11  C   LIG A   1     -10.074  -4.413 128.619  0.00  0.00    +0.044 C 
ATOM     12  C   LIG A   1      -5.064  -1.500 127.995  0.00  0.00    +0.044 C 
ENDROOT
BRANCH   2  13
ATOM     13  C   LIG A   1      -7.166  -1.706 123.094  0.00  0.00    +0.066 C 
ATOM     14  C   LIG A   1      -7.180  -0.176 123.226  0.00  0.00    +0.041 C 
ATOM     15  C   LIG A   1      -5.812  -2.149 122.530  0.00  0.00    +0.041 C 
BRANCH  13  16
ATOM     16  O   LIG A   1      -8.147  -2.023 122.089  0.00  0.00    -0.389 OA
ATOM     17  H   LIG A   1      -8.551  -2.877 122.322  0.00  0.00    +0.210 HD
ENDBRANCH  13  16
ENDBRANCH   2  13
BRANCH   3  18
ATOM     18  O   LIG A   1      -9.851  -2.918 123.652  0.00  0.00    -0.391 OA
ATOM     19  H   LIG A   1      -9.391  -2.692 122.825  0.00  0.00    +0.210 HD
ENDBRANCH   3  18
TORSDOF 3
ENDMDL
MODEL 6
REMARK VINA RESULT:      -6.3      3.128      6.556
REMARK  Name = NuBBE_2266
REMARK  7 active torsions:
REMARK  status: ('A' for Active; 'I' for Inactive)
REMARK    1  A    between atoms: C_2  and  C_4
REMARK    2  A    between atoms: C_4  and  C_5
REMARK    3  A    between atoms: C_4  and  C_6
REMARK    4  A    between atoms: C_4  and  O_7
REMARK    5  A    between atoms: C_8  and  O_18
REMARK    6  A    between atoms: C_12  and  C_17
REMARK    7  A    between atoms: C_15  and  C_16
REMARK                            x       y       z     vdW  Elec       q    Type
REMARK                         _______ _______ _______ _____ _____    ______ ____
ROOT
ATOM      1  C   LIG A   1      -7.400   0.235 123.988  0.00  0.00    +0.044 C 
ATOM      2  C   LIG A   1      -8.349   1.212 124.721  0.00  0.00    +0.053 C 
ATOM      3  C   LIG A   1      -8.288   0.899 126.223  0.00  0.00    +0.125 C 
ATOM      4  C   LIG A   1      -8.754  -0.536 126.501  0.00  0.00    +0.067 C 
ATOM      5  C   LIG A   1      -8.162  -1.590 125.596  0.00  0.00    -0.039 A 
ATOM      6  C   LIG A   1      -7.536  -1.223 124.382  0.00  0.00    -0.041 A 
ATOM      7  C   LIG A   1      -6.972  -2.224 123.555  0.00  0.00    -0.047 A 
ATOM      8  C   LIG A   1      -7.090  -3.570 123.922  0.00  0.00    +0.004 A 
ATOM      9  C   LIG A   1      -7.737  -3.931 125.099  0.00  0.00    +0.004 A 
ATOM     10  C   LIG A   1      -8.283  -2.957 125.941  0.00  0.00    -0.047 A 
ATOM     11  C   LIG A   1      -8.963  -3.399 127.210  0.00  0.00    +0.044 C 
ATOM     12  C   LIG A   1      -6.262  -1.888 122.270  0.00  0.00    +0.044 C 
ENDROOT
BRANCH   2  13
ATOM     13  C   LIG A   1      -8.059   2.698 124.326  0.00  0.00    +0.066 C 
ATOM     14  C   LIG A   1      -6.718   3.214 124.868  0.00  0.00    +0.041 C 
ATOM     15  C   LIG A   1      -8.125   2.961 122.818  0.00  0.00    +0.041 C 
BRANCH  13  16
ATOM     16  O   LIG A   1      -9.071   3.526 124.927  0.00  0.00    -0.389 OA
ATOM     17  H   LIG A   1      -8.842   3.648 125.864  0.00  0.00    +0.210 HD
ENDBRANCH  13  16
ENDBRANCH   2  13
BRANCH   3  18
ATOM     18  O   LIG A   1      -9.104   1.786 126.984  0.00  0.00    -0.391 OA
ATOM     19  H   LIG A   1      -9.131   2.644 126.528  0.00  0.00    +0.210 HD
ENDBRANCH   3  18
TORSDOF 3
ENDMDL
MODEL 7
REMARK VINA RESULT:      -6.2      5.690      9.060
REMARK  Name = NuBBE_2266
REMARK  7 active torsions:
REMARK  status: ('A' for Active; 'I' for Inactive)
REMARK    1  A    between atoms: C_2  and  C_4
REMARK    2  A    between atoms: C_4  and  C_5
REMARK    3  A    between atoms: C_4  and  C_6
REMARK    4  A    between atoms: C_4  and  O_7
REMARK    5  A    between atoms: C_8  and  O_18
REMARK    6  A    between atoms: C_12  and  C_17
REMARK    7  A    between atoms: C_15  and  C_16
REMARK                            x       y       z     vdW  Elec       q    Type
REMARK                         _______ _______ _______ _____ _____    ______ ____
ROOT
ATOM      1  C   LIG A   1      -8.549  -2.926 125.945  0.00  0.00    +0.044 C 
ATOM      2  C   LIG A   1      -8.096  -1.862 124.919  0.00  0.00    +0.053 C 
ATOM      3  C   LIG A   1      -6.565  -1.757 124.987  0.00  0.00    +0.125 C 
ATOM      4  C   LIG A   1      -6.109  -1.315 126.383  0.00  0.00    +0.067 C 
ATOM      5  C   LIG A   1      -6.758  -2.049 127.532  0.00  0.00    -0.039 A 
ATOM      6  C   LIG A   1      -7.938  -2.800 127.328  0.00  0.00    -0.041 A 
ATOM      7  C   LIG A   1      -8.523  -3.495 128.413  0.00  0.00    -0.047 A 
ATOM      8  C   LIG A   1      -7.956  -3.385 129.688  0.00  0.00    +0.004 A 
ATOM      9  C   LIG A   1      -6.814  -2.618 129.894  0.00  0.00    +0.004 A 
ATOM     10  C   LIG A   1      -6.209  -1.940 128.832  0.00  0.00    -0.047 A 
ATOM     11  C   LIG A   1      -4.968  -1.132 129.105  0.00  0.00    +0.044 C 
ATOM     12  C   LIG A   1      -9.759  -4.338 128.246  0.00  0.00    +0.044 C 
ENDROOT
BRANCH   2  13
ATOM     13  C   LIG A   1      -8.694  -2.140 123.501  0.00  0.00    +0.066 C 
ATOM     14  C   LIG A   1      -9.637  -3.351 123.472  0.00  0.00    +0.041 C 
ATOM     15  C   LIG A   1      -9.408  -0.933 122.884  0.00  0.00    +0.041 C 
BRANCH  13  16
ATOM     16  O   LIG A   1      -7.609  -2.465 122.613  0.00  0.00    -0.389 OA
ATOM     17  H   LIG A   1      -7.537  -1.756 121.952  0.00  0.00    +0.210 HD
ENDBRANCH  13  16
ENDBRANCH   2  13
BRANCH   3  18
ATOM     18  O   LIG A   1      -6.054  -0.823 124.037  0.00  0.00    -0.391 OA
ATOM     19  H   LIG A   1      -5.418  -0.243 124.490  0.00  0.00    +0.210 HD
ENDBRANCH   3  18
TORSDOF 3
ENDMDL
MODEL 8
REMARK VINA RESULT:      -6.1      6.522      9.625
REMARK  Name = NuBBE_2266
REMARK  7 active torsions:
REMARK  status: ('A' for Active; 'I' for Inactive)
REMARK    1  A    between atoms: C_2  and  C_4
REMARK    2  A    between atoms: C_4  and  C_5
REMARK    3  A    between atoms: C_4  and  C_6
REMARK    4  A    between atoms: C_4  and  O_7
REMARK    5  A    between atoms: C_8  and  O_18
REMARK    6  A    between atoms: C_12  and  C_17
REMARK    7  A    between atoms: C_15  and  C_16
REMARK                            x       y       z     vdW  Elec       q    Type
REMARK                         _______ _______ _______ _____ _____    ______ ____
ROOT
ATOM      1  C   LIG A   1      -6.854  -3.457 129.447  0.00  0.00    +0.044 C 
ATOM      2  C   LIG A   1      -5.333  -3.316 129.687  0.00  0.00    +0.053 C 
ATOM      3  C   LIG A   1      -4.911  -1.905 129.251  0.00  0.00    +0.125 C 
ATOM      4  C   LIG A   1      -5.193  -1.687 127.759  0.00  0.00    +0.067 C 
ATOM      5  C   LIG A   1      -6.561  -2.125 127.294  0.00  0.00    -0.039 A 
ATOM      6  C   LIG A   1      -7.346  -2.990 128.090  0.00  0.00    -0.041 A 
ATOM      7  C   LIG A   1      -8.632  -3.376 127.645  0.00  0.00    -0.047 A 
ATOM      8  C   LIG A   1      -9.090  -2.940 126.396  0.00  0.00    +0.004 A 
ATOM      9  C   LIG A   1      -8.302  -2.117 125.599  0.00  0.00    +0.004 A 
ATOM     10  C   LIG A   1      -7.036  -1.707 126.028  0.00  0.00    -0.047 A 
ATOM     11  C   LIG A   1      -6.227  -0.806 125.133  0.00  0.00    +0.044 C 
ATOM     12  C   LIG A   1      -9.526  -4.267 128.467  0.00  0.00    +0.044 C 
ENDROOT
BRANCH   2  13
ATOM     13  C   LIG A   1      -4.942  -3.720 131.146  0.00  0.00    +0.066 C 
ATOM     14  C   LIG A   1      -5.438  -2.720 132.202  0.00  0.00    +0.041 C 
ATOM     15  C   LIG A   1      -5.396  -5.130 131.540  0.00  0.00    +0.041 C 
BRANCH  13  16
ATOM     16  O   LIG A   1      -3.506  -3.714 131.244  0.00  0.00    -0.389 OA
ATOM     17  H   LIG A   1      -3.146  -3.552 130.356  0.00  0.00    +0.210 HD
ENDBRANCH  13  16
ENDBRANCH   2  13
BRANCH   3  18
ATOM     18  O   LIG A   1      -3.522  -1.673 129.479  0.00  0.00    -0.391 OA
ATOM     19  H   LIG A   1      -3.019  -2.388 129.054  0.00  0.00    +0.210 HD
ENDBRANCH   3  18
TORSDOF 3
ENDMDL
MODEL 9
REMARK VINA RESULT:      -6.0      7.250      9.563
REMARK  Name = NuBBE_2266
REMARK  7 active torsions:
REMARK  status: ('A' for Active; 'I' for Inactive)
REMARK    1  A    between atoms: C_2  and  C_4
REMARK    2  A    between atoms: C_4  and  C_5
REMARK    3  A    between atoms: C_4  and  C_6
REMARK    4  A    between atoms: C_4  and  O_7
REMARK    5  A    between atoms: C_8  and  O_18
REMARK    6  A    between atoms: C_12  and  C_17
REMARK    7  A    between atoms: C_15  and  C_16
REMARK                            x       y       z     vdW  Elec       q    Type
REMARK                         _______ _______ _______ _____ _____    ______ ____
ROOT
ATOM      1  C   LIG A   1     -10.803   6.205 131.420  0.00  0.00    +0.044 C 
ATOM      2  C   LIG A   1      -9.927   4.988 131.042  0.00  0.00    +0.053 C 
ATOM      3  C   LIG A   1      -8.903   5.446 129.992  0.00  0.00    +0.125 C 
ATOM      4  C   LIG A   1      -9.608   5.952 128.727  0.00  0.00    +0.067 C 
ATOM      5  C   LIG A   1     -10.755   6.903 128.968  0.00  0.00    -0.039 A 
ATOM      6  C   LIG A   1     -11.343   7.006 130.250  0.00  0.00    -0.041 A 
ATOM      7  C   LIG A   1     -12.407   7.915 130.461  0.00  0.00    -0.047 A 
ATOM      8  C   LIG A   1     -12.901   8.661 129.385  0.00  0.00    +0.004 A 
ATOM      9  C   LIG A   1     -12.345   8.532 128.117  0.00  0.00    +0.004 A 
ATOM     10  C   LIG A   1     -11.279   7.655 127.891  0.00  0.00    -0.047 A 
ATOM     11  C   LIG A   1     -10.704   7.561 126.502  0.00  0.00    +0.044 C 
ATOM     12  C   LIG A   1     -13.047   8.093 131.813  0.00  0.00    +0.044 C 
ENDROOT
BRANCH   2  13
ATOM     13  C   LIG A   1      -9.331   4.294 132.311  0.00  0.00    +0.066 C 
ATOM     14  C   LIG A   1      -9.378   2.760 132.237  0.00  0.00    +0.041 C 
ATOM     15  C   LIG A   1      -7.903   4.737 132.645  0.00  0.00    +0.041 C 
BRANCH  13  16
ATOM     16  O   LIG A   1     -10.143   4.657 133.443  0.00  0.00    -0.389 OA
ATOM     17  H   LIG A   1     -10.627   3.865 133.732  0.00  0.00    +0.210 HD
ENDBRANCH  13  16
ENDBRANCH   2  13
BRANCH   3  18
ATOM     18  O   LIG A   1      -8.020   4.391 129.617  0.00  0.00    -0.391 OA
ATOM     19  H   LIG A   1      -7.111   4.737 129.620  0.00  0.00    +0.210 HD
ENDBRANCH   3  18
TORSDOF 3
ENDMDL
