MODEL 1
REMARK VINA RESULT:      -3.4      0.000      0.000
REMARK  Name = NuBBE_1976
REMARK  5 active torsions:
REMARK  status: ('A' for Active; 'I' for Inactive)
REMARK    1  A    between atoms: S_1  and  C_2
REMARK    2  A    between atoms: S_1  and  S_5
REMARK    3  A    between atoms: C_2  and  C_3
REMARK    4  A    between atoms: S_5  and  S_6
REMARK    5  A    between atoms: S_6  and  C_7
REMARK                            x       y       z     vdW  Elec       q    Type
REMARK                         _______ _______ _______ _____ _____    ______ ____
ROOT
ATOM      1  S   LIG A   1      -6.541  -1.725 122.783  0.00  0.00    -0.078 S 
ENDROOT
BRANCH   1   2
ATOM      2  C   LIG A   1      -6.021  -3.046 123.917  0.00  0.00    +0.108 C 
BRANCH   2   3
ATOM      3  C   LIG A   1      -4.647  -3.492 123.538  0.00  0.00    -0.023 C 
ATOM      4  C   LIG A   1      -4.251  -4.776 123.512  0.00  0.00    +0.005 C 
ENDBRANCH   2   3
ENDBRANCH   1   2
BRANCH   1   5
ATOM      5  S   LIG A   1      -8.478  -1.377 123.362  0.00  0.00    -0.024 S 
BRANCH   5   6
ATOM      6  S   LIG A   1      -9.175  -3.210 123.971  0.00  0.00    -0.085 S 
ATOM      7  C   LIG A   1      -9.406  -2.927 125.744  0.00  0.00    +0.098 C 
ENDBRANCH   5   6
ENDBRANCH   1   5
TORSDOF 4
ENDMDL
MODEL 2
REMARK VINA RESULT:      -3.2     12.238     14.127
REMARK  Name = NuBBE_1976
REMARK  5 active torsions:
REMARK  status: ('A' for Active; 'I' for Inactive)
REMARK    1  A    between atoms: S_1  and  C_2
REMARK    2  A    between atoms: S_1  and  S_5
REMARK    3  A    between atoms: C_2  and  C_3
REMARK    4  A    between atoms: S_5  and  S_6
REMARK    5  A    between atoms: S_6  and  C_7
REMARK                            x       y       z     vdW  Elec       q    Type
REMARK                         _______ _______ _______ _____ _____    ______ ____
ROOT
ATOM      1  S   LIG A   1     -13.231   7.104 128.952  0.00  0.00    -0.078 S 
ENDROOT
BRANCH   1   2
ATOM      2  C   LIG A   1     -13.089   8.851 128.475  0.00  0.00    +0.108 C 
BRANCH   2   3
ATOM      3  C   LIG A   1     -12.951   9.677 129.712  0.00  0.00    -0.023 C 
ATOM      4  C   LIG A   1     -13.470  10.908 129.859  0.00  0.00    +0.005 C 
ENDBRANCH   2   3
ENDBRANCH   1   2
BRANCH   1   5
ATOM      5  S   LIG A   1     -12.551   7.113 130.888  0.00  0.00    -0.024 S 
BRANCH   5   6
ATOM      6  S   LIG A   1     -10.587   6.532 130.751  0.00  0.00    -0.085 S 
ATOM      7  C   LIG A   1     -10.762   4.739 130.569  0.00  0.00    +0.098 C 
ENDBRANCH   5   6
ENDBRANCH   1   5
TORSDOF 4
ENDMDL
MODEL 3
REMARK VINA RESULT:      -3.2     12.545     13.097
REMARK  Name = NuBBE_1976
REMARK  5 active torsions:
REMARK  status: ('A' for Active; 'I' for Inactive)
REMARK    1  A    between atoms: S_1  and  C_2
REMARK    2  A    between atoms: S_1  and  S_5
REMARK    3  A    between atoms: C_2  and  C_3
REMARK    4  A    between atoms: S_5  and  S_6
REMARK    5  A    between atoms: S_6  and  C_7
REMARK                            x       y       z     vdW  Elec       q    Type
REMARK                         _______ _______ _______ _____ _____    ______ ____
ROOT
ATOM      1  S   LIG A   1     -10.723   8.141 128.050  0.00  0.00    -0.078 S 
ENDROOT
BRANCH   1   2
ATOM      2  C   LIG A   1     -12.187   8.969 128.737  0.00  0.00    +0.108 C 
BRANCH   2   3
ATOM      3  C   LIG A   1     -13.404   8.196 128.345  0.00  0.00    -0.023 C 
ATOM      4  C   LIG A   1     -13.388   7.121 127.539  0.00  0.00    +0.005 C 
ENDBRANCH   2   3
ENDBRANCH   1   2
BRANCH   1   5
ATOM      5  S   LIG A   1      -9.839   7.341 129.720  0.00  0.00    -0.024 S 
BRANCH   5   6
ATOM      6  S   LIG A   1     -11.082   5.807 130.281  0.00  0.00    -0.085 S 
ATOM      7  C   LIG A   1     -12.019   6.586 131.621  0.00  0.00    +0.098 C 
ENDBRANCH   5   6
ENDBRANCH   1   5
TORSDOF 4
ENDMDL
MODEL 4
REMARK VINA RESULT:      -3.0      1.923      2.271
REMARK  Name = NuBBE_1976
REMARK  5 active torsions:
REMARK  status: ('A' for Active; 'I' for Inactive)
REMARK    1  A    between atoms: S_1  and  C_2
REMARK    2  A    between atoms: S_1  and  S_5
REMARK    3  A    between atoms: C_2  and  C_3
REMARK    4  A    between atoms: S_5  and  S_6
REMARK    5  A    between atoms: S_6  and  C_7
REMARK                            x       y       z     vdW  Elec       q    Type
REMARK                         _______ _______ _______ _____ _____    ______ ____
ROOT
ATOM      1  S   LIG A   1      -7.186  -3.430 124.393  0.00  0.00    -0.078 S 
ENDROOT
BRANCH   1   2
ATOM      2  C   LIG A   1      -5.693  -2.443 124.080  0.00  0.00    +0.108 C 
BRANCH   2   3
ATOM      3  C   LIG A   1      -4.678  -3.307 123.407  0.00  0.00    -0.023 C 
ATOM      4  C   LIG A   1      -4.477  -4.603 123.701  0.00  0.00    +0.005 C 
ENDBRANCH   2   3
ENDBRANCH   1   2
BRANCH   1   5
ATOM      5  S   LIG A   1      -8.661  -2.291 123.536  0.00  0.00    -0.024 S 
BRANCH   5   6
ATOM      6  S   LIG A   1      -7.896  -0.386 123.505  0.00  0.00    -0.085 S 
ATOM      7  C   LIG A   1      -9.392   0.590 123.212  0.00  0.00    +0.098 C 
ENDBRANCH   5   6
ENDBRANCH   1   5
TORSDOF 4
ENDMDL
MODEL 5
REMARK VINA RESULT:      -3.0     12.020     12.588
REMARK  Name = NuBBE_1976
REMARK  5 active torsions:
REMARK  status: ('A' for Active; 'I' for Inactive)
REMARK    1  A    between atoms: S_1  and  C_2
REMARK    2  A    between atoms: S_1  and  S_5
REMARK    3  A    between atoms: C_2  and  C_3
REMARK    4  A    between atoms: S_5  and  S_6
REMARK    5  A    between atoms: S_6  and  C_7
REMARK                            x       y       z     vdW  Elec       q    Type
REMARK                         _______ _______ _______ _____ _____    ______ ____
ROOT
ATOM      1  S   LIG A   1     -11.666   6.570 131.013  0.00  0.00    -0.078 S 
ENDROOT
BRANCH   1   2
ATOM      2  C   LIG A   1     -10.035   5.965 130.490  0.00  0.00    +0.108 C 
BRANCH   2   3
ATOM      3  C   LIG A   1      -9.005   6.469 131.449  0.00  0.00    -0.023 C 
ATOM      4  C   LIG A   1      -7.755   6.815 131.099  0.00  0.00    +0.005 C 
ENDBRANCH   2   3
ENDBRANCH   1   2
BRANCH   1   5
ATOM      5  S   LIG A   1     -12.698   6.659 129.243  0.00  0.00    -0.024 S 
BRANCH   5   6
ATOM      6  S   LIG A   1     -12.379   8.565 128.550  0.00  0.00    -0.085 S 
ATOM      7  C   LIG A   1     -10.752   8.391 127.775  0.00  0.00    +0.098 C 
ENDBRANCH   5   6
ENDBRANCH   1   5
TORSDOF 4
ENDMDL
MODEL 6
REMARK VINA RESULT:      -2.9      2.130      2.385
REMARK  Name = NuBBE_1976
REMARK  5 active torsions:
REMARK  status: ('A' for Active; 'I' for Inactive)
REMARK    1  A    between atoms: S_1  and  C_2
REMARK    2  A    between atoms: S_1  and  S_5
REMARK    3  A    between atoms: C_2  and  C_3
REMARK    4  A    between atoms: S_5  and  S_6
REMARK    5  A    between atoms: S_6  and  C_7
REMARK                            x       y       z     vdW  Elec       q    Type
REMARK                         _______ _______ _______ _____ _____    ______ ____
ROOT
ATOM      1  S   LIG A   1      -7.538  -3.156 124.069  0.00  0.00    -0.078 S 
ENDROOT
BRANCH   1   2
ATOM      2  C   LIG A   1      -5.830  -2.980 124.664  0.00  0.00    +0.108 C 
BRANCH   2   3
ATOM      3  C   LIG A   1      -4.897  -3.425 123.585  0.00  0.00    -0.023 C 
ATOM      4  C   LIG A   1      -4.292  -4.624 123.560  0.00  0.00    +0.005 C 
ENDBRANCH   2   3
ENDBRANCH   1   2
BRANCH   1   5
ATOM      5  S   LIG A   1      -8.604  -3.314 125.814  0.00  0.00    -0.024 S 
BRANCH   5   6
ATOM      6  S   LIG A   1      -7.881  -1.805 127.004  0.00  0.00    -0.085 S 
ATOM      7  C   LIG A   1      -7.277  -2.740 128.431  0.00  0.00    +0.098 C 
ENDBRANCH   5   6
ENDBRANCH   1   5
TORSDOF 4
ENDMDL
MODEL 7
REMARK VINA RESULT:      -2.9      3.440      4.330
REMARK  Name = NuBBE_1976
REMARK  5 active torsions:
REMARK  status: ('A' for Active; 'I' for Inactive)
REMARK    1  A    between atoms: S_1  and  C_2
REMARK    2  A    between atoms: S_1  and  S_5
REMARK    3  A    between atoms: C_2  and  C_3
REMARK    4  A    between atoms: S_5  and  S_6
REMARK    5  A    between atoms: S_6  and  C_7
REMARK                            x       y       z     vdW  Elec       q    Type
REMARK                         _______ _______ _______ _____ _____    ______ ____
ROOT
ATOM      1  S   LIG A   1      -7.294  -2.449 126.141  0.00  0.00    -0.078 S 
ENDROOT
BRANCH   1   2
ATOM      2  C   LIG A   1      -8.967  -2.974 126.615  0.00  0.00    +0.108 C 
BRANCH   2   3
ATOM      3  C   LIG A   1      -8.877  -3.816 127.846  0.00  0.00    -0.023 C 
ATOM      4  C   LIG A   1      -8.409  -3.377 129.026  0.00  0.00    +0.005 C 
ENDBRANCH   2   3
ENDBRANCH   1   2
BRANCH   1   5
ATOM      5  S   LIG A   1      -7.155  -3.099 124.201  0.00  0.00    -0.024 S 
BRANCH   5   6
ATOM      6  S   LIG A   1      -9.073  -2.988 123.477  0.00  0.00    -0.085 S 
ATOM      7  C   LIG A   1      -9.127  -1.278 122.883  0.00  0.00    +0.098 C 
ENDBRANCH   5   6
ENDBRANCH   1   5
TORSDOF 4
ENDMDL
MODEL 8
REMARK VINA RESULT:      -2.8      4.139      5.256
REMARK  Name = NuBBE_1976
REMARK  5 active torsions:
REMARK  status: ('A' for Active; 'I' for Inactive)
REMARK    1  A    between atoms: S_1  and  C_2
REMARK    2  A    between atoms: S_1  and  S_5
REMARK    3  A    between atoms: C_2  and  C_3
REMARK    4  A    between atoms: S_5  and  S_6
REMARK    5  A    between atoms: S_6  and  C_7
REMARK                            x       y       z     vdW  Elec       q    Type
REMARK                         _______ _______ _______ _____ _____    ______ ____
ROOT
ATOM      1  S   LIG A   1      -7.865  -2.484 126.939  0.00  0.00    -0.078 S 
ENDROOT
BRANCH   1   2
ATOM      2  C   LIG A   1      -9.290  -3.041 125.958  0.00  0.00    +0.108 C 
BRANCH   2   3
ATOM      3  C   LIG A   1      -8.809  -3.457 124.606  0.00  0.00    -0.023 C 
ATOM      4  C   LIG A   1      -9.495  -3.259 123.468  0.00  0.00    +0.005 C 
ENDBRANCH   2   3
ENDBRANCH   1   2
BRANCH   1   5
ATOM      5  S   LIG A   1      -8.240  -3.310 128.778  0.00  0.00    -0.024 S 
BRANCH   5   6
ATOM      6  S   LIG A   1      -6.624  -2.778 129.926  0.00  0.00    -0.085 S 
ATOM      7  C   LIG A   1      -5.943  -4.402 130.349  0.00  0.00    +0.098 C 
ENDBRANCH   5   6
ENDBRANCH   1   5
TORSDOF 4
ENDMDL
MODEL 9
REMARK VINA RESULT:      -2.8     11.253     12.979
REMARK  Name = NuBBE_1976
REMARK  5 active torsions:
REMARK  status: ('A' for Active; 'I' for Inactive)
REMARK    1  A    between atoms: S_1  and  C_2
REMARK    2  A    between atoms: S_1  and  S_5
REMARK    3  A    between atoms: C_2  and  C_3
REMARK    4  A    between atoms: S_5  and  S_6
REMARK    5  A    between atoms: S_6  and  C_7
REMARK                            x       y       z     vdW  Elec       q    Type
REMARK                         _______ _______ _______ _____ _____    ______ ____
ROOT
ATOM      1  S   LIG A   1     -12.525   7.202 131.246  0.00  0.00    -0.078 S 
ENDROOT
BRANCH   1   2
ATOM      2  C   LIG A   1     -12.760   8.002 129.631  0.00  0.00    +0.108 C 
BRANCH   2   3
ATOM      3  C   LIG A   1     -13.138   6.961 128.629  0.00  0.00    -0.023 C 
ATOM      4  C   LIG A   1     -13.216   7.181 127.306  0.00  0.00    +0.005 C 
ENDBRANCH   2   3
ENDBRANCH   1   2
BRANCH   1   5
ATOM      5  S   LIG A   1     -11.199   5.699 130.809  0.00  0.00    -0.024 S 
BRANCH   5   6
ATOM      6  S   LIG A   1      -9.349   6.569 130.985  0.00  0.00    -0.085 S 
ATOM      7  C   LIG A   1      -8.302   5.339 130.167  0.00  0.00    +0.098 C 
ENDBRANCH   5   6
ENDBRANCH   1   5
TORSDOF 4
ENDMDL
