MODEL 1
REMARK VINA RESULT:      -6.0      0.000      0.000
REMARK  Name = NuBBE_41
REMARK  5 active torsions:
REMARK  status: ('A' for Active; 'I' for Inactive)
REMARK    1  A    between atoms: C_6  and  C_7
REMARK    2  A    between atoms: C_6  and  C_13
REMARK    3  A    between atoms: C_8  and  C_9
REMARK    4  A    between atoms: C_10  and  C_11
REMARK    5  A    between atoms: C_10  and  C_12
REMARK                            x       y       z     vdW  Elec       q    Type
REMARK                         _______ _______ _______ _____ _____    ______ ____
ROOT
ATOM      1  N   LIG A   1      -9.020   4.456 134.500  0.00  0.00    -0.252 N 
ATOM      2  C   LIG A   1      -8.903   5.043 133.291  0.00  0.00    +0.363 C 
ATOM      3  N   LIG A   1      -7.775   5.531 132.916  0.00  0.00    -0.117 NA
ATOM      4  C   LIG A   1      -7.785   6.154 131.591  0.00  0.00    +0.247 C 
ATOM      5  C   LIG A   1      -8.684   5.382 130.633  0.00  0.00    +0.087 C 
ATOM      6  C   LIG A   1     -10.119   5.308 131.183  0.00  0.00    +0.099 C 
ATOM      7  C   LIG A   1     -10.867   4.153 130.489  0.00  0.00    +0.054 C 
ATOM      8  N   LIG A   1     -10.071   5.024 132.613  0.00  0.00    -0.230 N 
ATOM      9  H   LIG A   1     -10.715   4.304 132.925  0.00  0.00    +0.245 HD
ATOM     10  H   LIG A   1      -8.161   4.594 135.027  0.00  0.00    +0.241 HD
ATOM     11  H   LIG A   1      -9.814   4.804 135.025  0.00  0.00    +0.241 HD
ENDROOT
BRANCH   6  12
ATOM     12  C   LIG A   1     -10.828   6.645 131.044  0.00  0.00    +0.014 C 
ATOM     13  C   LIG A   1     -12.118   6.839 130.716  0.00  0.00    -0.001 C 
BRANCH  13  14
ATOM     14  C   LIG A   1     -12.718   8.151 130.615  0.00  0.00    -0.002 C 
ATOM     15  C   LIG A   1     -12.713   8.958 129.536  0.00  0.00    -0.076 C 
ATOM     16  C   LIG A   1     -12.074   8.663 128.204  0.00  0.00    +0.038 C 
ATOM     17  C   LIG A   1     -13.401  10.299 129.588  0.00  0.00    +0.038 C 
ENDBRANCH  13  14
ENDBRANCH   6  12
TORSDOF 2
ENDMDL
MODEL 2
REMARK VINA RESULT:      -5.7     10.604     11.934
REMARK  Name = NuBBE_41
REMARK  5 active torsions:
REMARK  status: ('A' for Active; 'I' for Inactive)
REMARK    1  A    between atoms: C_6  and  C_7
REMARK    2  A    between atoms: C_6  and  C_13
REMARK    3  A    between atoms: C_8  and  C_9
REMARK    4  A    between atoms: C_10  and  C_11
REMARK    5  A    between atoms: C_10  and  C_12
REMARK                            x       y       z     vdW  Elec       q    Type
REMARK                         _______ _______ _______ _____ _____    ______ ____
ROOT
ATOM      1  N   LIG A   1      -5.370  -2.632 122.829  0.00  0.00    -0.252 N 
ATOM      2  C   LIG A   1      -6.453  -2.008 123.338  0.00  0.00    +0.363 C 
ATOM      3  N   LIG A   1      -6.548  -0.728 123.282  0.00  0.00    -0.117 NA
ATOM      4  C   LIG A   1      -7.762  -0.174 123.883  0.00  0.00    +0.247 C 
ATOM      5  C   LIG A   1      -8.960  -1.078 123.622  0.00  0.00    +0.087 C 
ATOM      6  C   LIG A   1      -8.701  -2.489 124.181  0.00  0.00    +0.099 C 
ATOM      7  C   LIG A   1      -9.662  -3.486 123.502  0.00  0.00    +0.054 C 
ATOM      8  N   LIG A   1      -7.334  -2.888 123.863  0.00  0.00    -0.230 N 
ATOM      9  H   LIG A   1      -7.240  -3.830 123.497  0.00  0.00    +0.245 HD
ATOM     10  H   LIG A   1      -4.679  -1.938 122.554  0.00  0.00    +0.241 HD
ATOM     11  H   LIG A   1      -4.963  -3.294 123.480  0.00  0.00    +0.241 HD
ENDROOT
BRANCH   6  12
ATOM     12  C   LIG A   1      -8.802  -2.504 125.697  0.00  0.00    +0.014 C 
ATOM     13  C   LIG A   1      -8.534  -3.543 126.509  0.00  0.00    -0.001 C 
BRANCH  13  14
ATOM     14  C   LIG A   1      -8.646  -3.467 127.949  0.00  0.00    -0.002 C 
ATOM     15  C   LIG A   1      -7.703  -3.034 128.808  0.00  0.00    -0.076 C 
ATOM     16  C   LIG A   1      -6.326  -2.541 128.447  0.00  0.00    +0.038 C 
ATOM     17  C   LIG A   1      -7.983  -3.003 130.289  0.00  0.00    +0.038 C 
ENDBRANCH  13  14
ENDBRANCH   6  12
TORSDOF 2
ENDMDL
MODEL 3
REMARK VINA RESULT:      -5.7      9.116     10.323
REMARK  Name = NuBBE_41
REMARK  5 active torsions:
REMARK  status: ('A' for Active; 'I' for Inactive)
REMARK    1  A    between atoms: C_6  and  C_7
REMARK    2  A    between atoms: C_6  and  C_13
REMARK    3  A    between atoms: C_8  and  C_9
REMARK    4  A    between atoms: C_10  and  C_11
REMARK    5  A    between atoms: C_10  and  C_12
REMARK                            x       y       z     vdW  Elec       q    Type
REMARK                         _______ _______ _______ _____ _____    ______ ____
ROOT
ATOM      1  N   LIG A   1     -10.736   1.612 123.916  0.00  0.00    -0.252 N 
ATOM      2  C   LIG A   1      -9.438   1.746 124.256  0.00  0.00    +0.363 C 
ATOM      3  N   LIG A   1      -9.114   2.321 125.358  0.00  0.00    -0.117 NA
ATOM      4  C   LIG A   1      -7.673   2.417 125.603  0.00  0.00    +0.247 C 
ATOM      5  C   LIG A   1      -6.953   1.170 125.107  0.00  0.00    +0.087 C 
ATOM      6  C   LIG A   1      -7.212   0.959 123.605  0.00  0.00    +0.099 C 
ATOM      7  C   LIG A   1      -6.909  -0.508 123.241  0.00  0.00    +0.054 C 
ATOM      8  N   LIG A   1      -8.620   1.215 123.320  0.00  0.00    -0.230 N 
ATOM      9  H   LIG A   1      -9.067   0.522 122.730  0.00  0.00    +0.245 HD
ATOM     10  H   LIG A   1     -11.313   2.125 124.578  0.00  0.00    +0.241 HD
ATOM     11  H   LIG A   1     -10.923   1.926 122.970  0.00  0.00    +0.241 HD
ENDROOT
BRANCH   6  12
ATOM     12  C   LIG A   1      -6.426   1.954 122.769  0.00  0.00    +0.014 C 
ATOM     13  C   LIG A   1      -6.912   3.049 122.156  0.00  0.00    -0.001 C 
BRANCH  13  14
ATOM     14  C   LIG A   1      -6.087   3.953 121.385  0.00  0.00    -0.002 C 
ATOM     15  C   LIG A   1      -6.366   4.456 120.166  0.00  0.00    -0.076 C 
ATOM     16  C   LIG A   1      -7.598   4.175 119.346  0.00  0.00    +0.038 C 
ATOM     17  C   LIG A   1      -5.403   5.405 119.499  0.00  0.00    +0.038 C 
ENDBRANCH  13  14
ENDBRANCH   6  12
TORSDOF 2
ENDMDL
MODEL 4
REMARK VINA RESULT:      -5.7      8.798     11.030
REMARK  Name = NuBBE_41
REMARK  5 active torsions:
REMARK  status: ('A' for Active; 'I' for Inactive)
REMARK    1  A    between atoms: C_6  and  C_7
REMARK    2  A    between atoms: C_6  and  C_13
REMARK    3  A    between atoms: C_8  and  C_9
REMARK    4  A    between atoms: C_10  and  C_11
REMARK    5  A    between atoms: C_10  and  C_12
REMARK                            x       y       z     vdW  Elec       q    Type
REMARK                         _______ _______ _______ _____ _____    ______ ____
ROOT
ATOM      1  N   LIG A   1      -8.097   4.377 124.735  0.00  0.00    -0.252 N 
ATOM      2  C   LIG A   1      -8.294   3.066 124.988  0.00  0.00    +0.363 C 
ATOM      3  N   LIG A   1      -8.411   2.650 126.197  0.00  0.00    -0.117 NA
ATOM      4  C   LIG A   1      -8.605   1.206 126.335  0.00  0.00    +0.247 C 
ATOM      5  C   LIG A   1      -9.481   0.665 125.213  0.00  0.00    +0.087 C 
ATOM      6  C   LIG A   1      -8.854   0.975 123.842  0.00  0.00    +0.099 C 
ATOM      7  C   LIG A   1      -9.941   0.874 122.754  0.00  0.00    +0.054 C 
ATOM      8  N   LIG A   1      -8.343   2.342 123.847  0.00  0.00    -0.230 N 
ATOM      9  H   LIG A   1      -8.579   2.887 123.025  0.00  0.00    +0.245 HD
ATOM     10  H   LIG A   1      -7.946   4.870 125.612  0.00  0.00    +0.241 HD
ATOM     11  H   LIG A   1      -7.321   4.538 124.104  0.00  0.00    +0.241 HD
ENDROOT
BRANCH   6  12
ATOM     12  C   LIG A   1      -7.656   0.080 123.572  0.00  0.00    +0.014 C 
ATOM     13  C   LIG A   1      -7.687  -1.190 123.130  0.00  0.00    -0.001 C 
BRANCH  13  14
ATOM     14  C   LIG A   1      -6.493  -1.970 122.889  0.00  0.00    -0.002 C 
ATOM     15  C   LIG A   1      -5.727  -2.578 123.817  0.00  0.00    -0.076 C 
ATOM     16  C   LIG A   1      -5.951  -2.566 125.306  0.00  0.00    +0.038 C 
ATOM     17  C   LIG A   1      -4.516  -3.372 123.397  0.00  0.00    +0.038 C 
ENDBRANCH  13  14
ENDBRANCH   6  12
TORSDOF 2
ENDMDL
MODEL 5
REMARK VINA RESULT:      -5.5      9.886     11.203
REMARK  Name = NuBBE_41
REMARK  5 active torsions:
REMARK  status: ('A' for Active; 'I' for Inactive)
REMARK    1  A    between atoms: C_6  and  C_7
REMARK    2  A    between atoms: C_6  and  C_13
REMARK    3  A    between atoms: C_8  and  C_9
REMARK    4  A    between atoms: C_10  and  C_11
REMARK    5  A    between atoms: C_10  and  C_12
REMARK                            x       y       z     vdW  Elec       q    Type
REMARK                         _______ _______ _______ _____ _____    ______ ____
ROOT
ATOM      1  N   LIG A   1     -10.056  -3.603 123.328  0.00  0.00    -0.252 N 
ATOM      2  C   LIG A   1      -9.219  -3.016 124.209  0.00  0.00    +0.363 C 
ATOM      3  N   LIG A   1      -9.627  -2.719 125.390  0.00  0.00    -0.117 NA
ATOM      4  C   LIG A   1      -8.628  -2.074 126.243  0.00  0.00    +0.247 C 
ATOM      5  C   LIG A   1      -7.243  -2.659 125.996  0.00  0.00    +0.087 C 
ATOM      6  C   LIG A   1      -6.846  -2.499 124.518  0.00  0.00    +0.099 C 
ATOM      7  C   LIG A   1      -5.715  -3.494 124.188  0.00  0.00    +0.054 C 
ATOM      8  N   LIG A   1      -7.993  -2.820 123.676  0.00  0.00    -0.230 N 
ATOM      9  H   LIG A   1      -7.786  -3.426 122.889  0.00  0.00    +0.245 HD
ATOM     10  H   LIG A   1     -10.995  -3.625 123.719  0.00  0.00    +0.241 HD
ATOM     11  H   LIG A   1     -10.061  -3.136 122.428  0.00  0.00    +0.241 HD
ENDROOT
BRANCH   6  12
ATOM     12  C   LIG A   1      -6.482  -1.058 124.202  0.00  0.00    +0.014 C 
ATOM     13  C   LIG A   1      -7.176  -0.208 123.424  0.00  0.00    -0.001 C 
BRANCH  13  14
ATOM     14  C   LIG A   1      -6.762   1.157 123.183  0.00  0.00    -0.002 C 
ATOM     15  C   LIG A   1      -7.567   2.216 122.968  0.00  0.00    -0.076 C 
ATOM     16  C   LIG A   1      -9.073   2.199 122.927  0.00  0.00    +0.038 C 
ATOM     17  C   LIG A   1      -6.975   3.586 122.747  0.00  0.00    +0.038 C 
ENDBRANCH  13  14
ENDBRANCH   6  12
TORSDOF 2
ENDMDL
MODEL 6
REMARK VINA RESULT:      -5.5     10.334     11.801
REMARK  Name = NuBBE_41
REMARK  5 active torsions:
REMARK  status: ('A' for Active; 'I' for Inactive)
REMARK    1  A    between atoms: C_6  and  C_7
REMARK    2  A    between atoms: C_6  and  C_13
REMARK    3  A    between atoms: C_8  and  C_9
REMARK    4  A    between atoms: C_10  and  C_11
REMARK    5  A    between atoms: C_10  and  C_12
REMARK                            x       y       z     vdW  Elec       q    Type
REMARK                         _______ _______ _______ _____ _____    ______ ____
ROOT
ATOM      1  N   LIG A   1      -9.001   0.423 123.182  0.00  0.00    -0.252 N 
ATOM      2  C   LIG A   1      -8.766  -0.837 123.605  0.00  0.00    +0.363 C 
ATOM      3  N   LIG A   1      -9.673  -1.739 123.490  0.00  0.00    -0.117 NA
ATOM      4  C   LIG A   1      -9.297  -3.059 124.000  0.00  0.00    +0.247 C 
ATOM      5  C   LIG A   1      -7.831  -3.355 123.716  0.00  0.00    +0.087 C 
ATOM      6  C   LIG A   1      -6.931  -2.278 124.348  0.00  0.00    +0.099 C 
ATOM      7  C   LIG A   1      -5.550  -2.307 123.663  0.00  0.00    +0.054 C 
ATOM      8  N   LIG A   1      -7.523  -0.964 124.120  0.00  0.00    -0.230 N 
ATOM      9  H   LIG A   1      -6.872  -0.254 123.801  0.00  0.00    +0.245 HD
ATOM     10  H   LIG A   1      -9.979   0.511 122.914  0.00  0.00    +0.241 HD
ATOM     11  H   LIG A   1      -8.765   1.117 123.882  0.00  0.00    +0.241 HD
ENDROOT
BRANCH   6  12
ATOM     12  C   LIG A   1      -6.851  -2.448 125.856  0.00  0.00    +0.014 C 
ATOM     13  C   LIG A   1      -7.497  -1.716 126.781  0.00  0.00    -0.001 C 
BRANCH  13  14
ATOM     14  C   LIG A   1      -7.372  -1.952 128.202  0.00  0.00    -0.002 C 
ATOM     15  C   LIG A   1      -7.977  -2.924 128.913  0.00  0.00    -0.076 C 
ATOM     16  C   LIG A   1      -8.921  -3.968 128.374  0.00  0.00    +0.038 C 
ATOM     17  C   LIG A   1      -7.729  -3.046 130.396  0.00  0.00    +0.038 C 
ENDBRANCH  13  14
ENDBRANCH   6  12
TORSDOF 2
ENDMDL
MODEL 7
REMARK VINA RESULT:      -5.5      9.480     11.614
REMARK  Name = NuBBE_41
REMARK  5 active torsions:
REMARK  status: ('A' for Active; 'I' for Inactive)
REMARK    1  A    between atoms: C_6  and  C_7
REMARK    2  A    between atoms: C_6  and  C_13
REMARK    3  A    between atoms: C_8  and  C_9
REMARK    4  A    between atoms: C_10  and  C_11
REMARK    5  A    between atoms: C_10  and  C_12
REMARK                            x       y       z     vdW  Elec       q    Type
REMARK                         _______ _______ _______ _____ _____    ______ ____
ROOT
ATOM      1  N   LIG A   1      -8.326   3.599 121.594  0.00  0.00    -0.252 N 
ATOM      2  C   LIG A   1      -7.691   3.082 122.666  0.00  0.00    +0.363 C 
ATOM      3  N   LIG A   1      -6.790   3.763 123.277  0.00  0.00    -0.117 NA
ATOM      4  C   LIG A   1      -6.168   3.083 124.414  0.00  0.00    +0.247 C 
ATOM      5  C   LIG A   1      -7.189   2.244 125.171  0.00  0.00    +0.087 C 
ATOM      6  C   LIG A   1      -7.836   1.207 124.235  0.00  0.00    +0.099 C 
ATOM      7  C   LIG A   1      -9.162   0.724 124.855  0.00  0.00    +0.054 C 
ATOM      8  N   LIG A   1      -8.136   1.838 122.955  0.00  0.00    -0.230 N 
ATOM      9  H   LIG A   1      -9.060   1.637 122.588  0.00  0.00    +0.245 HD
ATOM     10  H   LIG A   1      -7.886   4.479 121.335  0.00  0.00    +0.241 HD
ATOM     11  H   LIG A   1      -8.333   2.964 120.804  0.00  0.00    +0.241 HD
ENDROOT
BRANCH   6  12
ATOM     12  C   LIG A   1      -6.874   0.071 123.929  0.00  0.00    +0.014 C 
ATOM     13  C   LIG A   1      -7.136  -1.028 123.200  0.00  0.00    -0.001 C 
BRANCH  13  14
ATOM     14  C   LIG A   1      -6.154  -2.060 122.948  0.00  0.00    -0.002 C 
ATOM     15  C   LIG A   1      -5.499  -2.790 123.871  0.00  0.00    -0.076 C 
ATOM     16  C   LIG A   1      -5.646  -2.679 125.366  0.00  0.00    +0.038 C 
ATOM     17  C   LIG A   1      -4.511  -3.846 123.442  0.00  0.00    +0.038 C 
ENDBRANCH  13  14
ENDBRANCH   6  12
TORSDOF 2
ENDMDL
MODEL 8
REMARK VINA RESULT:      -5.5      2.765      5.827
REMARK  Name = NuBBE_41
REMARK  5 active torsions:
REMARK  status: ('A' for Active; 'I' for Inactive)
REMARK    1  A    between atoms: C_6  and  C_7
REMARK    2  A    between atoms: C_6  and  C_13
REMARK    3  A    between atoms: C_8  and  C_9
REMARK    4  A    between atoms: C_10  and  C_11
REMARK    5  A    between atoms: C_10  and  C_12
REMARK                            x       y       z     vdW  Elec       q    Type
REMARK                         _______ _______ _______ _____ _____    ______ ____
ROOT
ATOM      1  N   LIG A   1     -10.890   8.007 127.049  0.00  0.00    -0.252 N 
ATOM      2  C   LIG A   1     -11.326   7.909 128.322  0.00  0.00    +0.363 C 
ATOM      3  N   LIG A   1     -12.105   8.806 128.811  0.00  0.00    -0.117 NA
ATOM      4  C   LIG A   1     -12.493   8.592 130.206  0.00  0.00    +0.247 C 
ATOM      5  C   LIG A   1     -12.699   7.110 130.492  0.00  0.00    +0.087 C 
ATOM      6  C   LIG A   1     -11.417   6.318 130.182  0.00  0.00    +0.099 C 
ATOM      7  C   LIG A   1     -11.773   4.829 130.002  0.00  0.00    +0.054 C 
ATOM      8  N   LIG A   1     -10.844   6.802 128.930  0.00  0.00    -0.230 N 
ATOM      9  H   LIG A   1     -10.554   6.074 128.286  0.00  0.00    +0.245 HD
ATOM     10  H   LIG A   1     -11.172   8.906 126.665  0.00  0.00    +0.241 HD
ATOM     11  H   LIG A   1      -9.886   7.892 126.974  0.00  0.00    +0.241 HD
ENDROOT
BRANCH   6  12
ATOM     12  C   LIG A   1     -10.358   6.552 131.246  0.00  0.00    +0.014 C 
ATOM     13  C   LIG A   1     -10.026   5.716 132.246  0.00  0.00    -0.001 C 
BRANCH  13  14
ATOM     14  C   LIG A   1      -8.994   6.015 133.214  0.00  0.00    -0.002 C 
ATOM     15  C   LIG A   1      -8.337   5.129 133.989  0.00  0.00    -0.076 C 
ATOM     16  C   LIG A   1      -8.545   3.638 134.013  0.00  0.00    +0.038 C 
ATOM     17  C   LIG A   1      -7.269   5.603 134.943  0.00  0.00    +0.038 C 
ENDBRANCH  13  14
ENDBRANCH   6  12
TORSDOF 2
ENDMDL
MODEL 9
REMARK VINA RESULT:      -5.3      9.144     10.730
REMARK  Name = NuBBE_41
REMARK  5 active torsions:
REMARK  status: ('A' for Active; 'I' for Inactive)
REMARK    1  A    between atoms: C_6  and  C_7
REMARK    2  A    between atoms: C_6  and  C_13
REMARK    3  A    between atoms: C_8  and  C_9
REMARK    4  A    between atoms: C_10  and  C_11
REMARK    5  A    between atoms: C_10  and  C_12
REMARK                            x       y       z     vdW  Elec       q    Type
REMARK                         _______ _______ _______ _____ _____    ______ ____
ROOT
ATOM      1  N   LIG A   1      -2.815  -2.177 129.977  0.00  0.00    -0.252 N 
ATOM      2  C   LIG A   1      -4.024  -2.775 130.007  0.00  0.00    +0.363 C 
ATOM      3  N   LIG A   1      -4.161  -3.933 130.545  0.00  0.00    -0.117 NA
ATOM      4  C   LIG A   1      -5.519  -4.477 130.500  0.00  0.00    +0.247 C 
ATOM      5  C   LIG A   1      -6.553  -3.376 130.693  0.00  0.00    +0.087 C 
ATOM      6  C   LIG A   1      -6.393  -2.290 129.615  0.00  0.00    +0.099 C 
ATOM      7  C   LIG A   1      -7.080  -0.996 130.094  0.00  0.00    +0.054 C 
ATOM      8  N   LIG A   1      -4.974  -2.007 129.427  0.00  0.00    -0.230 N 
ATOM      9  H   LIG A   1      -4.738  -1.021 129.390  0.00  0.00    +0.245 HD
ATOM     10  H   LIG A   1      -2.109  -2.828 130.310  0.00  0.00    +0.241 HD
ATOM     11  H   LIG A   1      -2.573  -1.839 129.052  0.00  0.00    +0.241 HD
ENDROOT
BRANCH   6  12
ATOM     12  C   LIG A   1      -6.907  -2.774 128.270  0.00  0.00    +0.014 C 
ATOM     13  C   LIG A   1      -8.193  -2.960 127.921  0.00  0.00    -0.001 C 
BRANCH  13  14
ATOM     14  C   LIG A   1      -8.597  -3.415 126.609  0.00  0.00    -0.002 C 
ATOM     15  C   LIG A   1      -8.971  -2.644 125.569  0.00  0.00    -0.076 C 
ATOM     16  C   LIG A   1      -9.054  -1.140 125.558  0.00  0.00    +0.038 C 
ATOM     17  C   LIG A   1      -9.351  -3.277 124.254  0.00  0.00    +0.038 C 
ENDBRANCH  13  14
ENDBRANCH   6  12
TORSDOF 2
ENDMDL
