MODEL 1
REMARK VINA RESULT:      -7.9      0.000      0.000
REMARK  Name = NuBBE_1140
REMARK  8 active torsions:
REMARK  status: ('A' for Active; 'I' for Inactive)
REMARK    1  A    between atoms: C_1  and  C_2
REMARK    2  A    between atoms: C_2  and  C_3
REMARK    3  A    between atoms: C_3  and  C_4
REMARK    4  A    between atoms: C_7  and  O_29
REMARK    5  A    between atoms: C_8  and  O_9
REMARK    6  A    between atoms: O_9  and  C_10
REMARK    7  A    between atoms: N_16  and  C_17
REMARK    8  A    between atoms: O_29  and  C_30
REMARK                            x       y       z     vdW  Elec       q    Type
REMARK                         _______ _______ _______ _____ _____    ______ ____
ROOT
ATOM      1  C   LIG A   1      -7.303  -2.566 125.715  0.00  0.00    +0.115 C 
ATOM      2  C   LIG A   1      -8.180  -1.327 125.499  0.00  0.00    +0.026 A 
ATOM      3  C   LIG A   1      -8.917  -1.123 124.305  0.00  0.00    +0.167 A 
ATOM      4  C   LIG A   1      -9.573   0.107 124.102  0.00  0.00    +0.162 A 
ATOM      5  C   LIG A   1      -9.569   1.062 125.124  0.00  0.00    +0.050 A 
ATOM      6  C   LIG A   1      -8.913   0.817 126.332  0.00  0.00    +0.012 A 
ATOM      7  C   LIG A   1      -8.207  -0.373 126.544  0.00  0.00    -0.007 A 
ATOM      8  C   LIG A   1      -7.564  -0.708 127.837  0.00  0.00    +0.004 A 
ATOM      9  C   LIG A   1      -7.256  -2.068 128.120  0.00  0.00    +0.046 A 
ATOM     10  N   LIG A   1      -7.451  -3.057 127.114  0.00  0.00    -0.324 N 
ATOM     11  C   LIG A   1      -8.665  -3.858 127.330  0.00  0.00    +0.130 C 
ATOM     12  C   LIG A   1      -6.739  -2.448 129.400  0.00  0.00    +0.007 A 
ATOM     13  C   LIG A   1      -6.520  -1.438 130.382  0.00  0.00    -0.012 A 
ATOM     14  C   LIG A   1      -6.778  -0.102 130.066  0.00  0.00    +0.009 A 
ATOM     15  C   LIG A   1      -7.288   0.255 128.817  0.00  0.00    +0.011 A 
ATOM     16  C   LIG A   1      -6.048  -1.768 131.664  0.00  0.00    +0.058 A 
ATOM     17  C   LIG A   1      -5.811  -3.091 131.956  0.00  0.00    +0.167 A 
ATOM     18  C   LIG A   1      -5.993  -4.075 131.021  0.00  0.00    +0.167 A 
ATOM     19  O   LIG A   1      -5.710  -5.313 131.510  0.00  0.00    -0.453 OA
ATOM     20  C   LIG A   1      -5.363  -4.993 132.873  0.00  0.00    +0.466 C 
ATOM     21  O   LIG A   1      -5.386  -3.578 133.152  0.00  0.00    -0.453 OA
ATOM     22  C   LIG A   1      -6.428  -3.787 129.746  0.00  0.00    +0.060 A 
ENDROOT
BRANCH   4  23
ATOM     23  O   LIG A   1     -10.204   0.345 122.909  0.00  0.00    -0.491 OA
ATOM     24  C   LIG A   1      -9.815   1.530 122.216  0.00  0.00    +0.277 C 
ENDBRANCH   4  23
BRANCH   3  25
ATOM     25  O   LIG A   1      -8.850  -2.150 123.397  0.00  0.00    -0.491 OA
ATOM     26  C   LIG A   1      -9.737  -3.254 123.566  0.00  0.00    +0.277 C 
ENDBRANCH   3  25
BRANCH   1  27
ATOM     27  C   LIG A   1      -5.829  -2.242 125.406  0.00  0.00    +0.101 C 
BRANCH  27  29
ATOM     28  C   LIG A   1      -4.525  -3.950 123.981  0.00  0.00    +0.086 C 
ATOM     29  C   LIG A   1      -5.399  -2.712 124.029  0.00  0.00    +0.132 C 
ATOM     30  O   LIG A   1      -5.618  -2.069 123.013  0.00  0.00    -0.298 OA
ENDBRANCH  27  29
ENDBRANCH   1  27
TORSDOF 4
ENDMDL
MODEL 2
REMARK VINA RESULT:      -7.7      6.665      8.598
REMARK  Name = NuBBE_1140
REMARK  8 active torsions:
REMARK  status: ('A' for Active; 'I' for Inactive)
REMARK    1  A    between atoms: C_1  and  C_2
REMARK    2  A    between atoms: C_2  and  C_3
REMARK    3  A    between atoms: C_3  and  C_4
REMARK    4  A    between atoms: C_7  and  O_29
REMARK    5  A    between atoms: C_8  and  O_9
REMARK    6  A    between atoms: O_9  and  C_10
REMARK    7  A    between atoms: N_16  and  C_17
REMARK    8  A    between atoms: O_29  and  C_30
REMARK                            x       y       z     vdW  Elec       q    Type
REMARK                         _______ _______ _______ _____ _____    ______ ____
ROOT
ATOM      1  C   LIG A   1      -8.056   6.283 130.075  0.00  0.00    +0.115 C 
ATOM      2  C   LIG A   1      -9.520   6.473 130.488  0.00  0.00    +0.026 A 
ATOM      3  C   LIG A   1     -10.415   7.284 129.746  0.00  0.00    +0.167 A 
ATOM      4  C   LIG A   1     -11.698   7.547 130.263  0.00  0.00    +0.162 A 
ATOM      5  C   LIG A   1     -12.100   6.921 131.448  0.00  0.00    +0.050 A 
ATOM      6  C   LIG A   1     -11.241   6.055 132.128  0.00  0.00    +0.012 A 
ATOM      7  C   LIG A   1      -9.942   5.816 131.668  0.00  0.00    -0.007 A 
ATOM      8  C   LIG A   1      -9.026   4.844 132.312  0.00  0.00    +0.004 A 
ATOM      9  C   LIG A   1      -7.925   4.338 131.568  0.00  0.00    +0.046 A 
ATOM     10  N   LIG A   1      -7.651   4.864 130.273  0.00  0.00    -0.324 N 
ATOM     11  C   LIG A   1      -8.089   3.971 129.190  0.00  0.00    +0.130 C 
ATOM     12  C   LIG A   1      -7.084   3.315 132.112  0.00  0.00    +0.007 A 
ATOM     13  C   LIG A   1      -7.356   2.825 133.424  0.00  0.00    -0.012 A 
ATOM     14  C   LIG A   1      -8.408   3.374 134.160  0.00  0.00    +0.009 A 
ATOM     15  C   LIG A   1      -9.226   4.365 133.615  0.00  0.00    +0.011 A 
ATOM     16  C   LIG A   1      -6.580   1.796 133.985  0.00  0.00    +0.058 A 
ATOM     17  C   LIG A   1      -5.555   1.264 133.238  0.00  0.00    +0.167 A 
ATOM     18  C   LIG A   1      -5.262   1.735 131.986  0.00  0.00    +0.167 A 
ATOM     19  O   LIG A   1      -4.220   1.073 131.414  0.00  0.00    -0.453 OA
ATOM     20  C   LIG A   1      -3.917   0.106 132.441  0.00  0.00    +0.466 C 
ATOM     21  O   LIG A   1      -4.736   0.249 133.620  0.00  0.00    -0.453 OA
ATOM     22  C   LIG A   1      -5.984   2.760 131.413  0.00  0.00    +0.060 A 
ENDROOT
BRANCH   4  23
ATOM     23  O   LIG A   1     -12.530   8.409 129.597  0.00  0.00    -0.491 OA
ATOM     24  C   LIG A   1     -13.457   7.815 128.690  0.00  0.00    +0.277 C 
ENDBRANCH   4  23
BRANCH   3  25
ATOM     25  O   LIG A   1      -9.896   7.818 128.592  0.00  0.00    -0.491 OA
ATOM     26  C   LIG A   1     -10.306   7.253 127.348  0.00  0.00    +0.277 C 
ENDBRANCH   3  25
BRANCH   1  27
ATOM     27  C   LIG A   1      -7.143   7.227 130.881  0.00  0.00    +0.101 C 
BRANCH  27  29
ATOM     28  C   LIG A   1      -4.957   6.476 132.024  0.00  0.00    +0.086 C 
ATOM     29  C   LIG A   1      -5.673   6.880 130.749  0.00  0.00    +0.132 C 
ATOM     30  O   LIG A   1      -5.046   7.040 129.711  0.00  0.00    -0.298 OA
ENDBRANCH  27  29
ENDBRANCH   1  27
TORSDOF 4
ENDMDL
MODEL 3
REMARK VINA RESULT:      -7.6      2.727      4.655
REMARK  Name = NuBBE_1140
REMARK  8 active torsions:
REMARK  status: ('A' for Active; 'I' for Inactive)
REMARK    1  A    between atoms: C_1  and  C_2
REMARK    2  A    between atoms: C_2  and  C_3
REMARK    3  A    between atoms: C_3  and  C_4
REMARK    4  A    between atoms: C_7  and  O_29
REMARK    5  A    between atoms: C_8  and  O_9
REMARK    6  A    between atoms: O_9  and  C_10
REMARK    7  A    between atoms: N_16  and  C_17
REMARK    8  A    between atoms: O_29  and  C_30
REMARK                            x       y       z     vdW  Elec       q    Type
REMARK                         _______ _______ _______ _____ _____    ______ ____
ROOT
ATOM      1  C   LIG A   1      -7.147   2.085 126.534  0.00  0.00    +0.115 C 
ATOM      2  C   LIG A   1      -7.827   1.863 125.179  0.00  0.00    +0.026 A 
ATOM      3  C   LIG A   1      -7.831   2.854 124.165  0.00  0.00    +0.167 A 
ATOM      4  C   LIG A   1      -8.609   2.653 123.007  0.00  0.00    +0.162 A 
ATOM      5  C   LIG A   1      -9.280   1.437 122.837  0.00  0.00    +0.050 A 
ATOM      6  C   LIG A   1      -9.200   0.432 123.802  0.00  0.00    +0.012 A 
ATOM      7  C   LIG A   1      -8.480   0.622 124.987  0.00  0.00    -0.007 A 
ATOM      8  C   LIG A   1      -8.303  -0.444 126.001  0.00  0.00    +0.004 A 
ATOM      9  C   LIG A   1      -7.234  -0.336 126.934  0.00  0.00    +0.046 A 
ATOM     10  N   LIG A   1      -6.439   0.845 126.958  0.00  0.00    -0.324 N 
ATOM     11  C   LIG A   1      -5.131   0.665 126.312  0.00  0.00    +0.130 C 
ATOM     12  C   LIG A   1      -6.960  -1.397 127.856  0.00  0.00    +0.007 A 
ATOM     13  C   LIG A   1      -7.789  -2.557 127.837  0.00  0.00    -0.012 A 
ATOM     14  C   LIG A   1      -8.866  -2.620 126.951  0.00  0.00    +0.009 A 
ATOM     15  C   LIG A   1      -9.118  -1.583 126.052  0.00  0.00    +0.011 A 
ATOM     16  C   LIG A   1      -7.535  -3.639 128.698  0.00  0.00    +0.058 A 
ATOM     17  C   LIG A   1      -6.462  -3.558 129.556  0.00  0.00    +0.167 A 
ATOM     18  C   LIG A   1      -5.667  -2.445 129.606  0.00  0.00    +0.167 A 
ATOM     19  O   LIG A   1      -4.660  -2.567 130.512  0.00  0.00    -0.453 OA
ATOM     20  C   LIG A   1      -4.896  -3.905 131.000  0.00  0.00    +0.466 C 
ATOM     21  O   LIG A   1      -6.065  -4.526 130.425  0.00  0.00    -0.453 OA
ATOM     22  C   LIG A   1      -5.901  -1.354 128.796  0.00  0.00    +0.060 A 
ENDROOT
BRANCH   4  23
ATOM     23  O   LIG A   1      -8.692   3.649 122.070  0.00  0.00    -0.491 OA
ATOM     24  C   LIG A   1      -7.783   3.562 120.975  0.00  0.00    +0.277 C 
ENDBRANCH   4  23
BRANCH   3  25
ATOM     25  O   LIG A   1      -7.114   3.988 124.456  0.00  0.00    -0.491 OA
ATOM     26  C   LIG A   1      -5.783   4.087 123.954  0.00  0.00    +0.277 C 
ENDBRANCH   3  25
BRANCH   1  27
ATOM     27  C   LIG A   1      -8.182   2.510 127.593  0.00  0.00    +0.101 C 
BRANCH  27  29
ATOM     28  C   LIG A   1      -7.196   4.076 129.389  0.00  0.00    +0.086 C 
ATOM     29  C   LIG A   1      -7.969   3.926 128.093  0.00  0.00    +0.132 C 
ATOM     30  O   LIG A   1      -8.496   4.897 127.570  0.00  0.00    -0.298 OA
ENDBRANCH  27  29
ENDBRANCH   1  27
TORSDOF 4
ENDMDL
MODEL 4
REMARK VINA RESULT:      -7.5      2.304      7.666
REMARK  Name = NuBBE_1140
REMARK  8 active torsions:
REMARK  status: ('A' for Active; 'I' for Inactive)
REMARK    1  A    between atoms: C_1  and  C_2
REMARK    2  A    between atoms: C_2  and  C_3
REMARK    3  A    between atoms: C_3  and  C_4
REMARK    4  A    between atoms: C_7  and  O_29
REMARK    5  A    between atoms: C_8  and  O_9
REMARK    6  A    between atoms: O_9  and  C_10
REMARK    7  A    between atoms: N_16  and  C_17
REMARK    8  A    between atoms: O_29  and  C_30
REMARK                            x       y       z     vdW  Elec       q    Type
REMARK                         _______ _______ _______ _____ _____    ______ ____
ROOT
ATOM      1  C   LIG A   1      -5.240  -1.173 129.797  0.00  0.00    +0.115 C 
ATOM      2  C   LIG A   1      -6.159  -1.377 131.007  0.00  0.00    +0.026 A 
ATOM      3  C   LIG A   1      -5.867  -0.822 132.279  0.00  0.00    +0.167 A 
ATOM      4  C   LIG A   1      -6.664  -1.178 133.385  0.00  0.00    +0.162 A 
ATOM      5  C   LIG A   1      -7.785  -1.990 133.188  0.00  0.00    +0.050 A 
ATOM      6  C   LIG A   1      -8.115  -2.461 131.915  0.00  0.00    +0.012 A 
ATOM      7  C   LIG A   1      -7.314  -2.170 130.806  0.00  0.00    -0.007 A 
ATOM      8  C   LIG A   1      -7.668  -2.581 129.426  0.00  0.00    +0.004 A 
ATOM      9  C   LIG A   1      -7.069  -1.901 128.330  0.00  0.00    +0.046 A 
ATOM     10  N   LIG A   1      -6.054  -0.933 128.573  0.00  0.00    -0.324 N 
ATOM     11  C   LIG A   1      -6.544   0.449 128.455  0.00  0.00    +0.130 C 
ATOM     12  C   LIG A   1      -7.468  -2.191 126.986  0.00  0.00    +0.007 A 
ATOM     13  C   LIG A   1      -8.462  -3.188 126.762  0.00  0.00    -0.012 A 
ATOM     14  C   LIG A   1      -8.999  -3.883 127.848  0.00  0.00    +0.009 A 
ATOM     15  C   LIG A   1      -8.607  -3.586 129.154  0.00  0.00    +0.011 A 
ATOM     16  C   LIG A   1      -8.911  -3.481 125.462  0.00  0.00    +0.058 A 
ATOM     17  C   LIG A   1      -8.376  -2.777 124.408  0.00  0.00    +0.167 A 
ATOM     18  C   LIG A   1      -7.404  -1.831 124.598  0.00  0.00    +0.167 A 
ATOM     19  O   LIG A   1      -7.014  -1.247 123.433  0.00  0.00    -0.453 OA
ATOM     20  C   LIG A   1      -7.883  -1.913 122.493  0.00  0.00    +0.466 C 
ATOM     21  O   LIG A   1      -8.723  -2.916 123.101  0.00  0.00    -0.453 OA
ATOM     22  C   LIG A   1      -6.920  -1.536 125.855  0.00  0.00    +0.060 A 
ENDROOT
BRANCH   4  23
ATOM     23  O   LIG A   1      -6.326  -0.722 134.633  0.00  0.00    -0.491 OA
ATOM     24  C   LIG A   1      -5.928  -1.712 135.579  0.00  0.00    +0.277 C 
ENDBRANCH   4  23
BRANCH   3  25
ATOM     25  O   LIG A   1      -4.749  -0.027 132.324  0.00  0.00    -0.491 OA
ATOM     26  C   LIG A   1      -4.930   1.387 132.290  0.00  0.00    +0.277 C 
ENDBRANCH   3  25
BRANCH   1  27
ATOM     27  C   LIG A   1      -4.321  -2.394 129.608  0.00  0.00    +0.101 C 
BRANCH  27  29
ATOM     28  C   LIG A   1      -4.060  -3.943 131.654  0.00  0.00    +0.086 C 
ATOM     29  C   LIG A   1      -3.550  -2.753 130.864  0.00  0.00    +0.132 C 
ATOM     30  O   LIG A   1      -2.648  -2.057 131.307  0.00  0.00    -0.298 OA
ENDBRANCH  27  29
ENDBRANCH   1  27
TORSDOF 4
ENDMDL
MODEL 5
REMARK VINA RESULT:      -7.4      2.522      7.011
REMARK  Name = NuBBE_1140
REMARK  8 active torsions:
REMARK  status: ('A' for Active; 'I' for Inactive)
REMARK    1  A    between atoms: C_1  and  C_2
REMARK    2  A    between atoms: C_2  and  C_3
REMARK    3  A    between atoms: C_3  and  C_4
REMARK    4  A    between atoms: C_7  and  O_29
REMARK    5  A    between atoms: C_8  and  O_9
REMARK    6  A    between atoms: O_9  and  C_10
REMARK    7  A    between atoms: N_16  and  C_17
REMARK    8  A    between atoms: O_29  and  C_30
REMARK                            x       y       z     vdW  Elec       q    Type
REMARK                         _______ _______ _______ _____ _____    ______ ____
ROOT
ATOM      1  C   LIG A   1      -7.026  -0.902 130.218  0.00  0.00    +0.115 C 
ATOM      2  C   LIG A   1      -7.567   0.486 130.580  0.00  0.00    +0.026 A 
ATOM      3  C   LIG A   1      -7.488   1.008 131.895  0.00  0.00    +0.167 A 
ATOM      4  C   LIG A   1      -8.144   2.217 132.198  0.00  0.00    +0.162 A 
ATOM      5  C   LIG A   1      -8.775   2.929 131.172  0.00  0.00    +0.050 A 
ATOM      6  C   LIG A   1      -8.774   2.449 129.861  0.00  0.00    +0.012 A 
ATOM      7  C   LIG A   1      -8.177   1.225 129.539  0.00  0.00    -0.007 A 
ATOM      8  C   LIG A   1      -8.083   0.717 128.149  0.00  0.00    +0.004 A 
ATOM      9  C   LIG A   1      -7.113  -0.278 127.845  0.00  0.00    +0.046 A 
ATOM     10  N   LIG A   1      -6.344  -0.854 128.895  0.00  0.00    -0.324 N 
ATOM     11  C   LIG A   1      -4.975  -0.319 128.959  0.00  0.00    +0.130 C 
ATOM     12  C   LIG A   1      -6.913  -0.714 126.496  0.00  0.00    +0.007 A 
ATOM     13  C   LIG A   1      -7.717  -0.148 125.463  0.00  0.00    -0.012 A 
ATOM     14  C   LIG A   1      -8.701   0.787 125.790  0.00  0.00    +0.009 A 
ATOM     15  C   LIG A   1      -8.881   1.210 127.107  0.00  0.00    +0.011 A 
ATOM     16  C   LIG A   1      -7.532  -0.518 124.119  0.00  0.00    +0.058 A 
ATOM     17  C   LIG A   1      -6.550  -1.434 123.820  0.00  0.00    +0.167 A 
ATOM     18  C   LIG A   1      -5.782  -2.006 124.798  0.00  0.00    +0.167 A 
ATOM     19  O   LIG A   1      -4.867  -2.878 124.295  0.00  0.00    -0.453 OA
ATOM     20  C   LIG A   1      -5.127  -2.758 122.881  0.00  0.00    +0.466 C 
ATOM     21  O   LIG A   1      -6.224  -1.872 122.575  0.00  0.00    -0.453 OA
ATOM     22  C   LIG A   1      -5.953  -1.688 126.129  0.00  0.00    +0.060 A 
ENDROOT
BRANCH   4  23
ATOM     23  O   LIG A   1      -8.152   2.675 133.490  0.00  0.00    -0.491 OA
ATOM     24  C   LIG A   1      -9.110   3.686 133.795  0.00  0.00    +0.277 C 
ENDBRANCH   4  23
BRANCH   3  25
ATOM     25  O   LIG A   1      -6.821   0.215 132.797  0.00  0.00    -0.491 OA
ATOM     26  C   LIG A   1      -5.461   0.529 133.088  0.00  0.00    +0.277 C 
ENDBRANCH   3  25
BRANCH   1  27
ATOM     27  C   LIG A   1      -8.167  -1.937 130.204  0.00  0.00    +0.101 C 
BRANCH  27  29
ATOM     28  C   LIG A   1      -8.628  -3.677 128.358  0.00  0.00    +0.086 C 
ATOM     29  C   LIG A   1      -7.775  -3.239 129.533  0.00  0.00    +0.132 C 
ATOM     30  O   LIG A   1      -6.909  -3.978 129.979  0.00  0.00    -0.298 OA
ENDBRANCH  27  29
ENDBRANCH   1  27
TORSDOF 4
ENDMDL
MODEL 6
REMARK VINA RESULT:      -7.4      3.708      6.179
REMARK  Name = NuBBE_1140
REMARK  8 active torsions:
REMARK  status: ('A' for Active; 'I' for Inactive)
REMARK    1  A    between atoms: C_1  and  C_2
REMARK    2  A    between atoms: C_2  and  C_3
REMARK    3  A    between atoms: C_3  and  C_4
REMARK    4  A    between atoms: C_7  and  O_29
REMARK    5  A    between atoms: C_8  and  O_9
REMARK    6  A    between atoms: O_9  and  C_10
REMARK    7  A    between atoms: N_16  and  C_17
REMARK    8  A    between atoms: O_29  and  C_30
REMARK                            x       y       z     vdW  Elec       q    Type
REMARK                         _______ _______ _______ _____ _____    ______ ____
ROOT
ATOM      1  C   LIG A   1      -7.988   1.265 126.017  0.00  0.00    +0.115 C 
ATOM      2  C   LIG A   1      -7.118   0.030 126.274  0.00  0.00    +0.026 A 
ATOM      3  C   LIG A   1      -6.379  -0.601 125.241  0.00  0.00    +0.167 A 
ATOM      4  C   LIG A   1      -5.728  -1.823 125.505  0.00  0.00    +0.162 A 
ATOM      5  C   LIG A   1      -5.740  -2.336 126.806  0.00  0.00    +0.050 A 
ATOM      6  C   LIG A   1      -6.398  -1.663 127.837  0.00  0.00    +0.012 A 
ATOM      7  C   LIG A   1      -7.098  -0.476 127.595  0.00  0.00    -0.007 A 
ATOM      8  C   LIG A   1      -7.742   0.312 128.673  0.00  0.00    +0.004 A 
ATOM      9  C   LIG A   1      -8.045   1.682 128.437  0.00  0.00    +0.046 A 
ATOM     10  N   LIG A   1      -7.841   2.233 127.140  0.00  0.00    -0.324 N 
ATOM     11  C   LIG A   1      -6.624   3.053 127.053  0.00  0.00    +0.130 C 
ATOM     12  C   LIG A   1      -8.562   2.507 129.486  0.00  0.00    +0.007 A 
ATOM     13  C   LIG A   1      -8.790   1.927 130.769  0.00  0.00    -0.012 A 
ATOM     14  C   LIG A   1      -8.538   0.567 130.965  0.00  0.00    +0.009 A 
ATOM     15  C   LIG A   1      -8.026  -0.224 129.936  0.00  0.00    +0.011 A 
ATOM     16  C   LIG A   1      -9.263   2.706 131.839  0.00  0.00    +0.058 A 
ATOM     17  C   LIG A   1      -9.494   4.045 131.625  0.00  0.00    +0.167 A 
ATOM     18  C   LIG A   1      -9.304   4.617 130.396  0.00  0.00    +0.167 A 
ATOM     19  O   LIG A   1      -9.582   5.949 130.396  0.00  0.00    -0.453 OA
ATOM     20  C   LIG A   1      -9.934   6.153 131.780  0.00  0.00    +0.466 C 
ATOM     21  O   LIG A   1      -9.919   4.938 132.559  0.00  0.00    -0.453 OA
ATOM     22  C   LIG A   1      -8.867   3.880 129.317  0.00  0.00    +0.060 A 
ENDROOT
BRANCH   4  23
ATOM     23  O   LIG A   1      -5.096  -2.484 124.485  0.00  0.00    -0.491 OA
ATOM     24  C   LIG A   1      -5.653  -3.741 124.108  0.00  0.00    +0.277 C 
ENDBRANCH   4  23
BRANCH   3  25
ATOM     25  O   LIG A   1      -6.438   0.023 124.019  0.00  0.00    -0.491 OA
ATOM     26  C   LIG A   1      -7.222  -0.584 122.994  0.00  0.00    +0.277 C 
ENDBRANCH   3  25
BRANCH   1  27
ATOM     27  C   LIG A   1      -9.463   0.856 125.841  0.00  0.00    +0.101 C 
BRANCH  27  29
ATOM     28  C   LIG A   1      -9.215   2.312 123.727  0.00  0.00    +0.086 C 
ATOM     29  C   LIG A   1     -10.057   1.341 124.533  0.00  0.00    +0.132 C 
ATOM     30  O   LIG A   1     -11.204   1.085 124.193  0.00  0.00    -0.298 OA
ENDBRANCH  27  29
ENDBRANCH   1  27
TORSDOF 4
ENDMDL
MODEL 7
REMARK VINA RESULT:      -7.3      2.349      3.981
REMARK  Name = NuBBE_1140
REMARK  8 active torsions:
REMARK  status: ('A' for Active; 'I' for Inactive)
REMARK    1  A    between atoms: C_1  and  C_2
REMARK    2  A    between atoms: C_2  and  C_3
REMARK    3  A    between atoms: C_3  and  C_4
REMARK    4  A    between atoms: C_7  and  O_29
REMARK    5  A    between atoms: C_8  and  O_9
REMARK    6  A    between atoms: O_9  and  C_10
REMARK    7  A    between atoms: N_16  and  C_17
REMARK    8  A    between atoms: O_29  and  C_30
REMARK                            x       y       z     vdW  Elec       q    Type
REMARK                         _______ _______ _______ _____ _____    ______ ____
ROOT
ATOM      1  C   LIG A   1      -5.348  -1.516 127.832  0.00  0.00    +0.115 C 
ATOM      2  C   LIG A   1      -6.589  -2.352 127.502  0.00  0.00    +0.026 A 
ATOM      3  C   LIG A   1      -6.968  -2.646 126.168  0.00  0.00    +0.167 A 
ATOM      4  C   LIG A   1      -8.203  -3.280 125.925  0.00  0.00    +0.162 A 
ATOM      5  C   LIG A   1      -8.982  -3.697 127.009  0.00  0.00    +0.050 A 
ATOM      6  C   LIG A   1      -8.559  -3.481 128.322  0.00  0.00    +0.012 A 
ATOM      7  C   LIG A   1      -7.364  -2.806 128.595  0.00  0.00    -0.007 A 
ATOM      8  C   LIG A   1      -6.838  -2.625 129.970  0.00  0.00    +0.004 A 
ATOM      9  C   LIG A   1      -5.457  -2.335 130.145  0.00  0.00    +0.046 A 
ATOM     10  N   LIG A   1      -4.638  -2.100 129.004  0.00  0.00    -0.324 N 
ATOM     11  C   LIG A   1      -3.790  -3.253 128.663  0.00  0.00    +0.130 C 
ATOM     12  C   LIG A   1      -4.886  -2.265 131.456  0.00  0.00    +0.007 A 
ATOM     13  C   LIG A   1      -5.731  -2.470 132.587  0.00  0.00    -0.012 A 
ATOM     14  C   LIG A   1      -7.095  -2.700 132.395  0.00  0.00    +0.009 A 
ATOM     15  C   LIG A   1      -7.637  -2.774 131.111  0.00  0.00    +0.011 A 
ATOM     16  C   LIG A   1      -5.209  -2.446 133.892  0.00  0.00    +0.058 A 
ATOM     17  C   LIG A   1      -3.860  -2.228 134.056  0.00  0.00    +0.167 A 
ATOM     18  C   LIG A   1      -3.035  -2.006 132.986  0.00  0.00    +0.167 A 
ATOM     19  O   LIG A   1      -1.741  -1.819 133.360  0.00  0.00    -0.453 OA
ATOM     20  C   LIG A   1      -1.845  -1.987 134.789  0.00  0.00    +0.466 C 
ATOM     21  O   LIG A   1      -3.197  -2.207 135.242  0.00  0.00    -0.453 OA
ATOM     22  C   LIG A   1      -3.516  -1.996 131.694  0.00  0.00    +0.060 A 
ENDROOT
BRANCH   4  23
ATOM     23  O   LIG A   1      -8.617  -3.477 124.634  0.00  0.00    -0.491 OA
ATOM     24  C   LIG A   1      -9.210  -2.354 123.984  0.00  0.00    +0.277 C 
ENDBRANCH   4  23
BRANCH   3  25
ATOM     25  O   LIG A   1      -6.100  -2.196 125.204  0.00  0.00    -0.491 OA
ATOM     26  C   LIG A   1      -5.317  -3.161 124.504  0.00  0.00    +0.277 C 
ENDBRANCH   3  25
BRANCH   1  27
ATOM     27  C   LIG A   1      -5.743  -0.053 128.110  0.00  0.00    +0.101 C 
BRANCH  27  29
ATOM     28  C   LIG A   1      -7.177   1.142 126.331  0.00  0.00    +0.086 C 
ATOM     29  C   LIG A   1      -5.796   0.792 126.852  0.00  0.00    +0.132 C 
ATOM     30  O   LIG A   1      -4.799   1.074 126.202  0.00  0.00    -0.298 OA
ENDBRANCH  27  29
ENDBRANCH   1  27
TORSDOF 4
ENDMDL
MODEL 8
REMARK VINA RESULT:      -7.3      2.762      4.932
REMARK  Name = NuBBE_1140
REMARK  8 active torsions:
REMARK  status: ('A' for Active; 'I' for Inactive)
REMARK    1  A    between atoms: C_1  and  C_2
REMARK    2  A    between atoms: C_2  and  C_3
REMARK    3  A    between atoms: C_3  and  C_4
REMARK    4  A    between atoms: C_7  and  O_29
REMARK    5  A    between atoms: C_8  and  O_9
REMARK    6  A    between atoms: O_9  and  C_10
REMARK    7  A    between atoms: N_16  and  C_17
REMARK    8  A    between atoms: O_29  and  C_30
REMARK                            x       y       z     vdW  Elec       q    Type
REMARK                         _______ _______ _______ _____ _____    ______ ____
ROOT
ATOM      1  C   LIG A   1      -7.272   1.311 129.468  0.00  0.00    +0.115 C 
ATOM      2  C   LIG A   1      -7.769   1.074 128.038  0.00  0.00    +0.026 A 
ATOM      3  C   LIG A   1      -8.048   2.143 127.149  0.00  0.00    +0.167 A 
ATOM      4  C   LIG A   1      -8.652   1.867 125.906  0.00  0.00    +0.162 A 
ATOM      5  C   LIG A   1      -8.872   0.537 125.534  0.00  0.00    +0.050 A 
ATOM      6  C   LIG A   1      -8.514  -0.514 126.380  0.00  0.00    +0.012 A 
ATOM      7  C   LIG A   1      -7.962  -0.271 127.642  0.00  0.00    -0.007 A 
ATOM      8  C   LIG A   1      -7.494  -1.354 128.539  0.00  0.00    +0.004 A 
ATOM      9  C   LIG A   1      -6.573  -1.040 129.576  0.00  0.00    +0.046 A 
ATOM     10  N   LIG A   1      -6.217   0.318 129.812  0.00  0.00    -0.324 N 
ATOM     11  C   LIG A   1      -4.891   0.661 129.278  0.00  0.00    +0.130 C 
ATOM     12  C   LIG A   1      -6.011  -2.074 130.391  0.00  0.00    +0.007 A 
ATOM     13  C   LIG A   1      -6.406  -3.425 130.160  0.00  0.00    -0.012 A 
ATOM     14  C   LIG A   1      -7.353  -3.707 129.173  0.00  0.00    +0.009 A 
ATOM     15  C   LIG A   1      -7.888  -2.690 128.380  0.00  0.00    +0.011 A 
ATOM     16  C   LIG A   1      -5.854  -4.477 130.911  0.00  0.00    +0.058 A 
ATOM     17  C   LIG A   1      -4.915  -4.177 131.871  0.00  0.00    +0.167 A 
ATOM     18  C   LIG A   1      -4.538  -2.885 132.125  0.00  0.00    +0.167 A 
ATOM     19  O   LIG A   1      -3.597  -2.803 133.104  0.00  0.00    -0.453 OA
ATOM     20  C   LIG A   1      -3.400  -4.199 133.409  0.00  0.00    +0.466 C 
ATOM     21  O   LIG A   1      -4.265  -5.076 132.657  0.00  0.00    -0.453 OA
ATOM     22  C   LIG A   1      -5.077  -1.826 131.428  0.00  0.00    +0.060 A 
ENDROOT
BRANCH   4  23
ATOM     23  O   LIG A   1      -9.012   2.905 125.087  0.00  0.00    -0.491 OA
ATOM     24  C   LIG A   1      -8.223   3.083 123.912  0.00  0.00    +0.277 C 
ENDBRANCH   4  23
BRANCH   3  25
ATOM     25  O   LIG A   1      -7.764   3.395 127.636  0.00  0.00    -0.491 OA
ATOM     26  C   LIG A   1      -6.540   4.009 127.237  0.00  0.00    +0.277 C 
ENDBRANCH   3  25
BRANCH   1  27
ATOM     27  C   LIG A   1      -8.444   1.227 130.465  0.00  0.00    +0.101 C 
BRANCH  27  29
ATOM     28  C   LIG A   1      -9.385   2.335 132.595  0.00  0.00    +0.086 C 
ATOM     29  C   LIG A   1      -8.591   2.477 131.310  0.00  0.00    +0.132 C 
ATOM     30  O   LIG A   1      -8.216   3.578 130.932  0.00  0.00    -0.298 OA
ENDBRANCH  27  29
ENDBRANCH   1  27
TORSDOF 4
ENDMDL
MODEL 9
REMARK VINA RESULT:      -7.2      2.724      4.866
REMARK  Name = NuBBE_1140
REMARK  8 active torsions:
REMARK  status: ('A' for Active; 'I' for Inactive)
REMARK    1  A    between atoms: C_1  and  C_2
REMARK    2  A    between atoms: C_2  and  C_3
REMARK    3  A    between atoms: C_3  and  C_4
REMARK    4  A    between atoms: C_7  and  O_29
REMARK    5  A    between atoms: C_8  and  O_9
REMARK    6  A    between atoms: O_9  and  C_10
REMARK    7  A    between atoms: N_16  and  C_17
REMARK    8  A    between atoms: O_29  and  C_30
REMARK                            x       y       z     vdW  Elec       q    Type
REMARK                         _______ _______ _______ _____ _____    ______ ____
ROOT
ATOM      1  C   LIG A   1      -7.441   0.614 129.261  0.00  0.00    +0.115 C 
ATOM      2  C   LIG A   1      -7.889  -0.226 128.061  0.00  0.00    +0.026 A 
ATOM      3  C   LIG A   1      -8.544   0.345 126.940  0.00  0.00    +0.167 A 
ATOM      4  C   LIG A   1      -9.073  -0.500 125.945  0.00  0.00    +0.162 A 
ATOM      5  C   LIG A   1      -8.853  -1.878 126.031  0.00  0.00    +0.050 A 
ATOM      6  C   LIG A   1      -8.132  -2.425 127.094  0.00  0.00    +0.012 A 
ATOM      7  C   LIG A   1      -7.640  -1.618 128.126  0.00  0.00    -0.007 A 
ATOM      8  C   LIG A   1      -6.803  -2.144 129.230  0.00  0.00    +0.004 A 
ATOM      9  C   LIG A   1      -5.996  -1.239 129.974  0.00  0.00    +0.046 A 
ATOM     10  N   LIG A   1      -6.103   0.160 129.730  0.00  0.00    -0.324 N 
ATOM     11  C   LIG A   1      -4.989   0.685 128.926  0.00  0.00    +0.130 C 
ATOM     12  C   LIG A   1      -5.089  -1.719 130.972  0.00  0.00    +0.007 A 
ATOM     13  C   LIG A   1      -5.022  -3.121 131.223  0.00  0.00    -0.012 A 
ATOM     14  C   LIG A   1      -5.862  -3.989 130.521  0.00  0.00    +0.009 A 
ATOM     15  C   LIG A   1      -6.736  -3.508 129.545  0.00  0.00    +0.011 A 
ATOM     16  C   LIG A   1      -4.121  -3.643 132.168  0.00  0.00    +0.058 A 
ATOM     17  C   LIG A   1      -3.297  -2.770 132.841  0.00  0.00    +0.167 A 
ATOM     18  C   LIG A   1      -3.361  -1.419 132.631  0.00  0.00    +0.167 A 
ATOM     19  O   LIG A   1      -2.461  -0.734 133.387  0.00  0.00    -0.453 OA
ATOM     20  C   LIG A   1      -1.799  -1.819 134.070  0.00  0.00    +0.466 C 
ATOM     21  O   LIG A   1      -2.353  -3.115 133.757  0.00  0.00    -0.453 OA
ATOM     22  C   LIG A   1      -4.250  -0.869 131.733  0.00  0.00    +0.060 A 
ENDROOT
BRANCH   4  23
ATOM     23  O   LIG A   1      -9.791   0.043 124.912  0.00  0.00    -0.491 OA
ATOM     24  C   LIG A   1      -9.133   0.098 123.648  0.00  0.00    +0.277 C 
ENDBRANCH   4  23
BRANCH   3  25
ATOM     25  O   LIG A   1      -8.672   1.712 126.977  0.00  0.00    -0.491 OA
ATOM     26  C   LIG A   1      -7.750   2.493 126.219  0.00  0.00    +0.277 C 
ENDBRANCH   3  25
BRANCH   1  27
ATOM     27  C   LIG A   1      -8.476   0.522 130.399  0.00  0.00    +0.101 C 
BRANCH  27  29
ATOM     28  C   LIG A   1      -9.609   1.967 132.209  0.00  0.00    +0.086 C 
ATOM     29  C   LIG A   1      -9.018   1.876 130.815  0.00  0.00    +0.132 C 
ATOM     30  O   LIG A   1      -9.107   2.819 130.042  0.00  0.00    -0.298 OA
ENDBRANCH  27  29
ENDBRANCH   1  27
TORSDOF 4
ENDMDL
