MODEL 1
REMARK VINA RESULT:      -7.2      0.000      0.000
REMARK  Name = NuBBE_944
REMARK  4 active torsions:
REMARK  status: ('A' for Active; 'I' for Inactive)
REMARK    1  A    between atoms: N_7  and  C_8
REMARK    2  A    between atoms: C_9  and  O_10
REMARK    3  A    between atoms: C_15  and  C_18
REMARK    4  A    between atoms: C_15  and  C_19
REMARK                            x       y       z     vdW  Elec       q    Type
REMARK                         _______ _______ _______ _____ _____    ______ ____
ROOT
ATOM      1  O   LIG A   1      -9.189   2.324 125.130  0.00  0.00    -0.267 OA
ATOM      2  C   LIG A   1      -8.245   2.810 124.452  0.00  0.00    +0.262 A 
ATOM      3  C   LIG A   1      -7.022   3.249 125.152  0.00  0.00    +0.082 A 
ATOM      4  C   LIG A   1      -5.957   3.683 124.433  0.00  0.00    +0.143 A 
ATOM      5  C   LIG A   1      -6.049   3.847 122.982  0.00  0.00    +0.045 A 
ATOM      6  C   LIG A   1      -7.244   3.521 122.312  0.00  0.00    +0.097 A 
ATOM      7  N   LIG A   1      -8.307   2.917 123.072  0.00  0.00    -0.307 N 
ATOM      8  C   LIG A   1      -9.418   2.227 122.447  0.00  0.00    +0.152 C 
ATOM      9  C   LIG A   1      -7.309   3.809 120.936  0.00  0.00    +0.141 A 
ATOM     10  C   LIG A   1      -6.201   4.279 120.226  0.00  0.00    +0.047 A 
ATOM     11  C   LIG A   1      -5.017   4.558 120.892  0.00  0.00    +0.004 A 
ATOM     12  C   LIG A   1      -4.950   4.370 122.268  0.00  0.00    +0.014 A 
ATOM     13  O   LIG A   1      -4.746   4.057 125.008  0.00  0.00    -0.481 OA
ATOM     14  C   LIG A   1      -4.599   3.684 126.393  0.00  0.00    +0.123 C 
ATOM     15  C   LIG A   1      -5.897   3.947 127.123  0.00  0.00    +0.020 C 
ATOM     16  C   LIG A   1      -6.994   3.390 126.604  0.00  0.00    +0.016 C 
ATOM     17  C   LIG A   1      -4.246   2.174 126.490  0.00  0.00    +0.060 C 
ATOM     18  C   LIG A   1      -3.434   4.474 126.985  0.00  0.00    +0.060 C 
ENDROOT
BRANCH   9  19
ATOM     19  O   LIG A   1      -8.466   3.767 120.205  0.00  0.00    -0.505 OA
ATOM     20  H   LIG A   1      -9.069   3.178 120.689  0.00  0.00    +0.292 HD
ENDBRANCH   9  19
TORSDOF 1
ENDMDL
MODEL 2
REMARK VINA RESULT:      -7.0      7.632      9.253
REMARK  Name = NuBBE_944
REMARK  4 active torsions:
REMARK  status: ('A' for Active; 'I' for Inactive)
REMARK    1  A    between atoms: N_7  and  C_8
REMARK    2  A    between atoms: C_9  and  O_10
REMARK    3  A    between atoms: C_15  and  C_18
REMARK    4  A    between atoms: C_15  and  C_19
REMARK                            x       y       z     vdW  Elec       q    Type
REMARK                         _______ _______ _______ _____ _____    ______ ____
ROOT
ATOM      1  O   LIG A   1      -5.439   4.600 134.133  0.00  0.00    -0.267 OA
ATOM      2  C   LIG A   1      -6.164   5.208 133.302  0.00  0.00    +0.262 A 
ATOM      3  C   LIG A   1      -5.524   6.134 132.347  0.00  0.00    +0.082 A 
ATOM      4  C   LIG A   1      -6.272   6.723 131.381  0.00  0.00    +0.143 A 
ATOM      5  C   LIG A   1      -7.725   6.559 131.353  0.00  0.00    +0.045 A 
ATOM      6  C   LIG A   1      -8.360   5.753 132.318  0.00  0.00    +0.097 A 
ATOM      7  N   LIG A   1      -7.535   5.014 133.236  0.00  0.00    -0.307 N 
ATOM      8  C   LIG A   1      -8.040   3.905 134.021  0.00  0.00    +0.152 C 
ATOM      9  C   LIG A   1      -9.768   5.727 132.309  0.00  0.00    +0.141 A 
ATOM     10  C   LIG A   1     -10.512   6.365 131.313  0.00  0.00    +0.047 A 
ATOM     11  C   LIG A   1      -9.871   7.123 130.345  0.00  0.00    +0.004 A 
ATOM     12  C   LIG A   1      -8.486   7.243 130.381  0.00  0.00    +0.014 A 
ATOM     13  O   LIG A   1      -5.739   7.560 130.405  0.00  0.00    -0.481 OA
ATOM     14  C   LIG A   1      -4.301   7.534 130.311  0.00  0.00    +0.123 C 
ATOM     15  C   LIG A   1      -3.709   7.523 131.704  0.00  0.00    +0.020 C 
ATOM     16  C   LIG A   1      -4.141   6.563 132.525  0.00  0.00    +0.016 C 
ATOM     17  C   LIG A   1      -3.852   6.258 129.547  0.00  0.00    +0.060 C 
ATOM     18  C   LIG A   1      -3.847   8.747 129.502  0.00  0.00    +0.060 C 
ENDROOT
BRANCH   9  19
ATOM     19  O   LIG A   1     -10.523   5.185 133.313  0.00  0.00    -0.505 OA
ATOM     20  H   LIG A   1      -9.989   5.258 134.122  0.00  0.00    +0.292 HD
ENDBRANCH   9  19
TORSDOF 1
ENDMDL
MODEL 3
REMARK VINA RESULT:      -6.7      6.274      9.105
REMARK  Name = NuBBE_944
REMARK  4 active torsions:
REMARK  status: ('A' for Active; 'I' for Inactive)
REMARK    1  A    between atoms: N_7  and  C_8
REMARK    2  A    between atoms: C_9  and  O_10
REMARK    3  A    between atoms: C_15  and  C_18
REMARK    4  A    between atoms: C_15  and  C_19
REMARK                            x       y       z     vdW  Elec       q    Type
REMARK                         _______ _______ _______ _____ _____    ______ ____
ROOT
ATOM      1  O   LIG A   1      -9.006   5.653 126.866  0.00  0.00    -0.267 OA
ATOM      2  C   LIG A   1      -9.232   5.750 128.101  0.00  0.00    +0.262 A 
ATOM      3  C   LIG A   1     -10.217   6.746 128.566  0.00  0.00    +0.082 A 
ATOM      4  C   LIG A   1     -10.548   6.799 129.880  0.00  0.00    +0.143 A 
ATOM      5  C   LIG A   1      -9.846   5.974 130.864  0.00  0.00    +0.045 A 
ATOM      6  C   LIG A   1      -8.836   5.086 130.445  0.00  0.00    +0.097 A 
ATOM      7  N   LIG A   1      -8.610   4.932 129.032  0.00  0.00    -0.307 N 
ATOM      8  C   LIG A   1      -7.867   3.818 128.477  0.00  0.00    +0.152 C 
ATOM      9  C   LIG A   1      -8.120   4.406 131.448  0.00  0.00    +0.141 A 
ATOM     10  C   LIG A   1      -8.470   4.500 132.798  0.00  0.00    +0.047 A 
ATOM     11  C   LIG A   1      -9.493   5.348 133.193  0.00  0.00    +0.004 A 
ATOM     12  C   LIG A   1     -10.159   6.103 132.233  0.00  0.00    +0.014 A 
ATOM     13  O   LIG A   1     -11.509   7.665 130.393  0.00  0.00    -0.481 OA
ATOM     14  C   LIG A   1     -12.335   8.302 129.398  0.00  0.00    +0.123 C 
ATOM     15  C   LIG A   1     -11.472   8.733 128.233  0.00  0.00    +0.020 C 
ATOM     16  C   LIG A   1     -10.713   7.787 127.673  0.00  0.00    +0.016 C 
ATOM     17  C   LIG A   1     -13.415   7.301 128.901  0.00  0.00    +0.060 C 
ATOM     18  C   LIG A   1     -13.055   9.480 130.049  0.00  0.00    +0.060 C 
ENDROOT
BRANCH   9  19
ATOM     19  O   LIG A   1      -6.972   3.698 131.214  0.00  0.00    -0.505 OA
ATOM     20  H   LIG A   1      -7.200   3.029 130.547  0.00  0.00    +0.292 HD
ENDBRANCH   9  19
TORSDOF 1
ENDMDL
MODEL 4
REMARK VINA RESULT:      -6.7      3.868      6.163
REMARK  Name = NuBBE_944
REMARK  4 active torsions:
REMARK  status: ('A' for Active; 'I' for Inactive)
REMARK    1  A    between atoms: N_7  and  C_8
REMARK    2  A    between atoms: C_9  and  O_10
REMARK    3  A    between atoms: C_15  and  C_18
REMARK    4  A    between atoms: C_15  and  C_19
REMARK                            x       y       z     vdW  Elec       q    Type
REMARK                         _______ _______ _______ _____ _____    ______ ____
ROOT
ATOM      1  O   LIG A   1      -7.439   1.154 127.741  0.00  0.00    -0.267 OA
ATOM      2  C   LIG A   1      -7.821   0.510 126.727  0.00  0.00    +0.262 A 
ATOM      3  C   LIG A   1      -8.059   1.245 125.469  0.00  0.00    +0.082 A 
ATOM      4  C   LIG A   1      -8.374   0.560 124.342  0.00  0.00    +0.143 A 
ATOM      5  C   LIG A   1      -8.611  -0.883 124.383  0.00  0.00    +0.045 A 
ATOM      6  C   LIG A   1      -8.479  -1.583 125.599  0.00  0.00    +0.097 A 
ATOM      7  N   LIG A   1      -7.993  -0.865 126.748  0.00  0.00    -0.307 N 
ATOM      8  C   LIG A   1      -7.488  -1.534 127.930  0.00  0.00    +0.152 C 
ATOM      9  C   LIG A   1      -8.832  -2.946 125.598  0.00  0.00    +0.141 A 
ATOM     10  C   LIG A   1      -9.177  -3.619 124.423  0.00  0.00    +0.047 A 
ATOM     11  C   LIG A   1      -9.264  -2.926 123.225  0.00  0.00    +0.004 A 
ATOM     12  C   LIG A   1      -9.010  -1.558 123.211  0.00  0.00    +0.014 A 
ATOM     13  O   LIG A   1      -8.556   1.167 123.103  0.00  0.00    -0.481 OA
ATOM     14  C   LIG A   1      -8.108   2.536 123.034  0.00  0.00    +0.123 C 
ATOM     15  C   LIG A   1      -8.514   3.260 124.299  0.00  0.00    +0.020 C 
ATOM     16  C   LIG A   1      -8.133   2.702 125.451  0.00  0.00    +0.016 C 
ATOM     17  C   LIG A   1      -6.561   2.570 122.890  0.00  0.00    +0.060 C 
ATOM     18  C   LIG A   1      -8.707   3.178 121.784  0.00  0.00    +0.060 C 
ENDROOT
BRANCH   9  19
ATOM     19  O   LIG A   1      -8.978  -3.693 126.736  0.00  0.00    -0.505 OA
ATOM     20  H   LIG A   1      -9.786  -3.368 127.169  0.00  0.00    +0.292 HD
ENDBRANCH   9  19
TORSDOF 1
ENDMDL
MODEL 5
REMARK VINA RESULT:      -6.6      4.746      6.183
REMARK  Name = NuBBE_944
REMARK  4 active torsions:
REMARK  status: ('A' for Active; 'I' for Inactive)
REMARK    1  A    between atoms: N_7  and  C_8
REMARK    2  A    between atoms: C_9  and  O_10
REMARK    3  A    between atoms: C_15  and  C_18
REMARK    4  A    between atoms: C_15  and  C_19
REMARK                            x       y       z     vdW  Elec       q    Type
REMARK                         _______ _______ _______ _____ _____    ______ ____
ROOT
ATOM      1  O   LIG A   1      -8.728   1.937 126.923  0.00  0.00    -0.267 OA
ATOM      2  C   LIG A   1      -8.573   0.744 126.548  0.00  0.00    +0.262 A 
ATOM      3  C   LIG A   1      -7.799  -0.174 127.406  0.00  0.00    +0.082 A 
ATOM      4  C   LIG A   1      -7.704  -1.485 127.070  0.00  0.00    +0.143 A 
ATOM      5  C   LIG A   1      -8.244  -1.976 125.802  0.00  0.00    +0.045 A 
ATOM      6  C   LIG A   1      -8.903  -1.088 124.929  0.00  0.00    +0.097 A 
ATOM      7  N   LIG A   1      -9.130   0.261 125.374  0.00  0.00    -0.307 N 
ATOM      8  C   LIG A   1     -10.084   1.145 124.734  0.00  0.00    +0.152 C 
ATOM      9  C   LIG A   1      -9.298  -1.594 123.676  0.00  0.00    +0.141 A 
ATOM     10  C   LIG A   1      -9.164  -2.946 123.350  0.00  0.00    +0.047 A 
ATOM     11  C   LIG A   1      -8.549  -3.817 124.236  0.00  0.00    +0.004 A 
ATOM     12  C   LIG A   1      -8.065  -3.328 125.445  0.00  0.00    +0.014 A 
ATOM     13  O   LIG A   1      -7.046  -2.429 127.853  0.00  0.00    -0.481 OA
ATOM     14  C   LIG A   1      -6.717  -1.983 129.184  0.00  0.00    +0.123 C 
ATOM     15  C   LIG A   1      -6.204  -0.561 129.122  0.00  0.00    +0.020 C 
ATOM     16  C   LIG A   1      -6.992   0.329 128.512  0.00  0.00    +0.016 C 
ATOM     17  C   LIG A   1      -7.986  -2.038 130.078  0.00  0.00    +0.060 C 
ATOM     18  C   LIG A   1      -5.687  -2.942 129.775  0.00  0.00    +0.060 C 
ENDROOT
BRANCH   9  19
ATOM     19  O   LIG A   1      -9.734  -0.808 122.643  0.00  0.00    -0.505 OA
ATOM     20  H   LIG A   1      -9.257  -1.113 121.853  0.00  0.00    +0.292 HD
ENDBRANCH   9  19
TORSDOF 1
ENDMDL
MODEL 6
REMARK VINA RESULT:      -6.6      2.707      4.274
REMARK  Name = NuBBE_944
REMARK  4 active torsions:
REMARK  status: ('A' for Active; 'I' for Inactive)
REMARK    1  A    between atoms: N_7  and  C_8
REMARK    2  A    between atoms: C_9  and  O_10
REMARK    3  A    between atoms: C_15  and  C_18
REMARK    4  A    between atoms: C_15  and  C_19
REMARK                            x       y       z     vdW  Elec       q    Type
REMARK                         _______ _______ _______ _____ _____    ______ ____
ROOT
ATOM      1  O   LIG A   1      -8.899   3.156 122.293  0.00  0.00    -0.267 OA
ATOM      2  C   LIG A   1      -8.375   2.301 123.055  0.00  0.00    +0.262 A 
ATOM      3  C   LIG A   1      -7.176   2.679 123.827  0.00  0.00    +0.082 A 
ATOM      4  C   LIG A   1      -6.655   1.807 124.726  0.00  0.00    +0.143 A 
ATOM      5  C   LIG A   1      -7.184   0.448 124.847  0.00  0.00    +0.045 A 
ATOM      6  C   LIG A   1      -8.269   0.044 124.046  0.00  0.00    +0.097 A 
ATOM      7  N   LIG A   1      -8.906   1.030 123.213  0.00  0.00    -0.307 N 
ATOM      8  C   LIG A   1     -10.218   0.831 122.631  0.00  0.00    +0.152 C 
ATOM      9  C   LIG A   1      -8.658  -1.307 124.125  0.00  0.00    +0.141 A 
ATOM     10  C   LIG A   1      -8.085  -2.188 125.045  0.00  0.00    +0.047 A 
ATOM     11  C   LIG A   1      -7.043  -1.765 125.856  0.00  0.00    +0.004 A 
ATOM     12  C   LIG A   1      -6.575  -0.461 125.737  0.00  0.00    +0.014 A 
ATOM     13  O   LIG A   1      -5.564   2.106 125.538  0.00  0.00    -0.481 OA
ATOM     14  C   LIG A   1      -5.201   3.500 125.567  0.00  0.00    +0.123 C 
ATOM     15  C   LIG A   1      -5.279   4.067 124.166  0.00  0.00    +0.020 C 
ATOM     16  C   LIG A   1      -6.437   3.899 123.522  0.00  0.00    +0.016 C 
ATOM     17  C   LIG A   1      -6.178   4.273 126.494  0.00  0.00    +0.060 C 
ATOM     18  C   LIG A   1      -3.799   3.623 126.160  0.00  0.00    +0.060 C 
ENDROOT
BRANCH   9  19
ATOM     19  O   LIG A   1      -9.531  -1.898 123.250  0.00  0.00    -0.505 OA
ATOM     20  H   LIG A   1     -10.350  -2.053 123.750  0.00  0.00    +0.292 HD
ENDBRANCH   9  19
TORSDOF 1
ENDMDL
MODEL 7
REMARK VINA RESULT:      -6.5      4.798      6.080
REMARK  Name = NuBBE_944
REMARK  4 active torsions:
REMARK  status: ('A' for Active; 'I' for Inactive)
REMARK    1  A    between atoms: N_7  and  C_8
REMARK    2  A    between atoms: C_9  and  O_10
REMARK    3  A    between atoms: C_15  and  C_18
REMARK    4  A    between atoms: C_15  and  C_19
REMARK                            x       y       z     vdW  Elec       q    Type
REMARK                         _______ _______ _______ _____ _____    ______ ____
ROOT
ATOM      1  O   LIG A   1      -9.065  -3.653 124.469  0.00  0.00    -0.267 OA
ATOM      2  C   LIG A   1      -8.880  -2.527 125.002  0.00  0.00    +0.262 A 
ATOM      3  C   LIG A   1      -8.562  -2.468 126.442  0.00  0.00    +0.082 A 
ATOM      4  C   LIG A   1      -8.262  -1.275 127.014  0.00  0.00    +0.143 A 
ATOM      5  C   LIG A   1      -8.380  -0.029 126.257  0.00  0.00    +0.045 A 
ATOM      6  C   LIG A   1      -8.776  -0.064 124.905  0.00  0.00    +0.097 A 
ATOM      7  N   LIG A   1      -8.936  -1.348 124.276  0.00  0.00    -0.307 N 
ATOM      8  C   LIG A   1      -8.990  -1.510 122.836  0.00  0.00    +0.152 C 
ATOM      9  C   LIG A   1      -8.982   1.172 124.264  0.00  0.00    +0.141 A 
ATOM     10  C   LIG A   1      -8.688   2.387 124.889  0.00  0.00    +0.047 A 
ATOM     11  C   LIG A   1      -8.260   2.404 126.208  0.00  0.00    +0.004 A 
ATOM     12  C   LIG A   1      -8.135   1.203 126.898  0.00  0.00    +0.014 A 
ATOM     13  O   LIG A   1      -7.892  -1.139 128.349  0.00  0.00    -0.481 OA
ATOM     14  C   LIG A   1      -7.570  -2.377 129.013  0.00  0.00    +0.123 C 
ATOM     15  C   LIG A   1      -8.572  -3.436 128.610  0.00  0.00    +0.020 C 
ATOM     16  C   LIG A   1      -8.730  -3.637 127.299  0.00  0.00    +0.016 C 
ATOM     17  C   LIG A   1      -6.142  -2.830 128.602  0.00  0.00    +0.060 C 
ATOM     18  C   LIG A   1      -7.566  -2.131 130.520  0.00  0.00    +0.060 C 
ENDROOT
BRANCH   9  19
ATOM     19  O   LIG A   1      -9.584   1.302 123.041  0.00  0.00    -0.505 OA
ATOM     20  H   LIG A   1     -10.498   1.578 123.219  0.00  0.00    +0.292 HD
ENDBRANCH   9  19
TORSDOF 1
ENDMDL
MODEL 8
REMARK VINA RESULT:      -6.3      3.031      4.550
REMARK  Name = NuBBE_944
REMARK  4 active torsions:
REMARK  status: ('A' for Active; 'I' for Inactive)
REMARK    1  A    between atoms: N_7  and  C_8
REMARK    2  A    between atoms: C_9  and  O_10
REMARK    3  A    between atoms: C_15  and  C_18
REMARK    4  A    between atoms: C_15  and  C_19
REMARK                            x       y       z     vdW  Elec       q    Type
REMARK                         _______ _______ _______ _____ _____    ______ ____
ROOT
ATOM      1  O   LIG A   1      -9.264   1.022 122.964  0.00  0.00    -0.267 OA
ATOM      2  C   LIG A   1      -8.299   1.244 123.743  0.00  0.00    +0.262 A 
ATOM      3  C   LIG A   1      -8.000   0.258 124.800  0.00  0.00    +0.082 A 
ATOM      4  C   LIG A   1      -6.908   0.427 125.586  0.00  0.00    +0.143 A 
ATOM      5  C   LIG A   1      -6.096   1.641 125.490  0.00  0.00    +0.045 A 
ATOM      6  C   LIG A   1      -6.427   2.634 124.548  0.00  0.00    +0.097 A 
ATOM      7  N   LIG A   1      -7.494   2.365 123.620  0.00  0.00    -0.307 N 
ATOM      8  C   LIG A   1      -7.688   3.136 122.408  0.00  0.00    +0.152 C 
ATOM      9  C   LIG A   1      -5.679   3.827 124.582  0.00  0.00    +0.141 A 
ATOM     10  C   LIG A   1      -4.573   3.981 125.421  0.00  0.00    +0.047 A 
ATOM     11  C   LIG A   1      -4.234   2.977 126.316  0.00  0.00    +0.004 A 
ATOM     12  C   LIG A   1      -5.009   1.824 126.370  0.00  0.00    +0.014 A 
ATOM     13  O   LIG A   1      -6.520  -0.484 126.563  0.00  0.00    -0.481 OA
ATOM     14  C   LIG A   1      -7.189  -1.759 126.496  0.00  0.00    +0.123 C 
ATOM     15  C   LIG A   1      -8.658  -1.538 126.207  0.00  0.00    +0.020 C 
ATOM     16  C   LIG A   1      -8.947  -0.802 125.131  0.00  0.00    +0.016 C 
ATOM     17  C   LIG A   1      -6.561  -2.616 125.364  0.00  0.00    +0.060 C 
ATOM     18  C   LIG A   1      -6.966  -2.493 127.816  0.00  0.00    +0.060 C 
ENDROOT
BRANCH   9  19
ATOM     19  O   LIG A   1      -6.027   4.961 123.897  0.00  0.00    -0.505 OA
ATOM     20  H   LIG A   1      -6.930   5.180 124.180  0.00  0.00    +0.292 HD
ENDBRANCH   9  19
TORSDOF 1
ENDMDL
MODEL 9
REMARK VINA RESULT:      -6.3      7.945      9.897
REMARK  Name = NuBBE_944
REMARK  4 active torsions:
REMARK  status: ('A' for Active; 'I' for Inactive)
REMARK    1  A    between atoms: N_7  and  C_8
REMARK    2  A    between atoms: C_9  and  O_10
REMARK    3  A    between atoms: C_15  and  C_18
REMARK    4  A    between atoms: C_15  and  C_19
REMARK                            x       y       z     vdW  Elec       q    Type
REMARK                         _______ _______ _______ _____ _____    ______ ____
ROOT
ATOM      1  O   LIG A   1      -3.789   4.820 134.345  0.00  0.00    -0.267 OA
ATOM      2  C   LIG A   1      -4.764   5.257 133.678  0.00  0.00    +0.262 A 
ATOM      3  C   LIG A   1      -4.507   6.242 132.608  0.00  0.00    +0.082 A 
ATOM      4  C   LIG A   1      -5.528   6.651 131.814  0.00  0.00    +0.143 A 
ATOM      5  C   LIG A   1      -6.903   6.232 132.085  0.00  0.00    +0.045 A 
ATOM      6  C   LIG A   1      -7.175   5.367 133.162  0.00  0.00    +0.097 A 
ATOM      7  N   LIG A   1      -6.062   4.822 133.895  0.00  0.00    -0.307 N 
ATOM      8  C   LIG A   1      -6.191   3.674 134.770  0.00  0.00    +0.152 C 
ATOM      9  C   LIG A   1      -8.527   5.093 133.442  0.00  0.00    +0.141 A 
ATOM     10  C   LIG A   1      -9.559   5.550 132.618  0.00  0.00    +0.047 A 
ATOM     11  C   LIG A   1      -9.273   6.369 131.536  0.00  0.00    +0.004 A 
ATOM     12  C   LIG A   1      -7.954   6.732 131.288  0.00  0.00    +0.014 A 
ATOM     13  O   LIG A   1      -5.361   7.528 130.746  0.00  0.00    -0.481 OA
ATOM     14  C   LIG A   1      -3.991   7.752 130.360  0.00  0.00    +0.123 C 
ATOM     15  C   LIG A   1      -3.140   7.902 131.602  0.00  0.00    +0.020 C 
ATOM     16  C   LIG A   1      -3.217   6.914 132.498  0.00  0.00    +0.016 C 
ATOM     17  C   LIG A   1      -3.482   6.545 129.525  0.00  0.00    +0.060 C 
ATOM     18  C   LIG A   1      -3.935   8.992 129.471  0.00  0.00    +0.060 C 
ENDROOT
BRANCH   9  19
ATOM     19  O   LIG A   1      -8.955   4.467 134.582  0.00  0.00    -0.505 OA
ATOM     20  H   LIG A   1      -9.784   4.018 134.348  0.00  0.00    +0.292 HD
ENDBRANCH   9  19
TORSDOF 1
ENDMDL
