MODEL 1
REMARK VINA RESULT:      -8.0      0.000      0.000
REMARK  Name = NuBBE_1564
REMARK  12 active torsions:
REMARK  status: ('A' for Active; 'I' for Inactive)
REMARK    1  A    between atoms: C_12  and  C_13
REMARK    2  A    between atoms: C_13  and  C_14
REMARK    3  A    between atoms: C_14  and  C_15
REMARK    4  A    between atoms: C_15  and  C_16
REMARK    5  A    between atoms: C_16  and  C_17
REMARK    6  A    between atoms: C_17  and  C_18
REMARK    7  A    between atoms: C_18  and  C_19
REMARK    8  A    between atoms: C_19  and  C_20
REMARK    9  A    between atoms: C_20  and  C_21
REMARK   10  A    between atoms: C_21  and  C_22
REMARK   11  A    between atoms: C_22  and  C_23
REMARK   12  A    between atoms: C_23  and  C_24
REMARK                            x       y       z     vdW  Elec       q    Type
REMARK                         _______ _______ _______ _____ _____    ______ ____
ROOT
ATOM      1  O   LIG A   1      -7.582   2.185 127.384  0.00  0.00    -0.287 OA
ATOM      2  C   LIG A   1      -6.750   2.579 126.550  0.00  0.00    +0.200 A 
ATOM      3  C   LIG A   1      -5.366   2.870 126.928  0.00  0.00    +0.064 A 
ATOM      4  C   LIG A   1      -4.870   2.518 128.186  0.00  0.00    +0.015 A 
ATOM      5  C   LIG A   1      -3.522   2.724 128.472  0.00  0.00    +0.001 A 
ATOM      6  C   LIG A   1      -2.678   3.299 127.517  0.00  0.00    +0.004 A 
ATOM      7  C   LIG A   1      -3.184   3.680 126.274  0.00  0.00    +0.047 A 
ATOM      8  C   LIG A   1      -4.526   3.454 125.978  0.00  0.00    +0.139 A 
ATOM      9  O   LIG A   1      -4.959   3.795 124.726  0.00  0.00    -0.454 OA
ATOM     10  C   LIG A   1      -6.193   3.333 124.336  0.00  0.00    +0.149 A 
ATOM     11  C   LIG A   1      -7.093   2.731 125.133  0.00  0.00    +0.083 A 
ATOM     12  C   LIG A   1      -8.421   2.236 124.632  0.00  0.00    +0.211 C 
ATOM     13  O   LIG A   1      -8.845   2.931 123.440  0.00  0.00    -0.483 OA
ATOM     14  C   LIG A   1      -7.875   3.335 122.562  0.00  0.00    +0.132 A 
ATOM     15  C   LIG A   1      -6.547   3.521 122.932  0.00  0.00    +0.059 A 
ATOM     16  C   LIG A   1      -5.621   3.907 121.951  0.00  0.00    +0.015 A 
ATOM     17  C   LIG A   1      -6.014   4.059 120.617  0.00  0.00    +0.001 A 
ATOM     18  C   LIG A   1      -7.349   3.892 120.266  0.00  0.00    +0.004 A 
ATOM     19  C   LIG A   1      -8.281   3.584 121.254  0.00  0.00    +0.046 A 
ENDROOT
BRANCH  12  20
ATOM     20  C   LIG A   1      -8.426   0.695 124.436  0.00  0.00    +0.050 C 
BRANCH  20  21
ATOM     21  C   LIG A   1      -7.048   0.040 124.232  0.00  0.00    +0.004 C 
BRANCH  21  22
ATOM     22  C   LIG A   1      -6.816  -0.646 122.881  0.00  0.00    +0.000 C 
BRANCH  22  23
ATOM     23  C   LIG A   1      -6.345  -2.100 123.020  0.00  0.00    -0.000 C 
BRANCH  23  24
ATOM     24  C   LIG A   1      -6.553  -2.698 124.415  0.00  0.00    -0.000 C 
BRANCH  24  25
ATOM     25  C   LIG A   1      -7.597  -3.801 124.457  0.00  0.00    -0.000 C 
BRANCH  25  26
ATOM     26  C   LIG A   1      -9.017  -3.229 124.510  0.00  0.00    -0.000 C 
BRANCH  26  27
ATOM     27  C   LIG A   1      -9.366  -2.664 125.892  0.00  0.00    -0.000 C 
BRANCH  27  28
ATOM     28  C   LIG A   1      -8.930  -3.575 127.050  0.00  0.00    -0.000 C 
BRANCH  28  29
ATOM     29  C   LIG A   1      -8.069  -2.827 128.067  0.00  0.00    -0.000 C 
BRANCH  29  30
ATOM     30  C   LIG A   1      -7.703  -1.398 127.647  0.00  0.00    -0.003 C 
ATOM     31  C   LIG A   1      -6.218  -1.069 127.744  0.00  0.00    +0.004 C 
ENDBRANCH  29  30
ENDBRANCH  28  29
ENDBRANCH  27  28
ENDBRANCH  26  27
ENDBRANCH  25  26
ENDBRANCH  24  25
ENDBRANCH  23  24
ENDBRANCH  22  23
ENDBRANCH  21  22
ENDBRANCH  20  21
ENDBRANCH  12  20
TORSDOF 11
ENDMDL
MODEL 2
REMARK VINA RESULT:      -7.9      1.222      2.141
REMARK  Name = NuBBE_1564
REMARK  12 active torsions:
REMARK  status: ('A' for Active; 'I' for Inactive)
REMARK    1  A    between atoms: C_12  and  C_13
REMARK    2  A    between atoms: C_13  and  C_14
REMARK    3  A    between atoms: C_14  and  C_15
REMARK    4  A    between atoms: C_15  and  C_16
REMARK    5  A    between atoms: C_16  and  C_17
REMARK    6  A    between atoms: C_17  and  C_18
REMARK    7  A    between atoms: C_18  and  C_19
REMARK    8  A    between atoms: C_19  and  C_20
REMARK    9  A    between atoms: C_20  and  C_21
REMARK   10  A    between atoms: C_21  and  C_22
REMARK   11  A    between atoms: C_22  and  C_23
REMARK   12  A    between atoms: C_23  and  C_24
REMARK                            x       y       z     vdW  Elec       q    Type
REMARK                         _______ _______ _______ _____ _____    ______ ____
ROOT
ATOM      1  O   LIG A   1      -8.197   1.916 126.493  0.00  0.00    -0.287 OA
ATOM      2  C   LIG A   1      -7.240   2.378 125.851  0.00  0.00    +0.200 A 
ATOM      3  C   LIG A   1      -5.941   2.618 126.480  0.00  0.00    +0.064 A 
ATOM      4  C   LIG A   1      -5.659   2.144 127.764  0.00  0.00    +0.015 A 
ATOM      5  C   LIG A   1      -4.379   2.307 128.289  0.00  0.00    +0.001 A 
ATOM      6  C   LIG A   1      -3.392   2.962 127.548  0.00  0.00    +0.004 A 
ATOM      7  C   LIG A   1      -3.685   3.463 126.280  0.00  0.00    +0.047 A 
ATOM      8  C   LIG A   1      -4.957   3.281 125.744  0.00  0.00    +0.139 A 
ATOM      9  O   LIG A   1      -5.176   3.743 124.475  0.00  0.00    -0.454 OA
ATOM     10  C   LIG A   1      -6.325   3.333 123.843  0.00  0.00    +0.149 A 
ATOM     11  C   LIG A   1      -7.342   2.667 124.418  0.00  0.00    +0.083 A 
ATOM     12  C   LIG A   1      -8.565   2.235 123.657  0.00  0.00    +0.211 C 
ATOM     13  O   LIG A   1      -8.788   3.044 122.482  0.00  0.00    -0.483 OA
ATOM     14  C   LIG A   1      -7.687   3.519 121.821  0.00  0.00    +0.132 A 
ATOM     15  C   LIG A   1      -6.440   3.656 122.423  0.00  0.00    +0.059 A 
ATOM     16  C   LIG A   1      -5.366   4.124 121.652  0.00  0.00    +0.015 A 
ATOM     17  C   LIG A   1      -5.531   4.404 120.291  0.00  0.00    +0.001 A 
ATOM     18  C   LIG A   1      -6.787   4.285 119.708  0.00  0.00    +0.004 A 
ATOM     19  C   LIG A   1      -7.870   3.895 120.493  0.00  0.00    +0.046 A 
ENDROOT
BRANCH  12  20
ATOM     20  C   LIG A   1      -8.529   0.719 123.317  0.00  0.00    +0.050 C 
BRANCH  20  21
ATOM     21  C   LIG A   1      -9.825   0.133 122.728  0.00  0.00    +0.004 C 
BRANCH  21  22
ATOM     22  C   LIG A   1      -9.819  -1.372 122.440  0.00  0.00    +0.000 C 
BRANCH  22  23
ATOM     23  C   LIG A   1      -8.771  -2.135 123.261  0.00  0.00    -0.000 C 
BRANCH  23  24
ATOM     24  C   LIG A   1      -9.346  -3.256 124.132  0.00  0.00    -0.000 C 
BRANCH  24  25
ATOM     25  C   LIG A   1      -9.025  -3.107 125.610  0.00  0.00    -0.000 C 
BRANCH  25  26
ATOM     26  C   LIG A   1      -8.754  -1.646 125.982  0.00  0.00    -0.000 C 
BRANCH  26  27
ATOM     27  C   LIG A   1      -7.393  -1.461 126.661  0.00  0.00    -0.000 C 
BRANCH  27  28
ATOM     28  C   LIG A   1      -6.234  -1.290 125.667  0.00  0.00    -0.000 C 
BRANCH  28  29
ATOM     29  C   LIG A   1      -5.581  -2.628 125.323  0.00  0.00    -0.000 C 
BRANCH  29  30
ATOM     30  C   LIG A   1      -5.138  -2.751 123.860  0.00  0.00    -0.003 C 
ATOM     31  C   LIG A   1      -4.359  -4.020 123.537  0.00  0.00    +0.004 C 
ENDBRANCH  29  30
ENDBRANCH  28  29
ENDBRANCH  27  28
ENDBRANCH  26  27
ENDBRANCH  25  26
ENDBRANCH  24  25
ENDBRANCH  23  24
ENDBRANCH  22  23
ENDBRANCH  21  22
ENDBRANCH  20  21
ENDBRANCH  12  20
TORSDOF 11
ENDMDL
MODEL 3
REMARK VINA RESULT:      -7.8      0.942      1.686
REMARK  Name = NuBBE_1564
REMARK  12 active torsions:
REMARK  status: ('A' for Active; 'I' for Inactive)
REMARK    1  A    between atoms: C_12  and  C_13
REMARK    2  A    between atoms: C_13  and  C_14
REMARK    3  A    between atoms: C_14  and  C_15
REMARK    4  A    between atoms: C_15  and  C_16
REMARK    5  A    between atoms: C_16  and  C_17
REMARK    6  A    between atoms: C_17  and  C_18
REMARK    7  A    between atoms: C_18  and  C_19
REMARK    8  A    between atoms: C_19  and  C_20
REMARK    9  A    between atoms: C_20  and  C_21
REMARK   10  A    between atoms: C_21  and  C_22
REMARK   11  A    between atoms: C_22  and  C_23
REMARK   12  A    between atoms: C_23  and  C_24
REMARK                            x       y       z     vdW  Elec       q    Type
REMARK                         _______ _______ _______ _____ _____    ______ ____
ROOT
ATOM      1  O   LIG A   1      -7.530   1.975 126.832  0.00  0.00    -0.287 OA
ATOM      2  C   LIG A   1      -6.656   2.504 126.125  0.00  0.00    +0.200 A 
ATOM      3  C   LIG A   1      -5.357   2.893 126.676  0.00  0.00    +0.064 A 
ATOM      4  C   LIG A   1      -4.967   2.497 127.958  0.00  0.00    +0.015 A 
ATOM      5  C   LIG A   1      -3.685   2.804 128.409  0.00  0.00    +0.001 A 
ATOM      6  C   LIG A   1      -2.805   3.523 127.596  0.00  0.00    +0.004 A 
ATOM      7  C   LIG A   1      -3.209   3.946 126.329  0.00  0.00    +0.047 A 
ATOM      8  C   LIG A   1      -4.482   3.620 125.867  0.00  0.00    +0.139 A 
ATOM      9  O   LIG A   1      -4.808   4.011 124.598  0.00  0.00    -0.454 OA
ATOM     10  C   LIG A   1      -5.941   3.467 124.041  0.00  0.00    +0.149 A 
ATOM     11  C   LIG A   1      -6.857   2.728 124.690  0.00  0.00    +0.083 A 
ATOM     12  C   LIG A   1      -8.067   2.150 124.010  0.00  0.00    +0.211 C 
ATOM     13  O   LIG A   1      -8.427   2.889 122.823  0.00  0.00    -0.483 OA
ATOM     14  C   LIG A   1      -7.413   3.443 122.090  0.00  0.00    +0.132 A 
ATOM     15  C   LIG A   1      -6.158   3.724 122.620  0.00  0.00    +0.059 A 
ATOM     16  C   LIG A   1      -5.174   4.264 121.778  0.00  0.00    +0.015 A 
ATOM     17  C   LIG A   1      -5.434   4.476 120.419  0.00  0.00    +0.001 A 
ATOM     18  C   LIG A   1      -6.700   4.214 119.908  0.00  0.00    +0.004 A 
ATOM     19  C   LIG A   1      -7.698   3.749 120.761  0.00  0.00    +0.046 A 
ENDROOT
BRANCH  12  20
ATOM     20  C   LIG A   1      -7.898   0.634 123.718  0.00  0.00    +0.050 C 
BRANCH  20  21
ATOM     21  C   LIG A   1      -9.187  -0.128 123.359  0.00  0.00    +0.004 C 
BRANCH  21  22
ATOM     22  C   LIG A   1      -9.053  -1.645 123.189  0.00  0.00    +0.000 C 
BRANCH  22  23
ATOM     23  C   LIG A   1      -7.699  -2.065 122.603  0.00  0.00    -0.000 C 
BRANCH  23  24
ATOM     24  C   LIG A   1      -6.925  -3.071 123.461  0.00  0.00    -0.000 C 
BRANCH  24  25
ATOM     25  C   LIG A   1      -5.478  -2.678 123.707  0.00  0.00    -0.000 C 
BRANCH  25  26
ATOM     26  C   LIG A   1      -5.355  -1.689 124.869  0.00  0.00    -0.000 C 
BRANCH  26  27
ATOM     27  C   LIG A   1      -5.916  -2.254 126.178  0.00  0.00    -0.000 C 
BRANCH  27  28
ATOM     28  C   LIG A   1      -6.855  -1.283 126.909  0.00  0.00    -0.000 C 
BRANCH  28  29
ATOM     29  C   LIG A   1      -8.318  -1.712 126.791  0.00  0.00    -0.000 C 
BRANCH  29  30
ATOM     30  C   LIG A   1      -8.518  -3.228 126.669  0.00  0.00    -0.003 C 
ATOM     31  C   LIG A   1      -8.896  -3.924 127.970  0.00  0.00    +0.004 C 
ENDBRANCH  29  30
ENDBRANCH  28  29
ENDBRANCH  27  28
ENDBRANCH  26  27
ENDBRANCH  25  26
ENDBRANCH  24  25
ENDBRANCH  23  24
ENDBRANCH  22  23
ENDBRANCH  21  22
ENDBRANCH  20  21
ENDBRANCH  12  20
TORSDOF 11
ENDMDL
MODEL 4
REMARK VINA RESULT:      -7.1      4.399      8.741
REMARK  Name = NuBBE_1564
REMARK  12 active torsions:
REMARK  status: ('A' for Active; 'I' for Inactive)
REMARK    1  A    between atoms: C_12  and  C_13
REMARK    2  A    between atoms: C_13  and  C_14
REMARK    3  A    between atoms: C_14  and  C_15
REMARK    4  A    between atoms: C_15  and  C_16
REMARK    5  A    between atoms: C_16  and  C_17
REMARK    6  A    between atoms: C_17  and  C_18
REMARK    7  A    between atoms: C_18  and  C_19
REMARK    8  A    between atoms: C_19  and  C_20
REMARK    9  A    between atoms: C_20  and  C_21
REMARK   10  A    between atoms: C_21  and  C_22
REMARK   11  A    between atoms: C_22  and  C_23
REMARK   12  A    between atoms: C_23  and  C_24
REMARK                            x       y       z     vdW  Elec       q    Type
REMARK                         _______ _______ _______ _____ _____    ______ ____
ROOT
ATOM      1  O   LIG A   1      -6.194  -0.462 129.178  0.00  0.00    -0.287 OA
ATOM      2  C   LIG A   1      -6.896  -0.555 130.199  0.00  0.00    +0.200 A 
ATOM      3  C   LIG A   1      -7.866   0.480 130.557  0.00  0.00    +0.064 A 
ATOM      4  C   LIG A   1      -8.196   1.504 129.666  0.00  0.00    +0.015 A 
ATOM      5  C   LIG A   1      -9.195   2.413 130.006  0.00  0.00    +0.001 A 
ATOM      6  C   LIG A   1      -9.847   2.316 131.238  0.00  0.00    +0.004 A 
ATOM      7  C   LIG A   1      -9.493   1.312 132.140  0.00  0.00    +0.047 A 
ATOM      8  C   LIG A   1      -8.510   0.389 131.793  0.00  0.00    +0.139 A 
ATOM      9  O   LIG A   1      -8.240  -0.608 132.689  0.00  0.00    -0.454 OA
ATOM     10  C   LIG A   1      -7.480  -1.665 132.250  0.00  0.00    +0.149 A 
ATOM     11  C   LIG A   1      -6.826  -1.726 131.077  0.00  0.00    +0.083 A 
ATOM     12  C   LIG A   1      -6.024  -2.926 130.654  0.00  0.00    +0.211 C 
ATOM     13  O   LIG A   1      -5.583  -3.710 131.783  0.00  0.00    -0.483 OA
ATOM     14  C   LIG A   1      -6.408  -3.771 132.874  0.00  0.00    +0.132 A 
ATOM     15  C   LIG A   1      -7.381  -2.815 133.144  0.00  0.00    +0.059 A 
ATOM     16  C   LIG A   1      -8.199  -2.984 134.273  0.00  0.00    +0.015 A 
ATOM     17  C   LIG A   1      -8.068  -4.114 135.087  0.00  0.00    +0.001 A 
ATOM     18  C   LIG A   1      -7.076  -5.049 134.819  0.00  0.00    +0.004 A 
ATOM     19  C   LIG A   1      -6.215  -4.842 133.743  0.00  0.00    +0.046 A 
ENDROOT
BRANCH  12  20
ATOM     20  C   LIG A   1      -6.786  -3.792 129.612  0.00  0.00    +0.050 C 
BRANCH  20  21
ATOM     21  C   LIG A   1      -8.251  -3.396 129.354  0.00  0.00    +0.004 C 
BRANCH  21  22
ATOM     22  C   LIG A   1      -8.873  -3.910 128.051  0.00  0.00    +0.000 C 
BRANCH  22  23
ATOM     23  C   LIG A   1      -8.656  -2.957 126.868  0.00  0.00    -0.000 C 
BRANCH  23  24
ATOM     24  C   LIG A   1      -9.664  -3.129 125.727  0.00  0.00    -0.000 C 
BRANCH  24  25
ATOM     25  C   LIG A   1      -9.022  -3.214 124.353  0.00  0.00    -0.000 C 
BRANCH  25  26
ATOM     26  C   LIG A   1      -8.088  -2.029 124.094  0.00  0.00    -0.000 C 
BRANCH  26  27
ATOM     27  C   LIG A   1      -7.659  -1.935 122.626  0.00  0.00    -0.000 C 
BRANCH  27  28
ATOM     28  C   LIG A   1      -6.147  -2.111 122.420  0.00  0.00    -0.000 C 
BRANCH  28  29
ATOM     29  C   LIG A   1      -5.451  -2.576 123.700  0.00  0.00    -0.000 C 
BRANCH  29  30
ATOM     30  C   LIG A   1      -4.204  -3.435 123.459  0.00  0.00    -0.003 C 
ATOM     31  C   LIG A   1      -4.444  -4.937 123.533  0.00  0.00    +0.004 C 
ENDBRANCH  29  30
ENDBRANCH  28  29
ENDBRANCH  27  28
ENDBRANCH  26  27
ENDBRANCH  25  26
ENDBRANCH  24  25
ENDBRANCH  23  24
ENDBRANCH  22  23
ENDBRANCH  21  22
ENDBRANCH  20  21
ENDBRANCH  12  20
TORSDOF 11
ENDMDL
MODEL 5
REMARK VINA RESULT:      -6.7      2.208      5.319
REMARK  Name = NuBBE_1564
REMARK  12 active torsions:
REMARK  status: ('A' for Active; 'I' for Inactive)
REMARK    1  A    between atoms: C_12  and  C_13
REMARK    2  A    between atoms: C_13  and  C_14
REMARK    3  A    between atoms: C_14  and  C_15
REMARK    4  A    between atoms: C_15  and  C_16
REMARK    5  A    between atoms: C_16  and  C_17
REMARK    6  A    between atoms: C_17  and  C_18
REMARK    7  A    between atoms: C_18  and  C_19
REMARK    8  A    between atoms: C_19  and  C_20
REMARK    9  A    between atoms: C_20  and  C_21
REMARK   10  A    between atoms: C_21  and  C_22
REMARK   11  A    between atoms: C_22  and  C_23
REMARK   12  A    between atoms: C_23  and  C_24
REMARK                            x       y       z     vdW  Elec       q    Type
REMARK                         _______ _______ _______ _____ _____    ______ ____
ROOT
ATOM      1  O   LIG A   1      -5.935   3.173 126.132  0.00  0.00    -0.287 OA
ATOM      2  C   LIG A   1      -6.296   2.554 125.118  0.00  0.00    +0.200 A 
ATOM      3  C   LIG A   1      -6.113   3.109 123.777  0.00  0.00    +0.064 A 
ATOM      4  C   LIG A   1      -5.339   4.253 123.566  0.00  0.00    +0.015 A 
ATOM      5  C   LIG A   1      -5.107   4.693 122.264  0.00  0.00    +0.001 A 
ATOM      6  C   LIG A   1      -5.665   4.010 121.180  0.00  0.00    +0.004 A 
ATOM      7  C   LIG A   1      -6.464   2.888 121.395  0.00  0.00    +0.047 A 
ATOM      8  C   LIG A   1      -6.678   2.433 122.693  0.00  0.00    +0.139 A 
ATOM      9  O   LIG A   1      -7.424   1.296 122.846  0.00  0.00    -0.454 OA
ATOM     10  C   LIG A   1      -7.413   0.694 124.081  0.00  0.00    +0.149 A 
ATOM     11  C   LIG A   1      -6.885   1.214 125.202  0.00  0.00    +0.083 A 
ATOM     12  C   LIG A   1      -6.894   0.488 126.519  0.00  0.00    +0.211 C 
ATOM     13  O   LIG A   1      -7.953  -0.491 126.591  0.00  0.00    -0.483 OA
ATOM     14  C   LIG A   1      -8.298  -1.138 125.435  0.00  0.00    +0.132 A 
ATOM     15  C   LIG A   1      -8.034  -0.625 124.170  0.00  0.00    +0.059 A 
ATOM     16  C   LIG A   1      -8.400  -1.379 123.045  0.00  0.00    +0.015 A 
ATOM     17  C   LIG A   1      -8.979  -2.644 123.190  0.00  0.00    +0.001 A 
ATOM     18  C   LIG A   1      -9.260  -3.135 124.461  0.00  0.00    +0.004 A 
ATOM     19  C   LIG A   1      -8.966  -2.353 125.575  0.00  0.00    +0.046 A 
ENDROOT
BRANCH  12  20
ATOM     20  C   LIG A   1      -5.509  -0.134 126.847  0.00  0.00    +0.050 C 
BRANCH  20  21
ATOM     21  C   LIG A   1      -5.304  -0.584 128.305  0.00  0.00    +0.004 C 
BRANCH  21  22
ATOM     22  C   LIG A   1      -5.422   0.508 129.375  0.00  0.00    +0.000 C 
BRANCH  22  23
ATOM     23  C   LIG A   1      -6.290   0.086 130.568  0.00  0.00    -0.000 C 
BRANCH  23  24
ATOM     24  C   LIG A   1      -7.723  -0.308 130.196  0.00  0.00    -0.000 C 
BRANCH  24  25
ATOM     25  C   LIG A   1      -8.082  -1.734 130.580  0.00  0.00    -0.000 C 
BRANCH  25  26
ATOM     26  C   LIG A   1      -7.910  -2.694 129.399  0.00  0.00    -0.000 C 
BRANCH  26  27
ATOM     27  C   LIG A   1      -6.885  -3.796 129.689  0.00  0.00    -0.000 C 
BRANCH  27  28
ATOM     28  C   LIG A   1      -6.338  -3.756 131.124  0.00  0.00    -0.000 C 
BRANCH  28  29
ATOM     29  C   LIG A   1      -4.842  -4.066 131.169  0.00  0.00    -0.000 C 
BRANCH  29  30
ATOM     30  C   LIG A   1      -3.977  -3.099 130.351  0.00  0.00    -0.003 C 
ATOM     31  C   LIG A   1      -3.294  -3.727 129.142  0.00  0.00    +0.004 C 
ENDBRANCH  29  30
ENDBRANCH  28  29
ENDBRANCH  27  28
ENDBRANCH  26  27
ENDBRANCH  25  26
ENDBRANCH  24  25
ENDBRANCH  23  24
ENDBRANCH  22  23
ENDBRANCH  21  22
ENDBRANCH  20  21
ENDBRANCH  12  20
TORSDOF 11
ENDMDL
MODEL 6
REMARK VINA RESULT:      -6.7      2.192      3.927
REMARK  Name = NuBBE_1564
REMARK  12 active torsions:
REMARK  status: ('A' for Active; 'I' for Inactive)
REMARK    1  A    between atoms: C_12  and  C_13
REMARK    2  A    between atoms: C_13  and  C_14
REMARK    3  A    between atoms: C_14  and  C_15
REMARK    4  A    between atoms: C_15  and  C_16
REMARK    5  A    between atoms: C_16  and  C_17
REMARK    6  A    between atoms: C_17  and  C_18
REMARK    7  A    between atoms: C_18  and  C_19
REMARK    8  A    between atoms: C_19  and  C_20
REMARK    9  A    between atoms: C_20  and  C_21
REMARK   10  A    between atoms: C_21  and  C_22
REMARK   11  A    between atoms: C_22  and  C_23
REMARK   12  A    between atoms: C_23  and  C_24
REMARK                            x       y       z     vdW  Elec       q    Type
REMARK                         _______ _______ _______ _____ _____    ______ ____
ROOT
ATOM      1  O   LIG A   1      -6.740   4.446 130.683  0.00  0.00    -0.287 OA
ATOM      2  C   LIG A   1      -6.208   4.244 129.580  0.00  0.00    +0.200 A 
ATOM      3  C   LIG A   1      -4.907   4.824 129.240  0.00  0.00    +0.064 A 
ATOM      4  C   LIG A   1      -4.117   5.447 130.209  0.00  0.00    +0.015 A 
ATOM      5  C   LIG A   1      -2.844   5.899 129.868  0.00  0.00    +0.001 A 
ATOM      6  C   LIG A   1      -2.370   5.751 128.562  0.00  0.00    +0.004 A 
ATOM      7  C   LIG A   1      -3.174   5.158 127.588  0.00  0.00    +0.047 A 
ATOM      8  C   LIG A   1      -4.438   4.686 127.932  0.00  0.00    +0.139 A 
ATOM      9  O   LIG A   1      -5.163   4.063 126.954  0.00  0.00    -0.454 OA
ATOM     10  C   LIG A   1      -6.279   3.362 127.344  0.00  0.00    +0.149 A 
ATOM     11  C   LIG A   1      -6.827   3.379 128.572  0.00  0.00    +0.083 A 
ATOM     12  C   LIG A   1      -8.043   2.571 128.932  0.00  0.00    +0.211 C 
ATOM     13  O   LIG A   1      -8.844   2.250 127.774  0.00  0.00    -0.483 OA
ATOM     14  C   LIG A   1      -8.191   2.038 126.590  0.00  0.00    +0.132 A 
ATOM     15  C   LIG A   1      -6.917   2.531 126.327  0.00  0.00    +0.059 A 
ATOM     16  C   LIG A   1      -6.319   2.232 125.093  0.00  0.00    +0.015 A 
ATOM     17  C   LIG A   1      -6.971   1.418 124.161  0.00  0.00    +0.001 A 
ATOM     18  C   LIG A   1      -8.254   0.952 124.427  0.00  0.00    +0.004 A 
ATOM     19  C   LIG A   1      -8.877   1.312 125.619  0.00  0.00    +0.046 A 
ENDROOT
BRANCH  12  20
ATOM     20  C   LIG A   1      -7.673   1.302 129.748  0.00  0.00    +0.050 C 
BRANCH  20  21
ATOM     21  C   LIG A   1      -7.757  -0.033 128.985  0.00  0.00    +0.004 C 
BRANCH  21  22
ATOM     22  C   LIG A   1      -6.452  -0.541 128.362  0.00  0.00    +0.000 C 
BRANCH  22  23
ATOM     23  C   LIG A   1      -6.683  -1.554 127.232  0.00  0.00    -0.000 C 
BRANCH  23  24
ATOM     24  C   LIG A   1      -8.156  -1.893 126.981  0.00  0.00    -0.000 C 
BRANCH  24  25
ATOM     25  C   LIG A   1      -8.362  -3.194 126.225  0.00  0.00    -0.000 C 
BRANCH  25  26
ATOM     26  C   LIG A   1      -9.267  -2.998 125.006  0.00  0.00    -0.000 C 
BRANCH  26  27
ATOM     27  C   LIG A   1      -8.549  -3.319 123.690  0.00  0.00    -0.000 C 
BRANCH  27  28
ATOM     28  C   LIG A   1      -8.229  -2.072 122.851  0.00  0.00    -0.000 C 
BRANCH  28  29
ATOM     29  C   LIG A   1      -6.738  -1.971 122.532  0.00  0.00    -0.000 C 
BRANCH  29  30
ATOM     30  C   LIG A   1      -5.822  -2.156 123.749  0.00  0.00    -0.003 C 
ATOM     31  C   LIG A   1      -4.809  -3.285 123.615  0.00  0.00    +0.004 C 
ENDBRANCH  29  30
ENDBRANCH  28  29
ENDBRANCH  27  28
ENDBRANCH  26  27
ENDBRANCH  25  26
ENDBRANCH  24  25
ENDBRANCH  23  24
ENDBRANCH  22  23
ENDBRANCH  21  22
ENDBRANCH  20  21
ENDBRANCH  12  20
TORSDOF 11
ENDMDL
MODEL 7
REMARK VINA RESULT:      -6.6      1.935      2.716
REMARK  Name = NuBBE_1564
REMARK  12 active torsions:
REMARK  status: ('A' for Active; 'I' for Inactive)
REMARK    1  A    between atoms: C_12  and  C_13
REMARK    2  A    between atoms: C_13  and  C_14
REMARK    3  A    between atoms: C_14  and  C_15
REMARK    4  A    between atoms: C_15  and  C_16
REMARK    5  A    between atoms: C_16  and  C_17
REMARK    6  A    between atoms: C_17  and  C_18
REMARK    7  A    between atoms: C_18  and  C_19
REMARK    8  A    between atoms: C_19  and  C_20
REMARK    9  A    between atoms: C_20  and  C_21
REMARK   10  A    between atoms: C_21  and  C_22
REMARK   11  A    between atoms: C_22  and  C_23
REMARK   12  A    between atoms: C_23  and  C_24
REMARK                            x       y       z     vdW  Elec       q    Type
REMARK                         _______ _______ _______ _____ _____    ______ ____
ROOT
ATOM      1  O   LIG A   1      -6.641   3.693 129.981  0.00  0.00    -0.287 OA
ATOM      2  C   LIG A   1      -6.019   4.017 128.956  0.00  0.00    +0.200 A 
ATOM      3  C   LIG A   1      -4.759   4.757 129.028  0.00  0.00    +0.064 A 
ATOM      4  C   LIG A   1      -4.097   4.944 130.245  0.00  0.00    +0.015 A 
ATOM      5  C   LIG A   1      -2.852   5.569 130.258  0.00  0.00    +0.001 A 
ATOM      6  C   LIG A   1      -2.280   6.026 129.068  0.00  0.00    +0.004 A 
ATOM      7  C   LIG A   1      -2.958   5.868 127.859  0.00  0.00    +0.047 A 
ATOM      8  C   LIG A   1      -4.192   5.224 127.840  0.00  0.00    +0.139 A 
ATOM      9  O   LIG A   1      -4.789   5.045 126.623  0.00  0.00    -0.454 OA
ATOM     10  C   LIG A   1      -5.858   4.184 126.563  0.00  0.00    +0.149 A 
ATOM     11  C   LIG A   1      -6.487   3.639 127.619  0.00  0.00    +0.083 A 
ATOM     12  C   LIG A   1      -7.643   2.689 127.477  0.00  0.00    +0.211 C 
ATOM     13  O   LIG A   1      -8.331   2.855 126.219  0.00  0.00    -0.483 OA
ATOM     14  C   LIG A   1      -7.583   3.212 125.129  0.00  0.00    +0.132 A 
ATOM     15  C   LIG A   1      -6.346   3.840 125.230  0.00  0.00    +0.059 A 
ATOM     16  C   LIG A   1      -5.641   4.137 124.054  0.00  0.00    +0.015 A 
ATOM     17  C   LIG A   1      -6.151   3.770 122.803  0.00  0.00    +0.001 A 
ATOM     18  C   LIG A   1      -7.399   3.165 122.715  0.00  0.00    +0.004 A 
ATOM     19  C   LIG A   1      -8.132   2.939 123.878  0.00  0.00    +0.046 A 
ENDROOT
BRANCH  12  20
ATOM     20  C   LIG A   1      -7.211   1.214 127.709  0.00  0.00    +0.050 C 
BRANCH  20  21
ATOM     21  C   LIG A   1      -5.705   0.927 127.570  0.00  0.00    +0.004 C 
BRANCH  21  22
ATOM     22  C   LIG A   1      -5.230   0.445 126.194  0.00  0.00    +0.000 C 
BRANCH  22  23
ATOM     23  C   LIG A   1      -6.335  -0.253 125.391  0.00  0.00    -0.000 C 
BRANCH  23  24
ATOM     24  C   LIG A   1      -6.359  -1.777 125.545  0.00  0.00    -0.000 C 
BRANCH  24  25
ATOM     25  C   LIG A   1      -7.696  -2.406 125.189  0.00  0.00    -0.000 C 
BRANCH  25  26
ATOM     26  C   LIG A   1      -8.698  -2.287 126.341  0.00  0.00    -0.000 C 
BRANCH  26  27
ATOM     27  C   LIG A   1      -8.935  -3.626 127.047  0.00  0.00    -0.000 C 
BRANCH  27  28
ATOM     28  C   LIG A   1      -8.655  -3.576 128.557  0.00  0.00    -0.000 C 
BRANCH  28  29
ATOM     29  C   LIG A   1      -7.762  -2.393 128.929  0.00  0.00    -0.000 C 
BRANCH  29  30
ATOM     30  C   LIG A   1      -6.299  -2.770 129.194  0.00  0.00    -0.003 C 
ATOM     31  C   LIG A   1      -6.109  -3.935 130.157  0.00  0.00    +0.004 C 
ENDBRANCH  29  30
ENDBRANCH  28  29
ENDBRANCH  27  28
ENDBRANCH  26  27
ENDBRANCH  25  26
ENDBRANCH  24  25
ENDBRANCH  23  24
ENDBRANCH  22  23
ENDBRANCH  21  22
ENDBRANCH  20  21
ENDBRANCH  12  20
TORSDOF 11
ENDMDL
MODEL 8
REMARK VINA RESULT:      -6.6      5.430      8.513
REMARK  Name = NuBBE_1564
REMARK  12 active torsions:
REMARK  status: ('A' for Active; 'I' for Inactive)
REMARK    1  A    between atoms: C_12  and  C_13
REMARK    2  A    between atoms: C_13  and  C_14
REMARK    3  A    between atoms: C_14  and  C_15
REMARK    4  A    between atoms: C_15  and  C_16
REMARK    5  A    between atoms: C_16  and  C_17
REMARK    6  A    between atoms: C_17  and  C_18
REMARK    7  A    between atoms: C_18  and  C_19
REMARK    8  A    between atoms: C_19  and  C_20
REMARK    9  A    between atoms: C_20  and  C_21
REMARK   10  A    between atoms: C_21  and  C_22
REMARK   11  A    between atoms: C_22  and  C_23
REMARK   12  A    between atoms: C_23  and  C_24
REMARK                            x       y       z     vdW  Elec       q    Type
REMARK                         _______ _______ _______ _____ _____    ______ ____
ROOT
ATOM      1  O   LIG A   1      -9.340   5.708 128.137  0.00  0.00    -0.287 OA
ATOM      2  C   LIG A   1      -9.598   5.814 129.348  0.00  0.00    +0.200 A 
ATOM      3  C   LIG A   1     -10.830   6.451 129.814  0.00  0.00    +0.064 A 
ATOM      4  C   LIG A   1     -11.859   6.774 128.927  0.00  0.00    +0.015 A 
ATOM      5  C   LIG A   1     -13.055   7.289 129.423  0.00  0.00    +0.001 A 
ATOM      6  C   LIG A   1     -13.215   7.503 130.795  0.00  0.00    +0.004 A 
ATOM      7  C   LIG A   1     -12.174   7.210 131.675  0.00  0.00    +0.047 A 
ATOM      8  C   LIG A   1     -10.986   6.674 131.184  0.00  0.00    +0.139 A 
ATOM      9  O   LIG A   1     -10.018   6.353 132.095  0.00  0.00    -0.454 OA
ATOM     10  C   LIG A   1      -8.967   5.583 131.657  0.00  0.00    +0.149 A 
ATOM     11  C   LIG A   1      -8.708   5.267 130.376  0.00  0.00    +0.083 A 
ATOM     12  C   LIG A   1      -7.546   4.403 129.971  0.00  0.00    +0.211 C 
ATOM     13  O   LIG A   1      -6.487   4.423 130.951  0.00  0.00    -0.483 OA
ATOM     14  C   LIG A   1      -6.843   4.539 132.268  0.00  0.00    +0.132 A 
ATOM     15  C   LIG A   1      -8.060   5.072 132.681  0.00  0.00    +0.059 A 
ATOM     16  C   LIG A   1      -8.346   5.120 134.054  0.00  0.00    +0.015 A 
ATOM     17  C   LIG A   1      -7.445   4.601 134.989  0.00  0.00    +0.001 A 
ATOM     18  C   LIG A   1      -6.222   4.093 134.565  0.00  0.00    +0.004 A 
ATOM     19  C   LIG A   1      -5.907   4.116 133.209  0.00  0.00    +0.046 A 
ENDROOT
BRANCH  12  20
ATOM     20  C   LIG A   1      -7.993   2.954 129.632  0.00  0.00    +0.050 C 
BRANCH  20  21
ATOM     21  C   LIG A   1      -9.329   2.503 130.250  0.00  0.00    +0.004 C 
BRANCH  21  22
ATOM     22  C   LIG A   1      -9.239   1.745 131.580  0.00  0.00    +0.000 C 
BRANCH  22  23
ATOM     23  C   LIG A   1      -8.117   0.699 131.598  0.00  0.00    -0.000 C 
BRANCH  23  24
ATOM     24  C   LIG A   1      -8.529  -0.676 131.064  0.00  0.00    -0.000 C 
BRANCH  24  25
ATOM     25  C   LIG A   1      -7.607  -1.212 129.982  0.00  0.00    -0.000 C 
BRANCH  25  26
ATOM     26  C   LIG A   1      -7.641  -2.742 129.922  0.00  0.00    -0.000 C 
BRANCH  26  27
ATOM     27  C   LIG A   1      -8.484  -3.260 128.750  0.00  0.00    -0.000 C 
BRANCH  27  28
ATOM     28  C   LIG A   1      -7.850  -2.987 127.377  0.00  0.00    -0.000 C 
BRANCH  28  29
ATOM     29  C   LIG A   1      -8.910  -2.776 126.296  0.00  0.00    -0.000 C 
BRANCH  29  30
ATOM     30  C   LIG A   1      -8.395  -2.980 124.866  0.00  0.00    -0.003 C 
ATOM     31  C   LIG A   1      -9.466  -3.372 123.856  0.00  0.00    +0.004 C 
ENDBRANCH  29  30
ENDBRANCH  28  29
ENDBRANCH  27  28
ENDBRANCH  26  27
ENDBRANCH  25  26
ENDBRANCH  24  25
ENDBRANCH  23  24
ENDBRANCH  22  23
ENDBRANCH  21  22
ENDBRANCH  20  21
ENDBRANCH  12  20
TORSDOF 11
ENDMDL
MODEL 9
REMARK VINA RESULT:      -6.6      2.403      5.293
REMARK  Name = NuBBE_1564
REMARK  12 active torsions:
REMARK  status: ('A' for Active; 'I' for Inactive)
REMARK    1  A    between atoms: C_12  and  C_13
REMARK    2  A    between atoms: C_13  and  C_14
REMARK    3  A    between atoms: C_14  and  C_15
REMARK    4  A    between atoms: C_15  and  C_16
REMARK    5  A    between atoms: C_16  and  C_17
REMARK    6  A    between atoms: C_17  and  C_18
REMARK    7  A    between atoms: C_18  and  C_19
REMARK    8  A    between atoms: C_19  and  C_20
REMARK    9  A    between atoms: C_20  and  C_21
REMARK   10  A    between atoms: C_21  and  C_22
REMARK   11  A    between atoms: C_22  and  C_23
REMARK   12  A    between atoms: C_23  and  C_24
REMARK                            x       y       z     vdW  Elec       q    Type
REMARK                         _______ _______ _______ _____ _____    ______ ____
ROOT
ATOM      1  O   LIG A   1      -6.192   3.043 126.491  0.00  0.00    -0.287 OA
ATOM      2  C   LIG A   1      -6.472   2.442 125.441  0.00  0.00    +0.200 A 
ATOM      3  C   LIG A   1      -6.198   3.029 124.128  0.00  0.00    +0.064 A 
ATOM      4  C   LIG A   1      -5.424   4.184 123.998  0.00  0.00    +0.015 A 
ATOM      5  C   LIG A   1      -5.104   4.656 122.727  0.00  0.00    +0.001 A 
ATOM      6  C   LIG A   1      -5.575   3.992 121.590  0.00  0.00    +0.004 A 
ATOM      7  C   LIG A   1      -6.375   2.858 121.723  0.00  0.00    +0.047 A 
ATOM      8  C   LIG A   1      -6.677   2.372 122.993  0.00  0.00    +0.139 A 
ATOM      9  O   LIG A   1      -7.419   1.225 123.067  0.00  0.00    -0.454 OA
ATOM     10  C   LIG A   1      -7.490   0.595 124.286  0.00  0.00    +0.149 A 
ATOM     11  C   LIG A   1      -7.050   1.096 125.454  0.00  0.00    +0.083 A 
ATOM     12  C   LIG A   1      -7.147   0.341 126.750  0.00  0.00    +0.211 C 
ATOM     13  O   LIG A   1      -8.197  -0.650 126.725  0.00  0.00    -0.483 OA
ATOM     14  C   LIG A   1      -8.451  -1.274 125.533  0.00  0.00    +0.132 A 
ATOM     15  C   LIG A   1      -8.102  -0.731 124.302  0.00  0.00    +0.059 A 
ATOM     16  C   LIG A   1      -8.378  -1.463 123.137  0.00  0.00    +0.015 A 
ATOM     17  C   LIG A   1      -8.952  -2.736 123.213  0.00  0.00    +0.001 A 
ATOM     18  C   LIG A   1      -9.318  -3.258 124.449  0.00  0.00    +0.004 A 
ATOM     19  C   LIG A   1      -9.114  -2.498 125.598  0.00  0.00    +0.046 A 
ENDROOT
BRANCH  12  20
ATOM     20  C   LIG A   1      -5.782  -0.275 127.164  0.00  0.00    +0.050 C 
BRANCH  20  21
ATOM     21  C   LIG A   1      -5.636  -1.792 126.942  0.00  0.00    +0.004 C 
BRANCH  21  22
ATOM     22  C   LIG A   1      -5.713  -2.671 128.195  0.00  0.00    +0.000 C 
BRANCH  22  23
ATOM     23  C   LIG A   1      -4.355  -2.847 128.887  0.00  0.00    -0.000 C 
BRANCH  23  24
ATOM     24  C   LIG A   1      -4.363  -3.849 130.046  0.00  0.00    -0.000 C 
BRANCH  24  25
ATOM     25  C   LIG A   1      -5.756  -4.304 130.450  0.00  0.00    -0.000 C 
BRANCH  25  26
ATOM     26  C   LIG A   1      -6.127  -3.802 131.848  0.00  0.00    -0.000 C 
BRANCH  26  27
ATOM     27  C   LIG A   1      -7.366  -2.900 131.833  0.00  0.00    -0.000 C 
BRANCH  27  28
ATOM     28  C   LIG A   1      -7.035  -1.408 131.995  0.00  0.00    -0.000 C 
BRANCH  28  29
ATOM     29  C   LIG A   1      -7.064  -0.673 130.656  0.00  0.00    -0.000 C 
BRANCH  29  30
ATOM     30  C   LIG A   1      -8.246   0.292 130.496  0.00  0.00    -0.003 C 
ATOM     31  C   LIG A   1      -9.175   0.361 131.701  0.00  0.00    +0.004 C 
ENDBRANCH  29  30
ENDBRANCH  28  29
ENDBRANCH  27  28
ENDBRANCH  26  27
ENDBRANCH  25  26
ENDBRANCH  24  25
ENDBRANCH  23  24
ENDBRANCH  22  23
ENDBRANCH  21  22
ENDBRANCH  20  21
ENDBRANCH  12  20
TORSDOF 11
ENDMDL
