MODEL 1
REMARK VINA RESULT:      -6.8      0.000      0.000
REMARK  Name = NuBBE_2153
REMARK  10 active torsions:
REMARK  status: ('A' for Active; 'I' for Inactive)
REMARK    1  A    between atoms: C_1  and  O_2
REMARK    2  A    between atoms: O_2  and  C_3
REMARK    3  A    between atoms: C_10  and  C_11
REMARK    4  A    between atoms: C_13  and  C_15
REMARK    5  A    between atoms: C_18  and  C_19
REMARK    6  A    between atoms: C_19  and  C_20
REMARK    7  A    between atoms: C_23  and  O_24
REMARK    8  A    between atoms: O_24  and  C_25
REMARK    9  A    between atoms: C_26  and  O_27
REMARK   10  A    between atoms: O_27  and  C_28
REMARK                            x       y       z     vdW  Elec       q    Type
REMARK                         _______ _______ _______ _____ _____    ______ ____
ROOT
ATOM      1  C   LIG A   1      -8.113  -2.070 128.746  0.00  0.00    +0.073 C 
ATOM      2  C   LIG A   1      -8.123  -3.164 127.656  0.00  0.00    +0.178 C 
ATOM      3  C   LIG A   1      -9.242  -4.184 127.842  0.00  0.00    +0.052 C 
ATOM      4  O   LIG A   1      -8.319  -2.502 126.393  0.00  0.00    -0.488 OA
ATOM      5  C   LIG A   1      -8.197  -1.129 126.626  0.00  0.00    +0.150 C 
ATOM      6  C   LIG A   1      -7.560  -0.833 127.978  0.00  0.00    +0.048 C 
ATOM      7  C   LIG A   1      -8.128   0.502 128.502  0.00  0.00    +0.055 C 
ATOM      8  C   LIG A   1      -8.072   1.620 127.442  0.00  0.00    +0.193 C 
ATOM      9  C   LIG A   1      -8.759  -0.262 125.772  0.00  0.00    +0.203 C 
ATOM     10  C   LIG A   1      -8.793   1.193 126.146  0.00  0.00    +0.229 C 
ATOM     11  O   LIG A   1      -9.350   1.990 125.433  0.00  0.00    -0.286 OA
ENDROOT
BRANCH   1  19
ATOM     12  C   LIG A   1      -7.033  -2.051 132.479  0.00  0.00    +0.166 A 
ATOM     13  C   LIG A   1      -6.232  -3.174 132.474  0.00  0.00    +0.207 A 
ATOM     14  O   LIG A   1      -5.478  -3.654 133.501  0.00  0.00    -0.449 OA
ATOM     15  C   LIG A   1      -4.758  -4.716 132.859  0.00  0.00    +0.467 C 
ATOM     16  O   LIG A   1      -5.235  -4.991 131.529  0.00  0.00    -0.453 OA
ATOM     17  C   LIG A   1      -6.084  -3.941 131.340  0.00  0.00    +0.170 A 
ATOM     18  C   LIG A   1      -6.714  -3.631 130.149  0.00  0.00    +0.053 A 
ATOM     19  C   LIG A   1      -7.497  -2.464 130.082  0.00  0.00    -0.033 A 
ATOM     20  C   LIG A   1      -7.647  -1.691 131.265  0.00  0.00    +0.053 A 
BRANCH  12  22
ATOM     21  C   LIG A   1      -6.378  -0.082 133.620  0.00  0.00    +0.277 C 
ATOM     22  O   LIG A   1      -7.249  -1.207 133.532  0.00  0.00    -0.491 OA
ENDBRANCH  12  22
ENDBRANCH   1  19
BRANCH   8  23
ATOM     23  O   LIG A   1      -8.597   2.808 128.055  0.00  0.00    -0.372 OA
ATOM     24  C   LIG A   1      -8.714   2.720 129.476  0.00  0.00    +0.195 C 
ENDBRANCH   8  23
BRANCH   9  25
ATOM     25  O   LIG A   1      -9.395  -0.739 124.633  0.00  0.00    -0.489 OA
ATOM     26  C   LIG A   1      -8.609  -0.746 123.431  0.00  0.00    +0.277 C 
ENDBRANCH   9  25
BRANCH   6  27
ATOM     27  C   LIG A   1      -5.998  -0.799 127.829  0.00  0.00    +0.042 C 
BRANCH  27  28
ATOM     28  C   LIG A   1      -5.220   0.037 128.821  0.00  0.00    -0.034 C 
ATOM     29  C   LIG A   1      -4.491  -0.427 129.843  0.00  0.00    +0.004 C 
ENDBRANCH  27  28
ENDBRANCH   6  27
TORSDOF 6
ENDMDL
MODEL 2
REMARK VINA RESULT:      -6.7      2.221      7.222
REMARK  Name = NuBBE_2153
REMARK  10 active torsions:
REMARK  status: ('A' for Active; 'I' for Inactive)
REMARK    1  A    between atoms: C_1  and  O_2
REMARK    2  A    between atoms: O_2  and  C_3
REMARK    3  A    between atoms: C_10  and  C_11
REMARK    4  A    between atoms: C_13  and  C_15
REMARK    5  A    between atoms: C_18  and  C_19
REMARK    6  A    between atoms: C_19  and  C_20
REMARK    7  A    between atoms: C_23  and  O_24
REMARK    8  A    between atoms: O_24  and  C_25
REMARK    9  A    between atoms: C_26  and  O_27
REMARK   10  A    between atoms: O_27  and  C_28
REMARK                            x       y       z     vdW  Elec       q    Type
REMARK                         _______ _______ _______ _____ _____    ______ ____
ROOT
ATOM      1  C   LIG A   1      -7.258  -2.886 127.938  0.00  0.00    +0.073 C 
ATOM      2  C   LIG A   1      -8.552  -3.009 128.772  0.00  0.00    +0.178 C 
ATOM      3  C   LIG A   1      -9.362  -4.258 128.440  0.00  0.00    +0.052 C 
ATOM      4  O   LIG A   1      -8.159  -3.077 130.155  0.00  0.00    -0.488 OA
ATOM      5  C   LIG A   1      -6.794  -2.782 130.209  0.00  0.00    +0.150 C 
ATOM      6  C   LIG A   1      -6.294  -2.151 128.915  0.00  0.00    +0.048 C 
ATOM      7  C   LIG A   1      -4.818  -2.553 128.717  0.00  0.00    +0.055 C 
ATOM      8  C   LIG A   1      -3.970  -2.317 129.983  0.00  0.00    +0.193 C 
ATOM      9  C   LIG A   1      -6.070  -3.198 131.257  0.00  0.00    +0.203 C 
ATOM     10  C   LIG A   1      -4.575  -3.050 131.200  0.00  0.00    +0.229 C 
ATOM     11  O   LIG A   1      -3.888  -3.475 132.094  0.00  0.00    -0.286 OA
ENDROOT
BRANCH   1  19
ATOM     12  C   LIG A   1      -6.621  -2.050 124.196  0.00  0.00    +0.166 A 
ATOM     13  C   LIG A   1      -7.738  -1.277 123.957  0.00  0.00    +0.207 A 
ATOM     14  O   LIG A   1      -8.046  -0.603 122.815  0.00  0.00    -0.449 OA
ATOM     15  C   LIG A   1      -9.210   0.131 123.219  0.00  0.00    +0.467 C 
ATOM     16  O   LIG A   1      -9.701  -0.265 124.513  0.00  0.00    -0.453 OA
ATOM     17  C   LIG A   1      -8.687  -1.075 124.933  0.00  0.00    +0.170 A 
ATOM     18  C   LIG A   1      -8.577  -1.618 126.200  0.00  0.00    +0.053 A 
ATOM     19  C   LIG A   1      -7.428  -2.367 126.515  0.00  0.00    -0.033 A 
ATOM     20  C   LIG A   1      -6.464  -2.575 125.492  0.00  0.00    +0.053 A 
BRANCH  12  22
ATOM     21  C   LIG A   1      -4.787  -3.439 123.628  0.00  0.00    +0.277 C 
ATOM     22  O   LIG A   1      -5.607  -2.314 123.318  0.00  0.00    -0.491 OA
ENDBRANCH  12  22
ENDBRANCH   1  19
BRANCH   8  23
ATOM     23  O   LIG A   1      -2.623  -2.699 129.664  0.00  0.00    -0.372 OA
ATOM     24  C   LIG A   1      -2.531  -3.887 128.876  0.00  0.00    +0.195 C 
ENDBRANCH   8  23
BRANCH   9  25
ATOM     25  O   LIG A   1      -6.699  -3.858 132.304  0.00  0.00    -0.489 OA
ATOM     26  C   LIG A   1      -7.080  -3.041 133.422  0.00  0.00    +0.277 C 
ENDBRANCH   9  25
BRANCH   6  27
ATOM     27  C   LIG A   1      -6.485  -0.595 128.978  0.00  0.00    +0.042 C 
BRANCH  27  28
ATOM     28  C   LIG A   1      -5.533   0.259 128.171  0.00  0.00    -0.034 C 
ATOM     29  C   LIG A   1      -5.804   0.852 127.002  0.00  0.00    +0.004 C 
ENDBRANCH  27  28
ENDBRANCH   6  27
TORSDOF 6
ENDMDL
MODEL 3
REMARK VINA RESULT:      -6.7      2.993      8.160
REMARK  Name = NuBBE_2153
REMARK  10 active torsions:
REMARK  status: ('A' for Active; 'I' for Inactive)
REMARK    1  A    between atoms: C_1  and  O_2
REMARK    2  A    between atoms: O_2  and  C_3
REMARK    3  A    between atoms: C_10  and  C_11
REMARK    4  A    between atoms: C_13  and  C_15
REMARK    5  A    between atoms: C_18  and  C_19
REMARK    6  A    between atoms: C_19  and  C_20
REMARK    7  A    between atoms: C_23  and  O_24
REMARK    8  A    between atoms: O_24  and  C_25
REMARK    9  A    between atoms: C_26  and  O_27
REMARK   10  A    between atoms: O_27  and  C_28
REMARK                            x       y       z     vdW  Elec       q    Type
REMARK                         _______ _______ _______ _____ _____    ______ ____
ROOT
ATOM      1  C   LIG A   1      -6.831   1.211 126.380  0.00  0.00    +0.073 C 
ATOM      2  C   LIG A   1      -5.674   1.835 127.190  0.00  0.00    +0.178 C 
ATOM      3  C   LIG A   1      -6.075   3.114 127.918  0.00  0.00    +0.052 C 
ATOM      4  O   LIG A   1      -5.272   0.861 128.172  0.00  0.00    -0.488 OA
ATOM      5  C   LIG A   1      -5.929  -0.333 127.858  0.00  0.00    +0.150 C 
ATOM      6  C   LIG A   1      -6.513  -0.312 126.451  0.00  0.00    +0.048 C 
ATOM      7  C   LIG A   1      -7.780  -1.191 126.437  0.00  0.00    +0.055 C 
ATOM      8  C   LIG A   1      -7.542  -2.574 127.075  0.00  0.00    +0.193 C 
ATOM      9  C   LIG A   1      -6.110  -1.256 128.812  0.00  0.00    +0.203 C 
ATOM     10  C   LIG A   1      -6.991  -2.436 128.511  0.00  0.00    +0.229 C 
ATOM     11  O   LIG A   1      -7.230  -3.250 129.367  0.00  0.00    -0.286 OA
ENDROOT
BRANCH   1  19
ATOM     12  C   LIG A   1      -8.558   2.201 123.041  0.00  0.00    +0.166 A 
ATOM     13  C   LIG A   1      -7.548   2.969 122.499  0.00  0.00    +0.207 A 
ATOM     14  O   LIG A   1      -7.520   3.542 121.264  0.00  0.00    -0.449 OA
ATOM     15  C   LIG A   1      -6.181   4.055 121.215  0.00  0.00    +0.467 C 
ATOM     16  O   LIG A   1      -5.502   3.968 122.482  0.00  0.00    -0.453 OA
ATOM     17  C   LIG A   1      -6.384   3.210 123.193  0.00  0.00    +0.170 A 
ATOM     18  C   LIG A   1      -6.153   2.695 124.455  0.00  0.00    +0.053 A 
ATOM     19  C   LIG A   1      -7.125   1.857 125.031  0.00  0.00    -0.033 A 
ATOM     20  C   LIG A   1      -8.325   1.628 124.305  0.00  0.00    +0.053 A 
BRANCH  12  22
ATOM     21  C   LIG A   1     -10.164   0.523 122.575  0.00  0.00    +0.277 C 
ATOM     22  O   LIG A   1      -9.748   1.881 122.450  0.00  0.00    -0.491 OA
ENDBRANCH  12  22
ENDBRANCH   1  19
BRANCH   8  23
ATOM     23  O   LIG A   1      -8.776  -3.302 126.976  0.00  0.00    -0.372 OA
ATOM     24  C   LIG A   1      -9.540  -2.985 125.811  0.00  0.00    +0.195 C 
ENDBRANCH   8  23
BRANCH   9  25
ATOM     25  O   LIG A   1      -5.585  -1.042 130.080  0.00  0.00    -0.489 OA
ATOM     26  C   LIG A   1      -4.303  -1.637 130.337  0.00  0.00    +0.277 C 
ENDBRANCH   9  25
BRANCH   6  27
ATOM     27  C   LIG A   1      -5.434  -0.804 125.424  0.00  0.00    +0.042 C 
BRANCH  27  28
ATOM     28  C   LIG A   1      -5.925  -1.490 124.169  0.00  0.00    -0.034 C 
ATOM     29  C   LIG A   1      -5.510  -2.674 123.703  0.00  0.00    +0.004 C 
ENDBRANCH  27  28
ENDBRANCH   6  27
TORSDOF 6
ENDMDL
MODEL 4
REMARK VINA RESULT:      -6.6      2.390      4.223
REMARK  Name = NuBBE_2153
REMARK  10 active torsions:
REMARK  status: ('A' for Active; 'I' for Inactive)
REMARK    1  A    between atoms: C_1  and  O_2
REMARK    2  A    between atoms: O_2  and  C_3
REMARK    3  A    between atoms: C_10  and  C_11
REMARK    4  A    between atoms: C_13  and  C_15
REMARK    5  A    between atoms: C_18  and  C_19
REMARK    6  A    between atoms: C_19  and  C_20
REMARK    7  A    between atoms: C_23  and  O_24
REMARK    8  A    between atoms: O_24  and  C_25
REMARK    9  A    between atoms: C_26  and  O_27
REMARK   10  A    between atoms: O_27  and  C_28
REMARK                            x       y       z     vdW  Elec       q    Type
REMARK                         _______ _______ _______ _____ _____    ______ ____
ROOT
ATOM      1  C   LIG A   1      -6.511  -1.244 127.565  0.00  0.00    +0.073 C 
ATOM      2  C   LIG A   1      -7.657  -0.211 127.649  0.00  0.00    +0.178 C 
ATOM      3  C   LIG A   1      -7.229   1.107 128.288  0.00  0.00    +0.052 C 
ATOM      4  O   LIG A   1      -8.085   0.056 126.301  0.00  0.00    -0.488 OA
ATOM      5  C   LIG A   1      -7.455  -0.881 125.477  0.00  0.00    +0.150 C 
ATOM      6  C   LIG A   1      -6.865  -2.038 126.274  0.00  0.00    +0.048 C 
ATOM      7  C   LIG A   1      -5.618  -2.557 125.528  0.00  0.00    +0.055 C 
ATOM      8  C   LIG A   1      -5.891  -2.806 124.031  0.00  0.00    +0.193 C 
ATOM      9  C   LIG A   1      -7.299  -0.614 124.173  0.00  0.00    +0.203 C 
ATOM     10  C   LIG A   1      -6.445  -1.536 123.349  0.00  0.00    +0.229 C 
ATOM     11  O   LIG A   1      -6.228  -1.289 122.190  0.00  0.00    -0.286 OA
ENDROOT
BRANCH   1  19
ATOM     12  C   LIG A   1      -6.821  -2.848 131.092  0.00  0.00    +0.166 A 
ATOM     13  C   LIG A   1      -5.519  -3.279 131.244  0.00  0.00    +0.207 A 
ATOM     14  O   LIG A   1      -4.966  -3.859 132.345  0.00  0.00    -0.449 OA
ATOM     15  C   LIG A   1      -3.583  -3.927 131.971  0.00  0.00    +0.467 C 
ATOM     16  O   LIG A   1      -3.359  -3.584 130.591  0.00  0.00    -0.453 OA
ATOM     17  C   LIG A   1      -4.591  -3.116 130.241  0.00  0.00    +0.170 A 
ATOM     18  C   LIG A   1      -4.899  -2.508 129.038  0.00  0.00    +0.053 A 
ATOM     19  C   LIG A   1      -6.197  -1.998 128.852  0.00  0.00    -0.033 A 
ATOM     20  C   LIG A   1      -7.145  -2.185 129.894  0.00  0.00    +0.053 A 
BRANCH  12  22
ATOM     21  C   LIG A   1      -7.808  -1.972 133.059  0.00  0.00    +0.277 C 
ATOM     22  O   LIG A   1      -7.826  -2.941 132.014  0.00  0.00    -0.491 OA
ENDBRANCH  12  22
ENDBRANCH   1  19
BRANCH   8  23
ATOM     23  O   LIG A   1      -4.675  -3.310 123.459  0.00  0.00    -0.372 OA
ATOM     24  C   LIG A   1      -4.481  -4.712 123.658  0.00  0.00    +0.195 C 
ENDBRANCH   8  23
BRANCH   9  25
ATOM     25  O   LIG A   1      -7.824   0.560 123.648  0.00  0.00    -0.489 OA
ATOM     26  C   LIG A   1      -9.189   0.494 123.206  0.00  0.00    +0.277 C 
ENDBRANCH   9  25
BRANCH   6  27
ATOM     27  C   LIG A   1      -7.951  -3.154 126.468  0.00  0.00    +0.042 C 
BRANCH  27  28
ATOM     28  C   LIG A   1      -9.224  -3.039 125.659  0.00  0.00    -0.034 C 
ATOM     29  C   LIG A   1      -9.432  -3.551 124.440  0.00  0.00    +0.004 C 
ENDBRANCH  27  28
ENDBRANCH   6  27
TORSDOF 6
ENDMDL
MODEL 5
REMARK VINA RESULT:      -6.6      1.360      1.747
REMARK  Name = NuBBE_2153
REMARK  10 active torsions:
REMARK  status: ('A' for Active; 'I' for Inactive)
REMARK    1  A    between atoms: C_1  and  O_2
REMARK    2  A    between atoms: O_2  and  C_3
REMARK    3  A    between atoms: C_10  and  C_11
REMARK    4  A    between atoms: C_13  and  C_15
REMARK    5  A    between atoms: C_18  and  C_19
REMARK    6  A    between atoms: C_19  and  C_20
REMARK    7  A    between atoms: C_23  and  O_24
REMARK    8  A    between atoms: O_24  and  C_25
REMARK    9  A    between atoms: C_26  and  O_27
REMARK   10  A    between atoms: O_27  and  C_28
REMARK                            x       y       z     vdW  Elec       q    Type
REMARK                         _______ _______ _______ _____ _____    ______ ____
ROOT
ATOM      1  C   LIG A   1      -8.262  -2.372 128.538  0.00  0.00    +0.073 C 
ATOM      2  C   LIG A   1      -8.567  -3.741 127.892  0.00  0.00    +0.178 C 
ATOM      3  C   LIG A   1      -9.808  -4.412 128.473  0.00  0.00    +0.052 C 
ATOM      4  O   LIG A   1      -8.793  -3.507 126.490  0.00  0.00    -0.488 OA
ATOM      5  C   LIG A   1      -8.428  -2.182 126.231  0.00  0.00    +0.150 C 
ATOM      6  C   LIG A   1      -7.606  -1.583 127.365  0.00  0.00    +0.048 C 
ATOM      7  C   LIG A   1      -7.892  -0.069 127.427  0.00  0.00    +0.055 C 
ATOM      8  C   LIG A   1      -7.775   0.607 126.046  0.00  0.00    +0.193 C 
ATOM      9  C   LIG A   1      -8.935  -1.556 125.161  0.00  0.00    +0.203 C 
ATOM     10  C   LIG A   1      -8.695  -0.079 125.013  0.00  0.00    +0.229 C 
ATOM     11  O   LIG A   1      -9.192   0.528 124.099  0.00  0.00    -0.286 OA
ENDROOT
BRANCH   1  19
ATOM     12  C   LIG A   1      -7.125  -1.483 132.147  0.00  0.00    +0.166 A 
ATOM     13  C   LIG A   1      -6.176  -2.470 132.320  0.00  0.00    +0.207 A 
ATOM     14  O   LIG A   1      -5.345  -2.636 133.385  0.00  0.00    -0.449 OA
ATOM     15  C   LIG A   1      -4.497  -3.699 132.926  0.00  0.00    +0.467 C 
ATOM     16  O   LIG A   1      -4.957  -4.288 131.695  0.00  0.00    -0.453 OA
ATOM     17  C   LIG A   1      -5.946  -3.417 131.348  0.00  0.00    +0.170 A 
ATOM     18  C   LIG A   1      -6.634  -3.431 130.149  0.00  0.00    +0.053 A 
ATOM     19  C   LIG A   1      -7.572  -2.413 129.896  0.00  0.00    -0.033 A 
ATOM     20  C   LIG A   1      -7.805  -1.451 130.915  0.00  0.00    +0.053 A 
BRANCH  12  22
ATOM     21  C   LIG A   1      -7.219   0.847 132.566  0.00  0.00    +0.277 C 
ATOM     22  O   LIG A   1      -7.436  -0.485 133.027  0.00  0.00    -0.491 OA
ENDBRANCH  12  22
ENDBRANCH   1  19
BRANCH   8  23
ATOM     23  O   LIG A   1      -8.032   2.006 126.238  0.00  0.00    -0.372 OA
ATOM     24  C   LIG A   1      -7.879   2.440 127.592  0.00  0.00    +0.195 C 
ENDBRANCH   8  23
BRANCH   9  25
ATOM     25  O   LIG A   1      -9.762  -2.252 124.288  0.00  0.00    -0.489 OA
ATOM     26  C   LIG A   1      -9.107  -2.912 123.195  0.00  0.00    +0.277 C 
ENDBRANCH   9  25
BRANCH   6  27
ATOM     27  C   LIG A   1      -6.085  -1.895 127.136  0.00  0.00    +0.042 C 
BRANCH  27  28
ATOM     28  C   LIG A   1      -5.687  -2.491 125.805  0.00  0.00    -0.034 C 
ATOM     29  C   LIG A   1      -5.263  -1.813 124.732  0.00  0.00    +0.004 C 
ENDBRANCH  27  28
ENDBRANCH   6  27
TORSDOF 6
ENDMDL
MODEL 6
REMARK VINA RESULT:      -6.6      2.494      3.732
REMARK  Name = NuBBE_2153
REMARK  10 active torsions:
REMARK  status: ('A' for Active; 'I' for Inactive)
REMARK    1  A    between atoms: C_1  and  O_2
REMARK    2  A    between atoms: O_2  and  C_3
REMARK    3  A    between atoms: C_10  and  C_11
REMARK    4  A    between atoms: C_13  and  C_15
REMARK    5  A    between atoms: C_18  and  C_19
REMARK    6  A    between atoms: C_19  and  C_20
REMARK    7  A    between atoms: C_23  and  O_24
REMARK    8  A    between atoms: O_24  and  C_25
REMARK    9  A    between atoms: C_26  and  O_27
REMARK   10  A    between atoms: O_27  and  C_28
REMARK                            x       y       z     vdW  Elec       q    Type
REMARK                         _______ _______ _______ _____ _____    ______ ____
ROOT
ATOM      1  C   LIG A   1      -7.112  -1.536 127.791  0.00  0.00    +0.073 C 
ATOM      2  C   LIG A   1      -7.620  -2.992 127.704  0.00  0.00    +0.178 C 
ATOM      3  C   LIG A   1      -8.634  -3.338 128.790  0.00  0.00    +0.052 C 
ATOM      4  O   LIG A   1      -8.259  -3.141 126.423  0.00  0.00    -0.488 OA
ATOM      5  C   LIG A   1      -7.971  -1.990 125.684  0.00  0.00    +0.150 C 
ATOM      6  C   LIG A   1      -6.833  -1.185 126.300  0.00  0.00    +0.048 C 
ATOM      7  C   LIG A   1      -7.064   0.306 125.981  0.00  0.00    +0.055 C 
ATOM      8  C   LIG A   1      -7.364   0.548 124.488  0.00  0.00    +0.193 C 
ATOM      9  C   LIG A   1      -8.771  -1.642 124.667  0.00  0.00    +0.203 C 
ATOM     10  C   LIG A   1      -8.565  -0.301 124.019  0.00  0.00    +0.229 C 
ATOM     11  O   LIG A   1      -9.308   0.072 123.147  0.00  0.00    -0.286 OA
ENDROOT
BRANCH   1  19
ATOM     12  C   LIG A   1      -3.958  -1.860 130.040  0.00  0.00    +0.166 A 
ATOM     13  C   LIG A   1      -4.180  -0.783 130.874  0.00  0.00    +0.207 A 
ATOM     14  O   LIG A   1      -3.443  -0.413 131.957  0.00  0.00    -0.449 OA
ATOM     15  C   LIG A   1      -4.241   0.649 132.499  0.00  0.00    +0.467 C 
ATOM     16  O   LIG A   1      -5.321   1.037 131.630  0.00  0.00    -0.453 OA
ATOM     17  C   LIG A   1      -5.262   0.048 130.693  0.00  0.00    +0.170 A 
ATOM     18  C   LIG A   1      -6.188  -0.148 129.685  0.00  0.00    +0.053 A 
ATOM     19  C   LIG A   1      -6.041  -1.265 128.841  0.00  0.00    -0.033 A 
ATOM     20  C   LIG A   1      -4.912  -2.105 129.036  0.00  0.00    +0.053 A 
BRANCH  12  22
ATOM     21  C   LIG A   1      -2.893  -3.759 129.107  0.00  0.00    +0.277 C 
ATOM     22  O   LIG A   1      -2.933  -2.760 130.124  0.00  0.00    -0.491 OA
ENDBRANCH  12  22
ENDBRANCH   1  19
BRANCH   8  23
ATOM     23  O   LIG A   1      -7.530   1.964 124.316  0.00  0.00    -0.372 OA
ATOM     24  C   LIG A   1      -8.318   2.580 125.336  0.00  0.00    +0.195 C 
ENDBRANCH   8  23
BRANCH   9  25
ATOM     25  O   LIG A   1      -9.835  -2.465 124.320  0.00  0.00    -0.489 OA
ATOM     26  C   LIG A   1      -9.574  -3.424 123.283  0.00  0.00    +0.277 C 
ENDBRANCH   9  25
BRANCH   6  27
ATOM     27  C   LIG A   1      -5.459  -1.707 125.749  0.00  0.00    +0.042 C 
BRANCH  27  28
ATOM     28  C   LIG A   1      -5.490  -2.871 124.784  0.00  0.00    -0.034 C 
ATOM     29  C   LIG A   1      -4.963  -2.889 123.553  0.00  0.00    +0.004 C 
ENDBRANCH  27  28
ENDBRANCH   6  27
TORSDOF 6
ENDMDL
MODEL 7
REMARK VINA RESULT:      -6.4      3.042      7.434
REMARK  Name = NuBBE_2153
REMARK  10 active torsions:
REMARK  status: ('A' for Active; 'I' for Inactive)
REMARK    1  A    between atoms: C_1  and  O_2
REMARK    2  A    between atoms: O_2  and  C_3
REMARK    3  A    between atoms: C_10  and  C_11
REMARK    4  A    between atoms: C_13  and  C_15
REMARK    5  A    between atoms: C_18  and  C_19
REMARK    6  A    between atoms: C_19  and  C_20
REMARK    7  A    between atoms: C_23  and  O_24
REMARK    8  A    between atoms: O_24  and  C_25
REMARK    9  A    between atoms: C_26  and  O_27
REMARK   10  A    between atoms: O_27  and  C_28
REMARK                            x       y       z     vdW  Elec       q    Type
REMARK                         _______ _______ _______ _____ _____    ______ ____
ROOT
ATOM      1  C   LIG A   1      -7.013   0.496 126.974  0.00  0.00    +0.073 C 
ATOM      2  C   LIG A   1      -6.276   0.544 128.331  0.00  0.00    +0.178 C 
ATOM      3  C   LIG A   1      -6.761   1.673 129.235  0.00  0.00    +0.052 C 
ATOM      4  O   LIG A   1      -6.528  -0.708 128.994  0.00  0.00    -0.488 OA
ATOM      5  C   LIG A   1      -7.145  -1.549 128.063  0.00  0.00    +0.150 C 
ATOM      6  C   LIG A   1      -7.005  -1.025 126.639  0.00  0.00    +0.048 C 
ATOM      7  C   LIG A   1      -8.244  -1.468 125.834  0.00  0.00    +0.055 C 
ATOM      8  C   LIG A   1      -8.546  -2.971 126.000  0.00  0.00    +0.193 C 
ATOM      9  C   LIG A   1      -7.886  -2.579 128.493  0.00  0.00    +0.203 C 
ATOM     10  C   LIG A   1      -8.703  -3.345 127.489  0.00  0.00    +0.229 C 
ATOM     11  O   LIG A   1      -9.432  -4.233 127.851  0.00  0.00    -0.286 OA
ENDROOT
BRANCH   1  19
ATOM     12  C   LIG A   1      -5.221   3.470 125.228  0.00  0.00    +0.166 A 
ATOM     13  C   LIG A   1      -5.835   3.394 123.995  0.00  0.00    +0.207 A 
ATOM     14  O   LIG A   1      -5.686   4.248 122.945  0.00  0.00    -0.449 OA
ATOM     15  C   LIG A   1      -6.679   3.760 122.033  0.00  0.00    +0.467 C 
ATOM     16  O   LIG A   1      -7.258   2.510 122.453  0.00  0.00    -0.453 OA
ATOM     17  C   LIG A   1      -6.744   2.400 123.711  0.00  0.00    +0.170 A 
ATOM     18  C   LIG A   1      -7.102   1.436 124.634  0.00  0.00    +0.053 A 
ATOM     19  C   LIG A   1      -6.548   1.500 125.926  0.00  0.00    -0.033 A 
ATOM     20  C   LIG A   1      -5.603   2.526 126.199  0.00  0.00    +0.053 A 
BRANCH  12  22
ATOM     21  C   LIG A   1      -4.323   4.727 127.023  0.00  0.00    +0.277 C 
ATOM     22  O   LIG A   1      -4.315   4.410 125.633  0.00  0.00    -0.491 OA
ENDBRANCH  12  22
ENDBRANCH   1  19
BRANCH   8  23
ATOM     23  O   LIG A   1      -9.692  -3.263 125.186  0.00  0.00    -0.372 OA
ATOM     24  C   LIG A   1      -9.413  -3.294 123.785  0.00  0.00    +0.195 C 
ENDBRANCH   8  23
BRANCH   9  25
ATOM     25  O   LIG A   1      -7.977  -2.835 129.855  0.00  0.00    -0.489 OA
ATOM     26  C   LIG A   1      -6.912  -3.617 130.419  0.00  0.00    +0.277 C 
ENDBRANCH   9  25
BRANCH   6  27
ATOM     27  C   LIG A   1      -5.666  -1.552 126.011  0.00  0.00    +0.042 C 
BRANCH  27  28
ATOM     28  C   LIG A   1      -5.640  -1.786 124.518  0.00  0.00    -0.034 C 
ATOM     29  C   LIG A   1      -5.256  -2.912 123.903  0.00  0.00    +0.004 C 
ENDBRANCH  27  28
ENDBRANCH   6  27
TORSDOF 6
ENDMDL
MODEL 8
REMARK VINA RESULT:      -6.4      2.083      2.543
REMARK  Name = NuBBE_2153
REMARK  10 active torsions:
REMARK  status: ('A' for Active; 'I' for Inactive)
REMARK    1  A    between atoms: C_1  and  O_2
REMARK    2  A    between atoms: O_2  and  C_3
REMARK    3  A    between atoms: C_10  and  C_11
REMARK    4  A    between atoms: C_13  and  C_15
REMARK    5  A    between atoms: C_18  and  C_19
REMARK    6  A    between atoms: C_19  and  C_20
REMARK    7  A    between atoms: C_23  and  O_24
REMARK    8  A    between atoms: O_24  and  C_25
REMARK    9  A    between atoms: C_26  and  O_27
REMARK   10  A    between atoms: O_27  and  C_28
REMARK                            x       y       z     vdW  Elec       q    Type
REMARK                         _______ _______ _______ _____ _____    ______ ____
ROOT
ATOM      1  C   LIG A   1      -7.866  -1.277 128.334  0.00  0.00    +0.073 C 
ATOM      2  C   LIG A   1      -7.766  -2.766 127.937  0.00  0.00    +0.178 C 
ATOM      3  C   LIG A   1      -8.696  -3.664 128.748  0.00  0.00    +0.052 C 
ATOM      4  O   LIG A   1      -8.140  -2.861 126.551  0.00  0.00    -0.488 OA
ATOM      5  C   LIG A   1      -8.224  -1.555 126.058  0.00  0.00    +0.150 C 
ATOM      6  C   LIG A   1      -7.563  -0.548 126.991  0.00  0.00    +0.048 C 
ATOM      7  C   LIG A   1      -8.304   0.798 126.858  0.00  0.00    +0.055 C 
ATOM      8  C   LIG A   1      -8.490   1.223 125.388  0.00  0.00    +0.193 C 
ATOM      9  C   LIG A   1      -8.967  -1.307 124.971  0.00  0.00    +0.203 C 
ATOM     10  C   LIG A   1      -9.210   0.123 124.579  0.00  0.00    +0.229 C 
ATOM     11  O   LIG A   1      -9.928   0.384 123.647  0.00  0.00    -0.286 OA
ENDROOT
BRANCH   1  19
ATOM     12  C   LIG A   1      -6.820   0.560 131.596  0.00  0.00    +0.166 A 
ATOM     13  C   LIG A   1      -5.624  -0.086 131.830  0.00  0.00    +0.207 A 
ATOM     14  O   LIG A   1      -4.720   0.183 132.811  0.00  0.00    -0.449 OA
ATOM     15  C   LIG A   1      -3.636  -0.684 132.449  0.00  0.00    +0.467 C 
ATOM     16  O   LIG A   1      -3.980  -1.600 131.394  0.00  0.00    -0.453 OA
ATOM     17  C   LIG A   1      -5.193  -1.107 131.013  0.00  0.00    +0.170 A 
ATOM     18  C   LIG A   1      -5.916  -1.535 129.915  0.00  0.00    +0.053 A 
ATOM     19  C   LIG A   1      -7.116  -0.871 129.597  0.00  0.00    -0.033 A 
ATOM     20  C   LIG A   1      -7.551   0.172 130.457  0.00  0.00    +0.053 A 
BRANCH  12  22
ATOM     21  C   LIG A   1      -8.771   1.692 132.321  0.00  0.00    +0.277 C 
ATOM     22  O   LIG A   1      -7.349   1.590 132.323  0.00  0.00    -0.491 OA
ENDBRANCH  12  22
ENDBRANCH   1  19
BRANCH   8  23
ATOM     23  O   LIG A   1      -9.160   2.493 125.399  0.00  0.00    -0.372 OA
ATOM     24  C   LIG A   1      -8.321   3.591 125.034  0.00  0.00    +0.195 C 
ENDBRANCH   8  23
BRANCH   9  25
ATOM     25  O   LIG A   1      -9.586  -2.361 124.310  0.00  0.00    -0.489 OA
ATOM     26  C   LIG A   1      -8.878  -2.897 123.181  0.00  0.00    +0.277 C 
ENDBRANCH   9  25
BRANCH   6  27
ATOM     27  C   LIG A   1      -6.038  -0.427 126.641  0.00  0.00    +0.042 C 
BRANCH  27  28
ATOM     28  C   LIG A   1      -5.323   0.837 127.063  0.00  0.00    -0.034 C 
ATOM     29  C   LIG A   1      -4.800   1.758 126.244  0.00  0.00    +0.004 C 
ENDBRANCH  27  28
ENDBRANCH   6  27
TORSDOF 6
ENDMDL
MODEL 9
REMARK VINA RESULT:      -6.2      1.658      2.653
REMARK  Name = NuBBE_2153
REMARK  10 active torsions:
REMARK  status: ('A' for Active; 'I' for Inactive)
REMARK    1  A    between atoms: C_1  and  O_2
REMARK    2  A    between atoms: O_2  and  C_3
REMARK    3  A    between atoms: C_10  and  C_11
REMARK    4  A    between atoms: C_13  and  C_15
REMARK    5  A    between atoms: C_18  and  C_19
REMARK    6  A    between atoms: C_19  and  C_20
REMARK    7  A    between atoms: C_23  and  O_24
REMARK    8  A    between atoms: O_24  and  C_25
REMARK    9  A    between atoms: C_26  and  O_27
REMARK   10  A    between atoms: O_27  and  C_28
REMARK                            x       y       z     vdW  Elec       q    Type
REMARK                         _______ _______ _______ _____ _____    ______ ____
ROOT
ATOM      1  C   LIG A   1      -7.780  -0.714 127.509  0.00  0.00    +0.073 C 
ATOM      2  C   LIG A   1      -7.649  -1.561 126.224  0.00  0.00    +0.178 C 
ATOM      3  C   LIG A   1      -8.757  -2.598 126.076  0.00  0.00    +0.052 C 
ATOM      4  O   LIG A   1      -7.725  -0.653 125.109  0.00  0.00    -0.488 OA
ATOM      5  C   LIG A   1      -7.661   0.643 125.629  0.00  0.00    +0.150 C 
ATOM      6  C   LIG A   1      -7.177   0.656 127.074  0.00  0.00    +0.048 C 
ATOM      7  C   LIG A   1      -7.829   1.854 127.795  0.00  0.00    +0.055 C 
ATOM      8  C   LIG A   1      -7.687   3.166 126.999  0.00  0.00    +0.193 C 
ATOM      9  C   LIG A   1      -8.149   1.666 124.915  0.00  0.00    +0.203 C 
ATOM     10  C   LIG A   1      -8.257   3.013 125.572  0.00  0.00    +0.229 C 
ATOM     11  O   LIG A   1      -8.754   3.939 124.981  0.00  0.00    -0.286 OA
ENDROOT
BRANCH   1  19
ATOM     12  C   LIG A   1      -5.934  -3.040 130.016  0.00  0.00    +0.166 A 
ATOM     13  C   LIG A   1      -6.555  -2.635 131.179  0.00  0.00    +0.207 A 
ATOM     14  O   LIG A   1      -6.392  -3.157 132.426  0.00  0.00    -0.449 OA
ATOM     15  C   LIG A   1      -7.399  -2.453 133.166  0.00  0.00    +0.467 C 
ATOM     16  O   LIG A   1      -8.002  -1.383 132.414  0.00  0.00    -0.453 OA
ATOM     17  C   LIG A   1      -7.485  -1.620 131.175  0.00  0.00    +0.170 A 
ATOM     18  C   LIG A   1      -7.859  -0.961 130.018  0.00  0.00    +0.053 A 
ATOM     19  C   LIG A   1      -7.299  -1.374 128.795  0.00  0.00    -0.033 A 
ATOM     20  C   LIG A   1      -6.332  -2.415 128.820  0.00  0.00    +0.053 A 
BRANCH  12  22
ATOM     21  C   LIG A   1      -3.656  -3.617 129.714  0.00  0.00    +0.277 C 
ATOM     22  O   LIG A   1      -5.007  -4.037 129.889  0.00  0.00    -0.491 OA
ENDBRANCH  12  22
ENDBRANCH   1  19
BRANCH   8  23
ATOM     23  O   LIG A   1      -8.302   4.201 127.780  0.00  0.00    -0.372 OA
ATOM     24  C   LIG A   1      -8.169   4.015 129.191  0.00  0.00    +0.195 C 
ENDBRANCH   8  23
BRANCH   9  25
ATOM     25  O   LIG A   1      -8.651   1.432 123.640  0.00  0.00    -0.489 OA
ATOM     26  C   LIG A   1     -10.070   1.230 123.552  0.00  0.00    +0.277 C 
ENDBRANCH   9  25
BRANCH   6  27
ATOM     27  C   LIG A   1      -5.609   0.721 127.106  0.00  0.00    +0.042 C 
BRANCH  27  28
ATOM     28  C   LIG A   1      -4.964   1.466 128.252  0.00  0.00    -0.034 C 
ATOM     29  C   LIG A   1      -4.652   0.954 129.449  0.00  0.00    +0.004 C 
ENDBRANCH  27  28
ENDBRANCH   6  27
TORSDOF 6
ENDMDL
