MODEL 1
REMARK VINA RESULT:      -7.2      0.000      0.000
REMARK  Name = NuBBE_1873
REMARK  12 active torsions:
REMARK  status: ('A' for Active; 'I' for Inactive)
REMARK    1  A    between atoms: C_4  and  O_28
REMARK    2  A    between atoms: C_5  and  O_6
REMARK    3  A    between atoms: O_6  and  C_7
REMARK    4  A    between atoms: C_8  and  O_26
REMARK    5  A    between atoms: C_12  and  C_13
REMARK    6  A    between atoms: C_14  and  O_15
REMARK    7  A    between atoms: C_17  and  O_21
REMARK    8  A    between atoms: C_18  and  O_19
REMARK    9  A    between atoms: O_21  and  C_22
REMARK   10  A    between atoms: C_23  and  O_24
REMARK   11  A    between atoms: O_24  and  C_25
REMARK   12  A    between atoms: O_26  and  C_27
REMARK                            x       y       z     vdW  Elec       q    Type
REMARK                         _______ _______ _______ _____ _____    ______ ____
ROOT
ATOM      1  O   LIG A   1      -7.857   2.639 131.343  0.00  0.00    -0.283 OA
ATOM      2  C   LIG A   1      -8.193   3.772 131.684  0.00  0.00    +0.238 A 
ATOM      3  C   LIG A   1      -7.752   4.251 132.987  0.00  0.00    +0.113 A 
ATOM      4  C   LIG A   1      -6.804   3.551 133.766  0.00  0.00    +0.177 A 
ATOM      5  C   LIG A   1      -6.373   4.052 135.004  0.00  0.00    +0.204 A 
ATOM      6  C   LIG A   1      -6.963   5.242 135.481  0.00  0.00    +0.169 A 
ATOM      7  C   LIG A   1      -7.929   5.911 134.704  0.00  0.00    +0.096 A 
ATOM      8  C   LIG A   1      -8.319   5.431 133.458  0.00  0.00    +0.147 A 
ATOM      9  O   LIG A   1      -9.251   6.142 132.750  0.00  0.00    -0.451 OA
ATOM     10  C   LIG A   1      -9.513   5.783 131.440  0.00  0.00    +0.184 A 
ATOM     11  C   LIG A   1      -9.025   4.663 130.837  0.00  0.00    +0.211 A 
ENDROOT
BRANCH  10  12
ATOM     12  C   LIG A   1     -10.443   6.692 130.743  0.00  0.00    +0.066 A 
ATOM     13  C   LIG A   1     -11.793   6.827 131.127  0.00  0.00    +0.131 A 
ATOM     14  C   LIG A   1     -12.696   7.619 130.402  0.00  0.00    +0.095 A 
ATOM     15  C   LIG A   1     -12.256   8.321 129.284  0.00  0.00    +0.165 A 
ATOM     16  C   LIG A   1     -10.901   8.251 128.942  0.00  0.00    +0.159 A 
ATOM     17  C   LIG A   1     -10.000   7.450 129.647  0.00  0.00    +0.064 A 
BRANCH  13  18
ATOM     18  O   LIG A   1     -12.310   6.206 132.234  0.00  0.00    -0.506 OA
ATOM     19  H   LIG A   1     -12.121   5.255 132.176  0.00  0.00    +0.292 HD
ENDBRANCH  13  18
BRANCH  16  20
ATOM     20  O   LIG A   1     -10.436   8.967 127.871  0.00  0.00    -0.503 OA
ATOM     21  H   LIG A   1     -10.998   8.694 127.120  0.00  0.00    +0.292 HD
ENDBRANCH  16  20
BRANCH  15  22
ATOM     22  O   LIG A   1     -13.029   9.134 128.495  0.00  0.00    -0.491 OA
ATOM     23  C   LIG A   1     -13.489  10.338 129.107  0.00  0.00    +0.277 C 
ENDBRANCH  15  22
ENDBRANCH  10  12
BRANCH   5  24
ATOM     24  O   LIG A   1      -5.456   3.418 135.804  0.00  0.00    -0.488 OA
ATOM     25  C   LIG A   1      -4.082   3.765 135.636  0.00  0.00    +0.277 C 
ENDBRANCH   5  24
BRANCH  11  26
ATOM     26  O   LIG A   1      -9.338   4.357 129.522  0.00  0.00    -0.488 OA
ATOM     27  C   LIG A   1      -8.236   4.416 128.606  0.00  0.00    +0.277 C 
ENDBRANCH  11  26
BRANCH   6  28
ATOM     28  O   LIG A   1      -6.713   5.916 136.649  0.00  0.00    -0.491 OA
ATOM     29  C   LIG A   1      -7.760   6.635 137.283  0.00  0.00    +0.277 C 
ENDBRANCH   6  28
BRANCH   4  30
ATOM     30  O   LIG A   1      -6.303   2.348 133.312  0.00  0.00    -0.503 OA
ATOM     31  H   LIG A   1      -5.370   2.255 133.594  0.00  0.00    +0.292 HD
ENDBRANCH   4  30
TORSDOF 8
ENDMDL
MODEL 2
REMARK VINA RESULT:      -6.9      6.827      9.824
REMARK  Name = NuBBE_1873
REMARK  12 active torsions:
REMARK  status: ('A' for Active; 'I' for Inactive)
REMARK    1  A    between atoms: C_4  and  O_28
REMARK    2  A    between atoms: C_5  and  O_6
REMARK    3  A    between atoms: O_6  and  C_7
REMARK    4  A    between atoms: C_8  and  O_26
REMARK    5  A    between atoms: C_12  and  C_13
REMARK    6  A    between atoms: C_14  and  O_15
REMARK    7  A    between atoms: C_17  and  O_21
REMARK    8  A    between atoms: C_18  and  O_19
REMARK    9  A    between atoms: O_21  and  C_22
REMARK   10  A    between atoms: C_23  and  O_24
REMARK   11  A    between atoms: O_24  and  C_25
REMARK   12  A    between atoms: O_26  and  C_27
REMARK                            x       y       z     vdW  Elec       q    Type
REMARK                         _______ _______ _______ _____ _____    ______ ____
ROOT
ATOM      1  O   LIG A   1      -8.826   2.267 123.801  0.00  0.00    -0.283 OA
ATOM      2  C   LIG A   1      -7.977   1.947 124.632  0.00  0.00    +0.238 A 
ATOM      3  C   LIG A   1      -8.059   0.615 125.213  0.00  0.00    +0.113 A 
ATOM      4  C   LIG A   1      -8.942  -0.371 124.717  0.00  0.00    +0.177 A 
ATOM      5  C   LIG A   1      -8.978  -1.657 125.277  0.00  0.00    +0.204 A 
ATOM      6  C   LIG A   1      -8.155  -1.920 126.393  0.00  0.00    +0.169 A 
ATOM      7  C   LIG A   1      -7.303  -0.915 126.893  0.00  0.00    +0.096 A 
ATOM      8  C   LIG A   1      -7.242   0.343 126.305  0.00  0.00    +0.147 A 
ATOM      9  O   LIG A   1      -6.377   1.265 126.833  0.00  0.00    -0.451 OA
ATOM     10  C   LIG A   1      -6.169   2.453 126.155  0.00  0.00    +0.184 A 
ATOM     11  C   LIG A   1      -6.883   2.852 125.066  0.00  0.00    +0.211 A 
ENDROOT
BRANCH  10  12
ATOM     12  C   LIG A   1      -5.131   3.313 126.755  0.00  0.00    +0.066 A 
ATOM     13  C   LIG A   1      -5.446   4.377 127.624  0.00  0.00    +0.131 A 
ATOM     14  C   LIG A   1      -4.464   5.250 128.116  0.00  0.00    +0.095 A 
ATOM     15  C   LIG A   1      -3.131   5.059 127.766  0.00  0.00    +0.165 A 
ATOM     16  C   LIG A   1      -2.803   3.960 126.964  0.00  0.00    +0.159 A 
ATOM     17  C   LIG A   1      -3.777   3.097 126.456  0.00  0.00    +0.064 A 
BRANCH  13  18
ATOM     18  O   LIG A   1      -6.723   4.623 128.056  0.00  0.00    -0.506 OA
ATOM     19  H   LIG A   1      -6.921   4.032 128.801  0.00  0.00    +0.292 HD
ENDBRANCH  13  18
BRANCH  16  20
ATOM     20  O   LIG A   1      -1.492   3.725 126.641  0.00  0.00    -0.503 OA
ATOM     21  H   LIG A   1      -0.982   4.371 127.169  0.00  0.00    +0.292 HD
ENDBRANCH  16  20
BRANCH  15  22
ATOM     22  O   LIG A   1      -2.075   5.831 128.180  0.00  0.00    -0.491 OA
ATOM     23  C   LIG A   1      -2.209   6.423 129.471  0.00  0.00    +0.277 C 
ENDBRANCH  15  22
ENDBRANCH  10  12
BRANCH   5  24
ATOM     24  O   LIG A   1      -9.813  -2.655 124.839  0.00  0.00    -0.488 OA
ATOM     25  C   LIG A   1      -9.416  -3.385 123.679  0.00  0.00    +0.277 C 
ENDBRANCH   5  24
BRANCH  11  26
ATOM     26  O   LIG A   1      -6.629   4.063 124.440  0.00  0.00    -0.488 OA
ATOM     27  C   LIG A   1      -5.842   3.974 123.245  0.00  0.00    +0.277 C 
ENDBRANCH  11  26
BRANCH   6  28
ATOM     28  O   LIG A   1      -8.021  -3.084 127.105  0.00  0.00    -0.491 OA
ATOM     29  C   LIG A   1      -8.291  -3.089 128.499  0.00  0.00    +0.277 C 
ENDBRANCH   6  28
BRANCH   4  30
ATOM     30  O   LIG A   1      -9.793  -0.062 123.676  0.00  0.00    -0.503 OA
ATOM     31  H   LIG A   1      -9.398  -0.359 122.831  0.00  0.00    +0.292 HD
ENDBRANCH   4  30
TORSDOF 8
ENDMDL
MODEL 3
REMARK VINA RESULT:      -6.7      3.414      7.784
REMARK  Name = NuBBE_1873
REMARK  12 active torsions:
REMARK  status: ('A' for Active; 'I' for Inactive)
REMARK    1  A    between atoms: C_4  and  O_28
REMARK    2  A    between atoms: C_5  and  O_6
REMARK    3  A    between atoms: O_6  and  C_7
REMARK    4  A    between atoms: C_8  and  O_26
REMARK    5  A    between atoms: C_12  and  C_13
REMARK    6  A    between atoms: C_14  and  O_15
REMARK    7  A    between atoms: C_17  and  O_21
REMARK    8  A    between atoms: C_18  and  O_19
REMARK    9  A    between atoms: O_21  and  C_22
REMARK   10  A    between atoms: C_23  and  O_24
REMARK   11  A    between atoms: O_24  and  C_25
REMARK   12  A    between atoms: O_26  and  C_27
REMARK                            x       y       z     vdW  Elec       q    Type
REMARK                         _______ _______ _______ _____ _____    ______ ____
ROOT
ATOM      1  O   LIG A   1      -8.314   5.498 133.315  0.00  0.00    -0.283 OA
ATOM      2  C   LIG A   1      -8.045   5.513 132.114  0.00  0.00    +0.238 A 
ATOM      3  C   LIG A   1      -9.109   5.853 131.181  0.00  0.00    +0.113 A 
ATOM      4  C   LIG A   1     -10.358   6.353 131.611  0.00  0.00    +0.177 A 
ATOM      5  C   LIG A   1     -11.355   6.703 130.687  0.00  0.00    +0.204 A 
ATOM      6  C   LIG A   1     -11.099   6.479 129.317  0.00  0.00    +0.169 A 
ATOM      7  C   LIG A   1      -9.859   5.952 128.909  0.00  0.00    +0.096 A 
ATOM      8  C   LIG A   1      -8.860   5.649 129.828  0.00  0.00    +0.147 A 
ATOM      9  O   LIG A   1      -7.672   5.155 129.357  0.00  0.00    -0.451 OA
ATOM     10  C   LIG A   1      -6.609   5.022 130.232  0.00  0.00    +0.184 A 
ATOM     11  C   LIG A   1      -6.696   5.198 131.580  0.00  0.00    +0.211 A 
ENDROOT
BRANCH  10  12
ATOM     12  C   LIG A   1      -5.351   4.596 129.589  0.00  0.00    +0.066 A 
ATOM     13  C   LIG A   1      -4.421   5.520 129.072  0.00  0.00    +0.131 A 
ATOM     14  C   LIG A   1      -3.273   5.110 128.377  0.00  0.00    +0.095 A 
ATOM     15  C   LIG A   1      -3.017   3.753 128.206  0.00  0.00    +0.165 A 
ATOM     16  C   LIG A   1      -3.899   2.830 128.781  0.00  0.00    +0.159 A 
ATOM     17  C   LIG A   1      -5.052   3.231 129.458  0.00  0.00    +0.064 A 
BRANCH  13  18
ATOM     18  O   LIG A   1      -4.565   6.875 129.222  0.00  0.00    -0.506 OA
ATOM     19  H   LIG A   1      -5.402   7.148 128.810  0.00  0.00    +0.292 HD
ENDBRANCH  13  18
BRANCH  16  20
ATOM     20  O   LIG A   1      -3.645   1.489 128.664  0.00  0.00    -0.503 OA
ATOM     21  H   LIG A   1      -3.815   1.120 129.554  0.00  0.00    +0.292 HD
ENDBRANCH  16  20
BRANCH  15  22
ATOM     22  O   LIG A   1      -1.934   3.218 127.557  0.00  0.00    -0.491 OA
ATOM     23  C   LIG A   1      -1.952   3.316 126.134  0.00  0.00    +0.277 C 
ENDBRANCH  15  22
ENDBRANCH  10  12
BRANCH   5  24
ATOM     24  O   LIG A   1     -12.586   7.193 131.045  0.00  0.00    -0.488 OA
ATOM     25  C   LIG A   1     -12.843   8.575 130.800  0.00  0.00    +0.277 C 
ENDBRANCH   5  24
BRANCH  11  26
ATOM     26  O   LIG A   1      -5.591   5.037 132.402  0.00  0.00    -0.488 OA
ATOM     27  C   LIG A   1      -4.937   6.254 132.785  0.00  0.00    +0.277 C 
ENDBRANCH  11  26
BRANCH   6  28
ATOM     28  O   LIG A   1     -11.909   6.733 128.241  0.00  0.00    -0.491 OA
ATOM     29  C   LIG A   1     -11.383   7.414 127.111  0.00  0.00    +0.277 C 
ENDBRANCH   6  28
BRANCH   4  30
ATOM     30  O   LIG A   1     -10.610   6.486 132.961  0.00  0.00    -0.503 OA
ATOM     31  H   LIG A   1      -9.773   6.669 133.434  0.00  0.00    +0.292 HD
ENDBRANCH   4  30
TORSDOF 8
ENDMDL
MODEL 4
REMARK VINA RESULT:      -6.7      7.923      9.721
REMARK  Name = NuBBE_1873
REMARK  12 active torsions:
REMARK  status: ('A' for Active; 'I' for Inactive)
REMARK    1  A    between atoms: C_4  and  O_28
REMARK    2  A    between atoms: C_5  and  O_6
REMARK    3  A    between atoms: O_6  and  C_7
REMARK    4  A    between atoms: C_8  and  O_26
REMARK    5  A    between atoms: C_12  and  C_13
REMARK    6  A    between atoms: C_14  and  O_15
REMARK    7  A    between atoms: C_17  and  O_21
REMARK    8  A    between atoms: C_18  and  O_19
REMARK    9  A    between atoms: O_21  and  C_22
REMARK   10  A    between atoms: C_23  and  O_24
REMARK   11  A    between atoms: O_24  and  C_25
REMARK   12  A    between atoms: O_26  and  C_27
REMARK                            x       y       z     vdW  Elec       q    Type
REMARK                         _______ _______ _______ _____ _____    ______ ____
ROOT
ATOM      1  O   LIG A   1      -4.492   2.165 126.945  0.00  0.00    -0.283 OA
ATOM      2  C   LIG A   1      -5.359   1.808 126.149  0.00  0.00    +0.238 A 
ATOM      3  C   LIG A   1      -5.950   0.491 126.330  0.00  0.00    +0.113 A 
ATOM      4  C   LIG A   1      -5.711  -0.291 127.483  0.00  0.00    +0.177 A 
ATOM      5  C   LIG A   1      -6.320  -1.545 127.647  0.00  0.00    +0.204 A 
ATOM      6  C   LIG A   1      -7.126  -2.034 126.597  0.00  0.00    +0.169 A 
ATOM      7  C   LIG A   1      -7.329  -1.254 125.441  0.00  0.00    +0.096 A 
ATOM      8  C   LIG A   1      -6.758   0.006 125.306  0.00  0.00    +0.147 A 
ATOM      9  O   LIG A   1      -7.013   0.716 124.163  0.00  0.00    -0.451 OA
ATOM     10  C   LIG A   1      -6.606   2.036 124.090  0.00  0.00    +0.184 A 
ATOM     11  C   LIG A   1      -5.823   2.652 125.019  0.00  0.00    +0.211 A 
ENDROOT
BRANCH  10  12
ATOM     12  C   LIG A   1      -7.040   2.732 122.863  0.00  0.00    +0.066 A 
ATOM     13  C   LIG A   1      -8.399   2.850 122.506  0.00  0.00    +0.131 A 
ATOM     14  C   LIG A   1      -8.801   3.427 121.293  0.00  0.00    +0.095 A 
ATOM     15  C   LIG A   1      -7.845   3.927 120.415  0.00  0.00    +0.165 A 
ATOM     16  C   LIG A   1      -6.499   3.880 120.797  0.00  0.00    +0.159 A 
ATOM     17  C   LIG A   1      -6.090   3.290 121.995  0.00  0.00    +0.064 A 
BRANCH  13  18
ATOM     18  O   LIG A   1      -9.415   2.422 123.321  0.00  0.00    -0.506 OA
ATOM     19  H   LIG A   1      -9.219   1.519 123.619  0.00  0.00    +0.292 HD
ENDBRANCH  13  18
BRANCH  16  20
ATOM     20  O   LIG A   1      -5.542   4.405 119.969  0.00  0.00    -0.503 OA
ATOM     21  H   LIG A   1      -5.130   3.631 119.535  0.00  0.00    +0.292 HD
ENDBRANCH  16  20
BRANCH  15  22
ATOM     22  O   LIG A   1      -8.100   4.520 119.205  0.00  0.00    -0.491 OA
ATOM     23  C   LIG A   1      -9.429   4.372 118.709  0.00  0.00    +0.277 C 
ENDBRANCH  15  22
ENDBRANCH  10  12
BRANCH   5  24
ATOM     24  O   LIG A   1      -6.126  -2.348 128.743  0.00  0.00    -0.488 OA
ATOM     25  C   LIG A   1      -7.081  -2.263 129.800  0.00  0.00    +0.277 C 
ENDBRANCH   5  24
BRANCH  11  26
ATOM     26  O   LIG A   1      -5.442   3.978 124.878  0.00  0.00    -0.488 OA
ATOM     27  C   LIG A   1      -6.268   4.923 125.572  0.00  0.00    +0.277 C 
ENDBRANCH  11  26
BRANCH   6  28
ATOM     28  O   LIG A   1      -7.814  -3.218 126.523  0.00  0.00    -0.491 OA
ATOM     29  C   LIG A   1      -9.229  -3.203 126.411  0.00  0.00    +0.277 C 
ENDBRANCH   6  28
BRANCH   4  30
ATOM     30  O   LIG A   1      -4.855   0.178 128.458  0.00  0.00    -0.503 OA
ATOM     31  H   LIG A   1      -4.542  -0.571 129.007  0.00  0.00    +0.292 HD
ENDBRANCH   4  30
TORSDOF 8
ENDMDL
MODEL 5
REMARK VINA RESULT:      -6.5      6.360      9.612
REMARK  Name = NuBBE_1873
REMARK  12 active torsions:
REMARK  status: ('A' for Active; 'I' for Inactive)
REMARK    1  A    between atoms: C_4  and  O_28
REMARK    2  A    between atoms: C_5  and  O_6
REMARK    3  A    between atoms: O_6  and  C_7
REMARK    4  A    between atoms: C_8  and  O_26
REMARK    5  A    between atoms: C_12  and  C_13
REMARK    6  A    between atoms: C_14  and  O_15
REMARK    7  A    between atoms: C_17  and  O_21
REMARK    8  A    between atoms: C_18  and  O_19
REMARK    9  A    between atoms: O_21  and  C_22
REMARK   10  A    between atoms: C_23  and  O_24
REMARK   11  A    between atoms: O_24  and  C_25
REMARK   12  A    between atoms: O_26  and  C_27
REMARK                            x       y       z     vdW  Elec       q    Type
REMARK                         _______ _______ _______ _____ _____    ______ ____
ROOT
ATOM      1  O   LIG A   1      -8.978   2.292 124.336  0.00  0.00    -0.283 OA
ATOM      2  C   LIG A   1      -8.139   1.940 125.164  0.00  0.00    +0.238 A 
ATOM      3  C   LIG A   1      -8.194   0.569 125.650  0.00  0.00    +0.113 A 
ATOM      4  C   LIG A   1      -9.034  -0.405 125.065  0.00  0.00    +0.177 A 
ATOM      5  C   LIG A   1      -9.043  -1.728 125.533  0.00  0.00    +0.204 A 
ATOM      6  C   LIG A   1      -8.240  -2.044 126.650  0.00  0.00    +0.169 A 
ATOM      7  C   LIG A   1      -7.432  -1.052 127.240  0.00  0.00    +0.096 A 
ATOM      8  C   LIG A   1      -7.395   0.246 126.742  0.00  0.00    +0.147 A 
ATOM      9  O   LIG A   1      -6.573   1.154 127.355  0.00  0.00    -0.451 OA
ATOM     10  C   LIG A   1      -6.385   2.391 126.766  0.00  0.00    +0.184 A 
ATOM     11  C   LIG A   1      -7.085   2.844 125.688  0.00  0.00    +0.211 A 
ENDROOT
BRANCH  10  12
ATOM     12  C   LIG A   1      -5.389   3.237 127.450  0.00  0.00    +0.066 A 
ATOM     13  C   LIG A   1      -4.003   3.000 127.347  0.00  0.00    +0.131 A 
ATOM     14  C   LIG A   1      -3.065   3.747 128.075  0.00  0.00    +0.095 A 
ATOM     15  C   LIG A   1      -3.496   4.774 128.909  0.00  0.00    +0.165 A 
ATOM     16  C   LIG A   1      -4.865   5.063 128.958  0.00  0.00    +0.159 A 
ATOM     17  C   LIG A   1      -5.806   4.312 128.250  0.00  0.00    +0.064 A 
BRANCH  13  18
ATOM     18  O   LIG A   1      -3.478   2.037 126.525  0.00  0.00    -0.506 OA
ATOM     19  H   LIG A   1      -3.907   1.188 126.724  0.00  0.00    +0.292 HD
ENDBRANCH  13  18
BRANCH  16  20
ATOM     20  O   LIG A   1      -5.310   6.098 129.737  0.00  0.00    -0.503 OA
ATOM     21  H   LIG A   1      -5.231   5.775 130.657  0.00  0.00    +0.292 HD
ENDBRANCH  16  20
BRANCH  15  22
ATOM     22  O   LIG A   1      -2.689   5.583 129.667  0.00  0.00    -0.491 OA
ATOM     23  C   LIG A   1      -1.960   6.579 128.951  0.00  0.00    +0.277 C 
ENDBRANCH  15  22
ENDBRANCH  10  12
BRANCH   5  24
ATOM     24  O   LIG A   1      -9.836  -2.717 125.006  0.00  0.00    -0.488 OA
ATOM     25  C   LIG A   1      -9.368  -3.382 123.834  0.00  0.00    +0.277 C 
ENDBRANCH   5  24
BRANCH  11  26
ATOM     26  O   LIG A   1      -6.853   4.102 125.154  0.00  0.00    -0.488 OA
ATOM     27  C   LIG A   1      -5.982   4.127 124.015  0.00  0.00    +0.277 C 
ENDBRANCH  11  26
BRANCH   6  28
ATOM     28  O   LIG A   1      -8.087  -3.250 127.284  0.00  0.00    -0.491 OA
ATOM     29  C   LIG A   1      -8.557  -3.409 128.614  0.00  0.00    +0.277 C 
ENDBRANCH   6  28
BRANCH   4  30
ATOM     30  O   LIG A   1      -9.869  -0.050 124.026  0.00  0.00    -0.503 OA
ATOM     31  H   LIG A   1     -10.673   0.380 124.384  0.00  0.00    +0.292 HD
ENDBRANCH   4  30
TORSDOF 8
ENDMDL
MODEL 6
REMARK VINA RESULT:      -6.4      2.498      5.014
REMARK  Name = NuBBE_1873
REMARK  12 active torsions:
REMARK  status: ('A' for Active; 'I' for Inactive)
REMARK    1  A    between atoms: C_4  and  O_28
REMARK    2  A    between atoms: C_5  and  O_6
REMARK    3  A    between atoms: O_6  and  C_7
REMARK    4  A    between atoms: C_8  and  O_26
REMARK    5  A    between atoms: C_12  and  C_13
REMARK    6  A    between atoms: C_14  and  O_15
REMARK    7  A    between atoms: C_17  and  O_21
REMARK    8  A    between atoms: C_18  and  O_19
REMARK    9  A    between atoms: O_21  and  C_22
REMARK   10  A    between atoms: C_23  and  O_24
REMARK   11  A    between atoms: O_24  and  C_25
REMARK   12  A    between atoms: O_26  and  C_27
REMARK                            x       y       z     vdW  Elec       q    Type
REMARK                         _______ _______ _______ _____ _____    ______ ____
ROOT
ATOM      1  O   LIG A   1      -6.133   4.224 131.618  0.00  0.00    -0.283 OA
ATOM      2  C   LIG A   1      -7.160   4.162 130.942  0.00  0.00    +0.238 A 
ATOM      3  C   LIG A   1      -7.347   2.994 130.093  0.00  0.00    +0.113 A 
ATOM      4  C   LIG A   1      -6.506   1.862 130.172  0.00  0.00    +0.177 A 
ATOM      5  C   LIG A   1      -6.730   0.736 129.363  0.00  0.00    +0.204 A 
ATOM      6  C   LIG A   1      -7.779   0.793 128.421  0.00  0.00    +0.169 A 
ATOM      7  C   LIG A   1      -8.589   1.943 128.336  0.00  0.00    +0.096 A 
ATOM      8  C   LIG A   1      -8.388   3.036 129.171  0.00  0.00    +0.147 A 
ATOM      9  O   LIG A   1      -9.225   4.113 129.044  0.00  0.00    -0.451 OA
ATOM     10  C   LIG A   1      -9.157   5.127 129.983  0.00  0.00    +0.184 A 
ATOM     11  C   LIG A   1      -8.203   5.217 130.951  0.00  0.00    +0.211 A 
ENDROOT
BRANCH  10  12
ATOM     12  C   LIG A   1     -10.185   6.172 129.812  0.00  0.00    +0.066 A 
ATOM     13  C   LIG A   1     -11.347   6.221 130.609  0.00  0.00    +0.131 A 
ATOM     14  C   LIG A   1     -12.366   7.159 130.381  0.00  0.00    +0.095 A 
ATOM     15  C   LIG A   1     -12.230   8.092 129.358  0.00  0.00    +0.165 A 
ATOM     16  C   LIG A   1     -11.046   8.095 128.611  0.00  0.00    +0.159 A 
ATOM     17  C   LIG A   1     -10.036   7.154 128.821  0.00  0.00    +0.064 A 
BRANCH  13  18
ATOM     18  O   LIG A   1     -11.555   5.370 131.663  0.00  0.00    -0.506 OA
ATOM     19  H   LIG A   1     -10.694   5.119 132.037  0.00  0.00    +0.292 HD
ENDBRANCH  13  18
BRANCH  16  20
ATOM     20  O   LIG A   1     -10.870   9.032 127.627  0.00  0.00    -0.503 OA
ATOM     21  H   LIG A   1      -9.902   9.164 127.573  0.00  0.00    +0.292 HD
ENDBRANCH  16  20
BRANCH  15  22
ATOM     22  O   LIG A   1     -13.142   9.063 129.034  0.00  0.00    -0.491 OA
ATOM     23  C   LIG A   1     -13.145  10.217 129.872  0.00  0.00    +0.277 C 
ENDBRANCH  15  22
ENDBRANCH  10  12
BRANCH   5  24
ATOM     24  O   LIG A   1      -5.948  -0.391 129.395  0.00  0.00    -0.488 OA
ATOM     25  C   LIG A   1      -6.371  -1.464 130.235  0.00  0.00    +0.277 C 
ENDBRANCH   5  24
BRANCH  11  26
ATOM     26  O   LIG A   1      -8.188   6.269 131.854  0.00  0.00    -0.488 OA
ATOM     27  C   LIG A   1      -8.553   5.921 133.197  0.00  0.00    +0.277 C 
ENDBRANCH  11  26
BRANCH   6  28
ATOM     28  O   LIG A   1      -8.184  -0.166 127.529  0.00  0.00    -0.491 OA
ATOM     29  C   LIG A   1      -7.581  -0.231 126.245  0.00  0.00    +0.277 C 
ENDBRANCH   6  28
BRANCH   4  30
ATOM     30  O   LIG A   1      -5.439   1.865 131.046  0.00  0.00    -0.503 OA
ATOM     31  H   LIG A   1      -5.114   0.949 131.170  0.00  0.00    +0.292 HD
ENDBRANCH   4  30
TORSDOF 8
ENDMDL
MODEL 7
REMARK VINA RESULT:      -6.3      6.450      8.599
REMARK  Name = NuBBE_1873
REMARK  12 active torsions:
REMARK  status: ('A' for Active; 'I' for Inactive)
REMARK    1  A    between atoms: C_4  and  O_28
REMARK    2  A    between atoms: C_5  and  O_6
REMARK    3  A    between atoms: O_6  and  C_7
REMARK    4  A    between atoms: C_8  and  O_26
REMARK    5  A    between atoms: C_12  and  C_13
REMARK    6  A    between atoms: C_14  and  O_15
REMARK    7  A    between atoms: C_17  and  O_21
REMARK    8  A    between atoms: C_18  and  O_19
REMARK    9  A    between atoms: O_21  and  C_22
REMARK   10  A    between atoms: C_23  and  O_24
REMARK   11  A    between atoms: O_24  and  C_25
REMARK   12  A    between atoms: O_26  and  C_27
REMARK                            x       y       z     vdW  Elec       q    Type
REMARK                         _______ _______ _______ _____ _____    ______ ____
ROOT
ATOM      1  O   LIG A   1      -8.046  -3.178 126.249  0.00  0.00    -0.283 OA
ATOM      2  C   LIG A   1      -7.931  -1.956 126.331  0.00  0.00    +0.238 A 
ATOM      3  C   LIG A   1      -7.869  -1.364 127.659  0.00  0.00    +0.113 A 
ATOM      4  C   LIG A   1      -7.735  -2.148 128.828  0.00  0.00    +0.177 A 
ATOM      5  C   LIG A   1      -7.645  -1.549 130.094  0.00  0.00    +0.204 A 
ATOM      6  C   LIG A   1      -7.759  -0.144 130.175  0.00  0.00    +0.169 A 
ATOM      7  C   LIG A   1      -7.922   0.618 129.001  0.00  0.00    +0.096 A 
ATOM      8  C   LIG A   1      -7.966   0.020 127.747  0.00  0.00    +0.147 A 
ATOM      9  O   LIG A   1      -8.109   0.826 126.648  0.00  0.00    -0.451 OA
ATOM     10  C   LIG A   1      -7.971   0.270 125.389  0.00  0.00    +0.184 A 
ATOM     11  C   LIG A   1      -7.857  -1.065 125.145  0.00  0.00    +0.211 A 
ENDROOT
BRANCH  10  12
ATOM     12  C   LIG A   1      -8.026   1.253 124.290  0.00  0.00    +0.066 A 
ATOM     13  C   LIG A   1      -9.217   1.529 123.586  0.00  0.00    +0.131 A 
ATOM     14  C   LIG A   1      -9.243   2.392 122.481  0.00  0.00    +0.095 A 
ATOM     15  C   LIG A   1      -8.074   3.025 122.069  0.00  0.00    +0.165 A 
ATOM     16  C   LIG A   1      -6.905   2.812 122.808  0.00  0.00    +0.159 A 
ATOM     17  C   LIG A   1      -6.867   1.940 123.899  0.00  0.00    +0.064 A 
BRANCH  13  18
ATOM     18  O   LIG A   1     -10.425   0.985 123.939  0.00  0.00    -0.506 OA
ATOM     19  H   LIG A   1     -10.734   1.414 124.754  0.00  0.00    +0.292 HD
ENDBRANCH  13  18
BRANCH  16  20
ATOM     20  O   LIG A   1      -5.751   3.457 122.449  0.00  0.00    -0.503 OA
ATOM     21  H   LIG A   1      -5.075   2.753 122.389  0.00  0.00    +0.292 HD
ENDBRANCH  16  20
BRANCH  15  22
ATOM     22  O   LIG A   1      -7.963   3.894 121.014  0.00  0.00    -0.491 OA
ATOM     23  C   LIG A   1      -9.059   3.908 120.102  0.00  0.00    +0.277 C 
ENDBRANCH  15  22
ENDBRANCH  10  12
BRANCH   5  24
ATOM     24  O   LIG A   1      -7.515  -2.256 131.263  0.00  0.00    -0.488 OA
ATOM     25  C   LIG A   1      -6.194  -2.506 131.739  0.00  0.00    +0.277 C 
ENDBRANCH   5  24
BRANCH  11  26
ATOM     26  O   LIG A   1      -7.734  -1.556 123.855  0.00  0.00    -0.488 OA
ATOM     27  C   LIG A   1      -8.925  -2.140 123.310  0.00  0.00    +0.277 C 
ENDBRANCH  11  26
BRANCH   6  28
ATOM     28  O   LIG A   1      -7.708   0.659 131.285  0.00  0.00    -0.491 OA
ATOM     29  C   LIG A   1      -6.495   1.313 131.623  0.00  0.00    +0.277 C 
ENDBRANCH   6  28
BRANCH   4  30
ATOM     30  O   LIG A   1      -7.707  -3.523 128.727  0.00  0.00    -0.503 OA
ATOM     31  H   LIG A   1      -7.655  -3.781 127.783  0.00  0.00    +0.292 HD
ENDBRANCH   4  30
TORSDOF 8
ENDMDL
MODEL 8
REMARK VINA RESULT:      -6.2      8.105     11.546
REMARK  Name = NuBBE_1873
REMARK  12 active torsions:
REMARK  status: ('A' for Active; 'I' for Inactive)
REMARK    1  A    between atoms: C_4  and  O_28
REMARK    2  A    between atoms: C_5  and  O_6
REMARK    3  A    between atoms: O_6  and  C_7
REMARK    4  A    between atoms: C_8  and  O_26
REMARK    5  A    between atoms: C_12  and  C_13
REMARK    6  A    between atoms: C_14  and  O_15
REMARK    7  A    between atoms: C_17  and  O_21
REMARK    8  A    between atoms: C_18  and  O_19
REMARK    9  A    between atoms: O_21  and  C_22
REMARK   10  A    between atoms: C_23  and  O_24
REMARK   11  A    between atoms: O_24  and  C_25
REMARK   12  A    between atoms: O_26  and  C_27
REMARK                            x       y       z     vdW  Elec       q    Type
REMARK                         _______ _______ _______ _____ _____    ______ ____
ROOT
ATOM      1  O   LIG A   1      -9.833  -0.826 123.604  0.00  0.00    -0.283 OA
ATOM      2  C   LIG A   1      -9.002  -0.380 124.394  0.00  0.00    +0.238 A 
ATOM      3  C   LIG A   1      -8.377   0.896 124.076  0.00  0.00    +0.113 A 
ATOM      4  C   LIG A   1      -8.832   1.716 123.020  0.00  0.00    +0.177 A 
ATOM      5  C   LIG A   1      -8.232   2.957 122.757  0.00  0.00    +0.204 A 
ATOM      6  C   LIG A   1      -7.115   3.334 123.534  0.00  0.00    +0.169 A 
ATOM      7  C   LIG A   1      -6.657   2.489 124.564  0.00  0.00    +0.096 A 
ATOM      8  C   LIG A   1      -7.285   1.281 124.847  0.00  0.00    +0.147 A 
ATOM      9  O   LIG A   1      -6.795   0.519 125.875  0.00  0.00    -0.451 OA
ATOM     10  C   LIG A   1      -7.513  -0.589 126.287  0.00  0.00    +0.184 A 
ATOM     11  C   LIG A   1      -8.607  -1.081 125.641  0.00  0.00    +0.211 A 
ENDROOT
BRANCH  10  12
ATOM     12  C   LIG A   1      -6.951  -1.260 127.475  0.00  0.00    +0.066 A 
ATOM     13  C   LIG A   1      -5.815  -2.091 127.402  0.00  0.00    +0.131 A 
ATOM     14  C   LIG A   1      -5.342  -2.802 128.515  0.00  0.00    +0.095 A 
ATOM     15  C   LIG A   1      -5.986  -2.674 129.742  0.00  0.00    +0.165 A 
ATOM     16  C   LIG A   1      -7.070  -1.794 129.838  0.00  0.00    +0.159 A 
ATOM     17  C   LIG A   1      -7.557  -1.097 128.730  0.00  0.00    +0.064 A 
BRANCH  13  18
ATOM     18  O   LIG A   1      -5.091  -2.251 126.249  0.00  0.00    -0.506 OA
ATOM     19  H   LIG A   1      -5.337  -3.097 125.840  0.00  0.00    +0.292 HD
ENDBRANCH  13  18
BRANCH  16  20
ATOM     20  O   LIG A   1      -7.694  -1.618 131.045  0.00  0.00    -0.503 OA
ATOM     21  H   LIG A   1      -8.488  -2.187 131.005  0.00  0.00    +0.292 HD
ENDBRANCH  16  20
BRANCH  15  22
ATOM     22  O   LIG A   1      -5.625  -3.304 130.906  0.00  0.00    -0.491 OA
ATOM     23  C   LIG A   1      -5.578  -4.728 130.852  0.00  0.00    +0.277 C 
ENDBRANCH  15  22
ENDBRANCH  10  12
BRANCH   5  24
ATOM     24  O   LIG A   1      -8.629   3.796 121.746  0.00  0.00    -0.488 OA
ATOM     25  C   LIG A   1      -7.876   3.772 120.534  0.00  0.00    +0.277 C 
ENDBRANCH   5  24
BRANCH  11  26
ATOM     26  O   LIG A   1      -9.274  -2.204 126.104  0.00  0.00    -0.488 OA
ATOM     27  C   LIG A   1      -8.840  -3.446 125.533  0.00  0.00    +0.277 C 
ENDBRANCH  11  26
BRANCH   6  28
ATOM     28  O   LIG A   1      -6.368   4.481 123.463  0.00  0.00    -0.491 OA
ATOM     29  C   LIG A   1      -5.105   4.457 122.815  0.00  0.00    +0.277 C 
ENDBRANCH   6  28
BRANCH   4  30
ATOM     30  O   LIG A   1      -9.874   1.287 122.224  0.00  0.00    -0.503 OA
ATOM     31  H   LIG A   1     -10.611   1.930 122.274  0.00  0.00    +0.292 HD
ENDBRANCH   4  30
TORSDOF 8
ENDMDL
MODEL 9
REMARK VINA RESULT:      -6.1      6.397      9.716
REMARK  Name = NuBBE_1873
REMARK  12 active torsions:
REMARK  status: ('A' for Active; 'I' for Inactive)
REMARK    1  A    between atoms: C_4  and  O_28
REMARK    2  A    between atoms: C_5  and  O_6
REMARK    3  A    between atoms: O_6  and  C_7
REMARK    4  A    between atoms: C_8  and  O_26
REMARK    5  A    between atoms: C_12  and  C_13
REMARK    6  A    between atoms: C_14  and  O_15
REMARK    7  A    between atoms: C_17  and  O_21
REMARK    8  A    between atoms: C_18  and  O_19
REMARK    9  A    between atoms: O_21  and  C_22
REMARK   10  A    between atoms: C_23  and  O_24
REMARK   11  A    between atoms: O_24  and  C_25
REMARK   12  A    between atoms: O_26  and  C_27
REMARK                            x       y       z     vdW  Elec       q    Type
REMARK                         _______ _______ _______ _____ _____    ______ ____
ROOT
ATOM      1  O   LIG A   1      -5.816  -1.732 128.407  0.00  0.00    -0.283 OA
ATOM      2  C   LIG A   1      -6.046  -0.621 127.930  0.00  0.00    +0.238 A 
ATOM      3  C   LIG A   1      -7.054  -0.524 126.885  0.00  0.00    +0.113 A 
ATOM      4  C   LIG A   1      -7.901  -1.604 126.551  0.00  0.00    +0.177 A 
ATOM      5  C   LIG A   1      -8.887  -1.472 125.561  0.00  0.00    +0.204 A 
ATOM      6  C   LIG A   1      -8.965  -0.250 124.859  0.00  0.00    +0.169 A 
ATOM      7  C   LIG A   1      -8.092   0.807 125.185  0.00  0.00    +0.096 A 
ATOM      8  C   LIG A   1      -7.147   0.682 126.198  0.00  0.00    +0.147 A 
ATOM      9  O   LIG A   1      -6.343   1.757 126.472  0.00  0.00    -0.451 OA
ATOM     10  C   LIG A   1      -5.529   1.716 127.589  0.00  0.00    +0.184 A 
ATOM     11  C   LIG A   1      -5.343   0.612 128.365  0.00  0.00    +0.211 A 
ENDROOT
BRANCH  10  12
ATOM     12  C   LIG A   1      -4.801   2.973 127.848  0.00  0.00    +0.066 A 
ATOM     13  C   LIG A   1      -3.482   3.185 127.396  0.00  0.00    +0.131 A 
ATOM     14  C   LIG A   1      -2.761   4.342 127.726  0.00  0.00    +0.095 A 
ATOM     15  C   LIG A   1      -3.358   5.332 128.500  0.00  0.00    +0.165 A 
ATOM     16  C   LIG A   1      -4.691   5.160 128.890  0.00  0.00    +0.159 A 
ATOM     17  C   LIG A   1      -5.410   4.003 128.581  0.00  0.00    +0.064 A 
BRANCH  13  18
ATOM     18  O   LIG A   1      -2.823   2.287 126.597  0.00  0.00    -0.506 OA
ATOM     19  H   LIG A   1      -3.475   1.695 126.188  0.00  0.00    +0.292 HD
ENDBRANCH  13  18
BRANCH  16  20
ATOM     20  O   LIG A   1      -5.315   6.140 129.617  0.00  0.00    -0.503 OA
ATOM     21  H   LIG A   1      -4.626   6.815 129.776  0.00  0.00    +0.292 HD
ENDBRANCH  16  20
BRANCH  15  22
ATOM     22  O   LIG A   1      -2.771   6.509 128.887  0.00  0.00    -0.491 OA
ATOM     23  C   LIG A   1      -1.923   6.434 130.031  0.00  0.00    +0.277 C 
ENDBRANCH  15  22
ENDBRANCH  10  12
BRANCH   5  24
ATOM     24  O   LIG A   1      -9.738  -2.485 125.194  0.00  0.00    -0.488 OA
ATOM     25  C   LIG A   1      -9.342  -3.316 124.105  0.00  0.00    +0.277 C 
ENDBRANCH   5  24
BRANCH  11  26
ATOM     26  O   LIG A   1      -4.502   0.637 129.467  0.00  0.00    -0.488 OA
ATOM     27  C   LIG A   1      -5.163   0.771 130.733  0.00  0.00    +0.277 C 
ENDBRANCH  11  26
BRANCH   6  28
ATOM     28  O   LIG A   1      -9.830   0.112 123.860  0.00  0.00    -0.491 OA
ATOM     29  C   LIG A   1      -9.722   1.398 123.268  0.00  0.00    +0.277 C 
ENDBRANCH   6  28
BRANCH   4  30
ATOM     30  O   LIG A   1      -7.750  -2.814 127.197  0.00  0.00    -0.503 OA
ATOM     31  H   LIG A   1      -6.807  -3.080 127.178  0.00  0.00    +0.292 HD
ENDBRANCH   4  30
TORSDOF 8
ENDMDL
