MODEL 1
REMARK VINA RESULT:      -7.7      0.000      0.000
REMARK  Name = NuBBE_342
REMARK  11 active torsions:
REMARK  status: ('A' for Active; 'I' for Inactive)
REMARK    1  A    between atoms: O_1  and  C_2
REMARK    2  A    between atoms: C_3  and  C_4
REMARK    3  A    between atoms: C_4  and  C_5
REMARK    4  A    between atoms: C_6  and  C_7
REMARK    5  A    between atoms: C_6  and  C_8
REMARK    6  A    between atoms: C_8  and  C_9
REMARK    7  A    between atoms: C_9  and  C_10
REMARK    8  A    between atoms: C_11  and  C_12
REMARK    9  A    between atoms: C_11  and  C_13
REMARK   10  A    between atoms: C_16  and  C_17
REMARK   11  A    between atoms: C_17  and  O_18
REMARK                            x       y       z     vdW  Elec       q    Type
REMARK                         _______ _______ _______ _____ _____    ______ ____
ROOT
ATOM      1  C   LIG A   1     -12.533   7.336 130.366  0.00  0.00    +0.128 A 
ATOM      2  C   LIG A   1     -11.206   6.888 130.280  0.00  0.00    +0.064 A 
ATOM      3  C   LIG A   1     -10.581   6.873 129.026  0.00  0.00    +0.030 A 
ATOM      4  C   LIG A   1     -11.248   7.337 127.888  0.00  0.00    +0.060 A 
ATOM      5  C   LIG A   1     -12.546   7.844 127.993  0.00  0.00    +0.018 A 
ATOM      6  C   LIG A   1     -13.191   7.831 129.233  0.00  0.00    +0.047 A 
ENDROOT
BRANCH   1   7
ATOM      7  O   LIG A   1     -13.259   7.326 131.525  0.00  0.00    -0.506 OA
ATOM      8  H   LIG A   1     -13.763   8.165 131.585  0.00  0.00    +0.292 HD
ENDBRANCH   1   7
BRANCH   2   9
ATOM      9  C   LIG A   1     -10.451   6.404 131.474  0.00  0.00    +0.190 C 
ATOM     10  O   LIG A   1     -11.055   6.092 132.494  0.00  0.00    -0.287 OA
BRANCH   9  11
ATOM     11  C   LIG A   1      -8.956   6.407 131.357  0.00  0.00    +0.050 C 
ATOM     12  C   LIG A   1      -8.019   6.162 132.294  0.00  0.00    -0.069 C 
ATOM     13  C   LIG A   1      -6.558   6.230 131.901  0.00  0.00    +0.039 C 
BRANCH  12  14
ATOM     14  C   LIG A   1      -8.274   5.821 133.749  0.00  0.00    +0.034 C 
BRANCH  14  15
ATOM     15  C   LIG A   1      -8.033   4.356 134.156  0.00  0.00    +0.031 C 
BRANCH  15  16
ATOM     16  C   LIG A   1      -9.008   3.385 133.542  0.00  0.00    -0.028 C 
ATOM     17  C   LIG A   1      -8.853   2.596 132.461  0.00  0.00    -0.080 C 
ATOM     18  C   LIG A   1      -7.623   2.491 131.599  0.00  0.00    +0.038 C 
ATOM     19  C   LIG A   1      -9.981   1.705 132.006  0.00  0.00    +0.038 C 
ENDBRANCH  15  16
ENDBRANCH  14  15
ENDBRANCH  12  14
ENDBRANCH   9  11
ENDBRANCH   2   9
BRANCH   4  20
ATOM     20  C   LIG A   1     -10.577   7.283 126.578  0.00  0.00    +0.337 C 
ATOM     21  O   LIG A   1     -10.789   8.018 125.624  0.00  0.00    -0.245 OA
BRANCH  20  22
ATOM     22  O   LIG A   1      -9.707   6.266 126.514  0.00  0.00    -0.477 OA
ATOM     23  H   LIG A   1      -9.641   5.920 127.427  0.00  0.00    +0.295 HD
ENDBRANCH  20  22
ENDBRANCH   4  20
TORSDOF 8
ENDMDL
MODEL 2
REMARK VINA RESULT:      -7.5      1.295      2.366
REMARK  Name = NuBBE_342
REMARK  11 active torsions:
REMARK  status: ('A' for Active; 'I' for Inactive)
REMARK    1  A    between atoms: O_1  and  C_2
REMARK    2  A    between atoms: C_3  and  C_4
REMARK    3  A    between atoms: C_4  and  C_5
REMARK    4  A    between atoms: C_6  and  C_7
REMARK    5  A    between atoms: C_6  and  C_8
REMARK    6  A    between atoms: C_8  and  C_9
REMARK    7  A    between atoms: C_9  and  C_10
REMARK    8  A    between atoms: C_11  and  C_12
REMARK    9  A    between atoms: C_11  and  C_13
REMARK   10  A    between atoms: C_16  and  C_17
REMARK   11  A    between atoms: C_17  and  O_18
REMARK                            x       y       z     vdW  Elec       q    Type
REMARK                         _______ _______ _______ _____ _____    ______ ____
ROOT
ATOM      1  C   LIG A   1     -11.819   6.538 130.900  0.00  0.00    +0.128 A 
ATOM      2  C   LIG A   1     -10.571   6.429 130.268  0.00  0.00    +0.064 A 
ATOM      3  C   LIG A   1     -10.484   6.705 128.898  0.00  0.00    +0.030 A 
ATOM      4  C   LIG A   1     -11.608   7.125 128.180  0.00  0.00    +0.060 A 
ATOM      5  C   LIG A   1     -12.833   7.296 128.830  0.00  0.00    +0.018 A 
ATOM      6  C   LIG A   1     -12.938   6.989 130.190  0.00  0.00    +0.047 A 
ENDROOT
BRANCH   1   7
ATOM      7  O   LIG A   1     -12.028   6.224 132.215  0.00  0.00    -0.506 OA
ATOM      8  H   LIG A   1     -11.533   6.862 132.771  0.00  0.00    +0.292 HD
ENDBRANCH   1   7
BRANCH   2   9
ATOM      9  C   LIG A   1      -9.341   6.003 131.002  0.00  0.00    +0.190 C 
ATOM     10  O   LIG A   1      -8.991   6.607 132.009  0.00  0.00    -0.287 OA
BRANCH   9  11
ATOM     11  C   LIG A   1      -8.560   4.880 130.388  0.00  0.00    +0.050 C 
ATOM     12  C   LIG A   1      -8.782   3.551 130.433  0.00  0.00    -0.069 C 
ATOM     13  C   LIG A   1      -7.824   2.627 129.713  0.00  0.00    +0.039 C 
BRANCH  12  14
ATOM     14  C   LIG A   1      -9.920   2.857 131.155  0.00  0.00    +0.034 C 
BRANCH  14  15
ATOM     15  C   LIG A   1      -9.600   2.305 132.555  0.00  0.00    +0.031 C 
BRANCH  15  16
ATOM     16  C   LIG A   1      -9.249   3.368 133.564  0.00  0.00    -0.028 C 
ATOM     17  C   LIG A   1      -8.037   3.726 134.032  0.00  0.00    -0.080 C 
ATOM     18  C   LIG A   1      -6.712   3.136 133.629  0.00  0.00    +0.038 C 
ATOM     19  C   LIG A   1      -7.917   4.816 135.066  0.00  0.00    +0.038 C 
ENDBRANCH  15  16
ENDBRANCH  14  15
ENDBRANCH  12  14
ENDBRANCH   9  11
ENDBRANCH   2   9
BRANCH   4  20
ATOM     20  C   LIG A   1     -11.495   7.381 126.734  0.00  0.00    +0.337 C 
ATOM     21  O   LIG A   1     -10.759   8.198 126.197  0.00  0.00    -0.245 OA
BRANCH  20  22
ATOM     22  O   LIG A   1     -12.357   6.630 126.033  0.00  0.00    -0.477 OA
ATOM     23  H   LIG A   1     -11.818   6.187 125.348  0.00  0.00    +0.295 HD
ENDBRANCH  20  22
ENDBRANCH   4  20
TORSDOF 8
ENDMDL
MODEL 3
REMARK VINA RESULT:      -7.4      0.986      2.097
REMARK  Name = NuBBE_342
REMARK  11 active torsions:
REMARK  status: ('A' for Active; 'I' for Inactive)
REMARK    1  A    between atoms: O_1  and  C_2
REMARK    2  A    between atoms: C_3  and  C_4
REMARK    3  A    between atoms: C_4  and  C_5
REMARK    4  A    between atoms: C_6  and  C_7
REMARK    5  A    between atoms: C_6  and  C_8
REMARK    6  A    between atoms: C_8  and  C_9
REMARK    7  A    between atoms: C_9  and  C_10
REMARK    8  A    between atoms: C_11  and  C_12
REMARK    9  A    between atoms: C_11  and  C_13
REMARK   10  A    between atoms: C_16  and  C_17
REMARK   11  A    between atoms: C_17  and  O_18
REMARK                            x       y       z     vdW  Elec       q    Type
REMARK                         _______ _______ _______ _____ _____    ______ ____
ROOT
ATOM      1  C   LIG A   1     -12.451   7.248 130.377  0.00  0.00    +0.128 A 
ATOM      2  C   LIG A   1     -11.116   6.827 130.281  0.00  0.00    +0.064 A 
ATOM      3  C   LIG A   1     -10.511   6.789 129.019  0.00  0.00    +0.030 A 
ATOM      4  C   LIG A   1     -11.207   7.204 127.879  0.00  0.00    +0.060 A 
ATOM      5  C   LIG A   1     -12.515   7.684 127.991  0.00  0.00    +0.018 A 
ATOM      6  C   LIG A   1     -13.139   7.694 129.241  0.00  0.00    +0.047 A 
ENDROOT
BRANCH   1   7
ATOM      7  O   LIG A   1     -13.158   7.255 131.548  0.00  0.00    -0.506 OA
ATOM      8  H   LIG A   1     -12.837   6.519 132.111  0.00  0.00    +0.292 HD
ENDBRANCH   1   7
BRANCH   2   9
ATOM      9  C   LIG A   1     -10.330   6.396 131.476  0.00  0.00    +0.190 C 
ATOM     10  O   LIG A   1     -10.773   6.592 132.602  0.00  0.00    -0.287 OA
BRANCH   9  11
ATOM     11  C   LIG A   1      -8.980   5.805 131.201  0.00  0.00    +0.050 C 
ATOM     12  C   LIG A   1      -8.558   4.530 131.318  0.00  0.00    -0.069 C 
ATOM     13  C   LIG A   1      -7.122   4.202 130.968  0.00  0.00    +0.039 C 
BRANCH  12  14
ATOM     14  C   LIG A   1      -9.388   3.351 131.784  0.00  0.00    +0.034 C 
BRANCH  14  15
ATOM     15  C   LIG A   1      -9.186   2.913 133.246  0.00  0.00    +0.031 C 
BRANCH  15  16
ATOM     16  C   LIG A   1      -8.893   4.051 134.189  0.00  0.00    -0.028 C 
ATOM     17  C   LIG A   1      -7.731   4.378 134.788  0.00  0.00    -0.080 C 
ATOM     18  C   LIG A   1      -6.414   3.665 134.636  0.00  0.00    +0.038 C 
ATOM     19  C   LIG A   1      -7.668   5.561 135.720  0.00  0.00    +0.038 C 
ENDBRANCH  15  16
ENDBRANCH  14  15
ENDBRANCH  12  14
ENDBRANCH   9  11
ENDBRANCH   2   9
BRANCH   4  20
ATOM     20  C   LIG A   1     -10.557   7.125 126.560  0.00  0.00    +0.337 C 
ATOM     21  O   LIG A   1      -9.667   6.351 126.234  0.00  0.00    -0.245 OA
BRANCH  20  22
ATOM     22  O   LIG A   1     -11.021   8.066 125.726  0.00  0.00    -0.477 OA
ATOM     23  H   LIG A   1     -11.229   7.598 124.893  0.00  0.00    +0.295 HD
ENDBRANCH  20  22
ENDBRANCH   4  20
TORSDOF 8
ENDMDL
MODEL 4
REMARK VINA RESULT:      -7.1      1.571      3.511
REMARK  Name = NuBBE_342
REMARK  11 active torsions:
REMARK  status: ('A' for Active; 'I' for Inactive)
REMARK    1  A    between atoms: O_1  and  C_2
REMARK    2  A    between atoms: C_3  and  C_4
REMARK    3  A    between atoms: C_4  and  C_5
REMARK    4  A    between atoms: C_6  and  C_7
REMARK    5  A    between atoms: C_6  and  C_8
REMARK    6  A    between atoms: C_8  and  C_9
REMARK    7  A    between atoms: C_9  and  C_10
REMARK    8  A    between atoms: C_11  and  C_12
REMARK    9  A    between atoms: C_11  and  C_13
REMARK   10  A    between atoms: C_16  and  C_17
REMARK   11  A    between atoms: C_17  and  O_18
REMARK                            x       y       z     vdW  Elec       q    Type
REMARK                         _______ _______ _______ _____ _____    ______ ____
ROOT
ATOM      1  C   LIG A   1     -12.389   7.890 130.334  0.00  0.00    +0.128 A 
ATOM      2  C   LIG A   1     -11.298   7.012 130.260  0.00  0.00    +0.064 A 
ATOM      3  C   LIG A   1     -10.698   6.787 129.014  0.00  0.00    +0.030 A 
ATOM      4  C   LIG A   1     -11.148   7.457 127.872  0.00  0.00    +0.060 A 
ATOM      5  C   LIG A   1     -12.193   8.379 127.965  0.00  0.00    +0.018 A 
ATOM      6  C   LIG A   1     -12.820   8.585 129.197  0.00  0.00    +0.047 A 
ENDROOT
BRANCH   1   7
ATOM      7  O   LIG A   1     -13.091   8.126 131.484  0.00  0.00    -0.506 OA
ATOM      8  H   LIG A   1     -13.578   7.309 131.726  0.00  0.00    +0.292 HD
ENDBRANCH   1   7
BRANCH   2   9
ATOM      9  C   LIG A   1     -10.772   6.292 131.459  0.00  0.00    +0.190 C 
ATOM     10  O   LIG A   1     -11.108   6.650 132.582  0.00  0.00    -0.287 OA
BRANCH   9  11
ATOM     11  C   LIG A   1      -9.781   5.199 131.192  0.00  0.00    +0.050 C 
ATOM     12  C   LIG A   1      -8.447   5.182 131.383  0.00  0.00    -0.069 C 
ATOM     13  C   LIG A   1      -7.676   3.928 131.027  0.00  0.00    +0.039 C 
BRANCH  12  14
ATOM     14  C   LIG A   1      -7.605   6.318 131.925  0.00  0.00    +0.034 C 
BRANCH  14  15
ATOM     15  C   LIG A   1      -6.079   6.148 131.812  0.00  0.00    +0.031 C 
BRANCH  15  16
ATOM     16  C   LIG A   1      -5.447   7.001 130.743  0.00  0.00    -0.028 C 
ATOM     17  C   LIG A   1      -4.264   7.645 130.760  0.00  0.00    -0.080 C 
ATOM     18  C   LIG A   1      -3.263   7.648 131.884  0.00  0.00    +0.038 C 
ATOM     19  C   LIG A   1      -3.834   8.468 129.572  0.00  0.00    +0.038 C 
ENDBRANCH  15  16
ENDBRANCH  14  15
ENDBRANCH  12  14
ENDBRANCH   9  11
ENDBRANCH   2   9
BRANCH   4  20
ATOM     20  C   LIG A   1     -10.519   7.179 126.569  0.00  0.00    +0.337 C 
ATOM     21  O   LIG A   1      -9.713   6.290 126.328  0.00  0.00    -0.245 OA
BRANCH  20  22
ATOM     22  O   LIG A   1     -10.893   8.071 125.642  0.00  0.00    -0.477 OA
ATOM     23  H   LIG A   1     -11.001   7.559 124.816  0.00  0.00    +0.295 HD
ENDBRANCH  20  22
ENDBRANCH   4  20
TORSDOF 8
ENDMDL
MODEL 5
REMARK VINA RESULT:      -7.0      7.675      9.236
REMARK  Name = NuBBE_342
REMARK  11 active torsions:
REMARK  status: ('A' for Active; 'I' for Inactive)
REMARK    1  A    between atoms: O_1  and  C_2
REMARK    2  A    between atoms: C_3  and  C_4
REMARK    3  A    between atoms: C_4  and  C_5
REMARK    4  A    between atoms: C_6  and  C_7
REMARK    5  A    between atoms: C_6  and  C_8
REMARK    6  A    between atoms: C_8  and  C_9
REMARK    7  A    between atoms: C_9  and  C_10
REMARK    8  A    between atoms: C_11  and  C_12
REMARK    9  A    between atoms: C_11  and  C_13
REMARK   10  A    between atoms: C_16  and  C_17
REMARK   11  A    between atoms: C_17  and  O_18
REMARK                            x       y       z     vdW  Elec       q    Type
REMARK                         _______ _______ _______ _____ _____    ______ ____
ROOT
ATOM      1  C   LIG A   1      -9.398   1.419 123.321  0.00  0.00    +0.128 A 
ATOM      2  C   LIG A   1      -8.878   1.322 124.620  0.00  0.00    +0.064 A 
ATOM      3  C   LIG A   1      -7.812   2.156 124.982  0.00  0.00    +0.030 A 
ATOM      4  C   LIG A   1      -7.303   3.098 124.083  0.00  0.00    +0.060 A 
ATOM      5  C   LIG A   1      -7.870   3.234 122.813  0.00  0.00    +0.018 A 
ATOM      6  C   LIG A   1      -8.911   2.383 122.430  0.00  0.00    +0.047 A 
ENDROOT
BRANCH   1   7
ATOM      7  O   LIG A   1     -10.389   0.606 122.843  0.00  0.00    -0.506 OA
ATOM      8  H   LIG A   1     -11.143   0.632 123.470  0.00  0.00    +0.292 HD
ENDBRANCH   1   7
BRANCH   2   9
ATOM      9  C   LIG A   1      -9.405   0.344 125.619  0.00  0.00    +0.190 C 
ATOM     10  O   LIG A   1     -10.615   0.197 125.749  0.00  0.00    -0.287 OA
BRANCH   9  11
ATOM     11  C   LIG A   1      -8.384  -0.351 126.468  0.00  0.00    +0.050 C 
ATOM     12  C   LIG A   1      -8.192  -1.668 126.679  0.00  0.00    -0.069 C 
ATOM     13  C   LIG A   1      -7.068  -2.104 127.596  0.00  0.00    +0.039 C 
BRANCH  12  14
ATOM     14  C   LIG A   1      -9.009  -2.798 126.087  0.00  0.00    +0.034 C 
BRANCH  14  15
ATOM     15  C   LIG A   1      -8.767  -3.103 124.598  0.00  0.00    +0.031 C 
BRANCH  15  16
ATOM     16  C   LIG A   1      -7.335  -3.434 124.267  0.00  0.00    -0.028 C 
ATOM     17  C   LIG A   1      -6.393  -2.655 123.701  0.00  0.00    -0.080 C 
ATOM     18  C   LIG A   1      -6.560  -1.223 123.267  0.00  0.00    +0.038 C 
ATOM     19  C   LIG A   1      -5.013  -3.203 123.441  0.00  0.00    +0.038 C 
ENDBRANCH  15  16
ENDBRANCH  14  15
ENDBRANCH  12  14
ENDBRANCH   9  11
ENDBRANCH   2   9
BRANCH   4  20
ATOM     20  C   LIG A   1      -6.162   3.941 124.479  0.00  0.00    +0.337 C 
ATOM     21  O   LIG A   1      -5.074   3.549 124.879  0.00  0.00    -0.245 OA
BRANCH  20  22
ATOM     22  O   LIG A   1      -6.465   5.244 124.405  0.00  0.00    -0.477 OA
ATOM     23  H   LIG A   1      -5.615   5.716 124.510  0.00  0.00    +0.295 HD
ENDBRANCH  20  22
ENDBRANCH   4  20
TORSDOF 8
ENDMDL
MODEL 6
REMARK VINA RESULT:      -6.8      7.274      9.701
REMARK  Name = NuBBE_342
REMARK  11 active torsions:
REMARK  status: ('A' for Active; 'I' for Inactive)
REMARK    1  A    between atoms: O_1  and  C_2
REMARK    2  A    between atoms: C_3  and  C_4
REMARK    3  A    between atoms: C_4  and  C_5
REMARK    4  A    between atoms: C_6  and  C_7
REMARK    5  A    between atoms: C_6  and  C_8
REMARK    6  A    between atoms: C_8  and  C_9
REMARK    7  A    between atoms: C_9  and  C_10
REMARK    8  A    between atoms: C_11  and  C_12
REMARK    9  A    between atoms: C_11  and  C_13
REMARK   10  A    between atoms: C_16  and  C_17
REMARK   11  A    between atoms: C_17  and  O_18
REMARK                            x       y       z     vdW  Elec       q    Type
REMARK                         _______ _______ _______ _____ _____    ______ ____
ROOT
ATOM      1  C   LIG A   1      -5.737   0.283 125.828  0.00  0.00    +0.128 A 
ATOM      2  C   LIG A   1      -6.449  -0.077 124.674  0.00  0.00    +0.064 A 
ATOM      3  C   LIG A   1      -7.268   0.881 124.063  0.00  0.00    +0.030 A 
ATOM      4  C   LIG A   1      -7.342   2.185 124.565  0.00  0.00    +0.060 A 
ATOM      5  C   LIG A   1      -6.578   2.553 125.675  0.00  0.00    +0.018 A 
ATOM      6  C   LIG A   1      -5.784   1.595 126.312  0.00  0.00    +0.047 A 
ENDROOT
BRANCH   1   7
ATOM      7  O   LIG A   1      -4.966  -0.593 126.542  0.00  0.00    -0.506 OA
ATOM      8  H   LIG A   1      -5.109  -1.496 126.186  0.00  0.00    +0.292 HD
ENDBRANCH   1   7
BRANCH   2   9
ATOM      9  C   LIG A   1      -6.383  -1.451 124.093  0.00  0.00    +0.190 C 
ATOM     10  O   LIG A   1      -5.310  -2.041 124.041  0.00  0.00    -0.287 OA
BRANCH   9  11
ATOM     11  C   LIG A   1      -7.662  -1.994 123.530  0.00  0.00    +0.050 C 
ATOM     12  C   LIG A   1      -8.440  -3.001 123.975  0.00  0.00    -0.069 C 
ATOM     13  C   LIG A   1      -9.698  -3.345 123.206  0.00  0.00    +0.039 C 
BRANCH  12  14
ATOM     14  C   LIG A   1      -8.183  -3.859 125.197  0.00  0.00    +0.034 C 
BRANCH  14  15
ATOM     15  C   LIG A   1      -8.947  -3.468 126.475  0.00  0.00    +0.031 C 
BRANCH  15  16
ATOM     16  C   LIG A   1      -8.360  -2.283 127.198  0.00  0.00    -0.028 C 
ATOM     17  C   LIG A   1      -7.870  -2.211 128.451  0.00  0.00    -0.080 C 
ATOM     18  C   LIG A   1      -7.781  -3.340 129.442  0.00  0.00    +0.038 C 
ATOM     19  C   LIG A   1      -7.345  -0.902 128.983  0.00  0.00    +0.038 C 
ENDBRANCH  15  16
ENDBRANCH  14  15
ENDBRANCH  12  14
ENDBRANCH   9  11
ENDBRANCH   2   9
BRANCH   4  20
ATOM     20  C   LIG A   1      -8.233   3.164 123.920  0.00  0.00    +0.337 C 
ATOM     21  O   LIG A   1      -8.879   2.992 122.896  0.00  0.00    -0.245 OA
BRANCH  20  22
ATOM     22  O   LIG A   1      -8.226   4.337 124.569  0.00  0.00    -0.477 OA
ATOM     23  H   LIG A   1      -8.636   4.157 125.438  0.00  0.00    +0.295 HD
ENDBRANCH  20  22
ENDBRANCH   4  20
TORSDOF 8
ENDMDL
MODEL 7
REMARK VINA RESULT:      -6.8      2.931      4.202
REMARK  Name = NuBBE_342
REMARK  11 active torsions:
REMARK  status: ('A' for Active; 'I' for Inactive)
REMARK    1  A    between atoms: O_1  and  C_2
REMARK    2  A    between atoms: C_3  and  C_4
REMARK    3  A    between atoms: C_4  and  C_5
REMARK    4  A    between atoms: C_6  and  C_7
REMARK    5  A    between atoms: C_6  and  C_8
REMARK    6  A    between atoms: C_8  and  C_9
REMARK    7  A    between atoms: C_9  and  C_10
REMARK    8  A    between atoms: C_11  and  C_12
REMARK    9  A    between atoms: C_11  and  C_13
REMARK   10  A    between atoms: C_16  and  C_17
REMARK   11  A    between atoms: C_17  and  O_18
REMARK                            x       y       z     vdW  Elec       q    Type
REMARK                         _______ _______ _______ _____ _____    ______ ____
ROOT
ATOM      1  C   LIG A   1     -10.625   6.287 131.743  0.00  0.00    +0.128 A 
ATOM      2  C   LIG A   1      -9.408   6.299 131.047  0.00  0.00    +0.064 A 
ATOM      3  C   LIG A   1      -9.403   6.705 129.706  0.00  0.00    +0.030 A 
ATOM      4  C   LIG A   1     -10.581   7.133 129.084  0.00  0.00    +0.060 A 
ATOM      5  C   LIG A   1     -11.777   7.181 129.804  0.00  0.00    +0.018 A 
ATOM      6  C   LIG A   1     -11.799   6.745 131.132  0.00  0.00    +0.047 A 
ENDROOT
BRANCH   1   7
ATOM      7  O   LIG A   1     -10.753   5.842 133.030  0.00  0.00    -0.506 OA
ATOM      8  H   LIG A   1     -11.259   6.508 133.542  0.00  0.00    +0.292 HD
ENDBRANCH   1   7
BRANCH   2   9
ATOM      9  C   LIG A   1      -8.124   5.869 131.679  0.00  0.00    +0.190 C 
ATOM     10  O   LIG A   1      -8.109   4.904 132.433  0.00  0.00    -0.287 OA
BRANCH   9  11
ATOM     11  C   LIG A   1      -6.927   6.726 131.393  0.00  0.00    +0.050 C 
ATOM     12  C   LIG A   1      -5.820   6.447 130.676  0.00  0.00    -0.069 C 
ATOM     13  C   LIG A   1      -4.750   7.509 130.543  0.00  0.00    +0.039 C 
BRANCH  12  14
ATOM     14  C   LIG A   1      -5.517   5.141 129.969  0.00  0.00    +0.034 C 
BRANCH  14  15
ATOM     15  C   LIG A   1      -4.211   4.436 130.376  0.00  0.00    +0.031 C 
BRANCH  15  16
ATOM     16  C   LIG A   1      -3.497   3.765 129.231  0.00  0.00    -0.028 C 
ATOM     17  C   LIG A   1      -2.763   4.319 128.247  0.00  0.00    -0.080 C 
ATOM     18  C   LIG A   1      -2.466   5.785 128.070  0.00  0.00    +0.038 C 
ATOM     19  C   LIG A   1      -2.149   3.450 127.179  0.00  0.00    +0.038 C 
ENDBRANCH  15  16
ENDBRANCH  14  15
ENDBRANCH  12  14
ENDBRANCH   9  11
ENDBRANCH   2   9
BRANCH   4  20
ATOM     20  C   LIG A   1     -10.553   7.527 127.665  0.00  0.00    +0.337 C 
ATOM     21  O   LIG A   1     -11.067   8.526 127.179  0.00  0.00    -0.245 OA
BRANCH  20  22
ATOM     22  O   LIG A   1      -9.923   6.613 126.914  0.00  0.00    -0.477 OA
ATOM     23  H   LIG A   1      -9.101   6.398 127.398  0.00  0.00    +0.295 HD
ENDBRANCH  20  22
ENDBRANCH   4  20
TORSDOF 8
ENDMDL
MODEL 8
REMARK VINA RESULT:      -6.6      7.201      9.271
REMARK  Name = NuBBE_342
REMARK  11 active torsions:
REMARK  status: ('A' for Active; 'I' for Inactive)
REMARK    1  A    between atoms: O_1  and  C_2
REMARK    2  A    between atoms: C_3  and  C_4
REMARK    3  A    between atoms: C_4  and  C_5
REMARK    4  A    between atoms: C_6  and  C_7
REMARK    5  A    between atoms: C_6  and  C_8
REMARK    6  A    between atoms: C_8  and  C_9
REMARK    7  A    between atoms: C_9  and  C_10
REMARK    8  A    between atoms: C_11  and  C_12
REMARK    9  A    between atoms: C_11  and  C_13
REMARK   10  A    between atoms: C_16  and  C_17
REMARK   11  A    between atoms: C_17  and  O_18
REMARK                            x       y       z     vdW  Elec       q    Type
REMARK                         _______ _______ _______ _____ _____    ______ ____
ROOT
ATOM      1  C   LIG A   1      -9.112   1.120 124.607  0.00  0.00    +0.128 A 
ATOM      2  C   LIG A   1      -8.316   0.513 123.623  0.00  0.00    +0.064 A 
ATOM      3  C   LIG A   1      -7.355   1.289 122.962  0.00  0.00    +0.030 A 
ATOM      4  C   LIG A   1      -7.160   2.631 123.305  0.00  0.00    +0.060 A 
ATOM      5  C   LIG A   1      -7.910   3.210 124.331  0.00  0.00    +0.018 A 
ATOM      6  C   LIG A   1      -8.895   2.454 124.973  0.00  0.00    +0.047 A 
ENDROOT
BRANCH   1   7
ATOM      7  O   LIG A   1     -10.124   0.474 125.262  0.00  0.00    -0.506 OA
ATOM      8  H   LIG A   1      -9.873   0.375 126.205  0.00  0.00    +0.292 HD
ENDBRANCH   1   7
BRANCH   2   9
ATOM      9  C   LIG A   1      -8.479  -0.922 123.241  0.00  0.00    +0.190 C 
ATOM     10  O   LIG A   1      -9.594  -1.429 123.233  0.00  0.00    -0.287 OA
BRANCH   9  11
ATOM     11  C   LIG A   1      -7.215  -1.679 122.961  0.00  0.00    +0.050 C 
ATOM     12  C   LIG A   1      -6.241  -2.071 123.806  0.00  0.00    -0.069 C 
ATOM     13  C   LIG A   1      -5.059  -2.836 123.250  0.00  0.00    +0.039 C 
BRANCH  12  14
ATOM     14  C   LIG A   1      -6.194  -1.815 125.299  0.00  0.00    +0.034 C 
BRANCH  14  15
ATOM     15  C   LIG A   1      -5.301  -0.650 125.761  0.00  0.00    +0.031 C 
BRANCH  15  16
ATOM     16  C   LIG A   1      -5.998   0.329 126.671  0.00  0.00    -0.028 C 
ATOM     17  C   LIG A   1      -5.755   1.642 126.850  0.00  0.00    -0.080 C 
ATOM     18  C   LIG A   1      -4.705   2.461 126.148  0.00  0.00    +0.038 C 
ATOM     19  C   LIG A   1      -6.572   2.434 127.839  0.00  0.00    +0.038 C 
ENDBRANCH  15  16
ENDBRANCH  14  15
ENDBRANCH  12  14
ENDBRANCH   9  11
ENDBRANCH   2   9
BRANCH   4  20
ATOM     20  C   LIG A   1      -6.163   3.431 122.573  0.00  0.00    +0.337 C 
ATOM     21  O   LIG A   1      -5.674   4.491 122.939  0.00  0.00    -0.245 OA
BRANCH  20  22
ATOM     22  O   LIG A   1      -5.868   2.883 121.386  0.00  0.00    -0.477 OA
ATOM     23  H   LIG A   1      -5.041   2.382 121.528  0.00  0.00    +0.295 HD
ENDBRANCH  20  22
ENDBRANCH   4  20
TORSDOF 8
ENDMDL
MODEL 9
REMARK VINA RESULT:      -6.6      8.650     11.681
REMARK  Name = NuBBE_342
REMARK  11 active torsions:
REMARK  status: ('A' for Active; 'I' for Inactive)
REMARK    1  A    between atoms: O_1  and  C_2
REMARK    2  A    between atoms: C_3  and  C_4
REMARK    3  A    between atoms: C_4  and  C_5
REMARK    4  A    between atoms: C_6  and  C_7
REMARK    5  A    between atoms: C_6  and  C_8
REMARK    6  A    between atoms: C_8  and  C_9
REMARK    7  A    between atoms: C_9  and  C_10
REMARK    8  A    between atoms: C_11  and  C_12
REMARK    9  A    between atoms: C_11  and  C_13
REMARK   10  A    between atoms: C_16  and  C_17
REMARK   11  A    between atoms: C_17  and  O_18
REMARK                            x       y       z     vdW  Elec       q    Type
REMARK                         _______ _______ _______ _____ _____    ______ ____
ROOT
ATOM      1  C   LIG A   1      -7.304  -2.989 128.561  0.00  0.00    +0.128 A 
ATOM      2  C   LIG A   1      -6.246  -2.317 127.932  0.00  0.00    +0.064 A 
ATOM      3  C   LIG A   1      -4.981  -2.342 128.533  0.00  0.00    +0.030 A 
ATOM      4  C   LIG A   1      -4.764  -3.061 129.713  0.00  0.00    +0.060 A 
ATOM      5  C   LIG A   1      -5.808  -3.783 130.298  0.00  0.00    +0.018 A 
ATOM      6  C   LIG A   1      -7.082  -3.736 129.724  0.00  0.00    +0.047 A 
ENDROOT
BRANCH   1   7
ATOM      7  O   LIG A   1      -8.592  -2.969 128.098  0.00  0.00    -0.506 OA
ATOM      8  H   LIG A   1      -8.855  -2.036 127.950  0.00  0.00    +0.292 HD
ENDBRANCH   1   7
BRANCH   2   9
ATOM      9  C   LIG A   1      -6.430  -1.555 126.661  0.00  0.00    +0.190 C 
ATOM     10  O   LIG A   1      -7.237  -0.633 126.613  0.00  0.00    -0.287 OA
BRANCH   9  11
ATOM     11  C   LIG A   1      -5.644  -2.039 125.479  0.00  0.00    +0.050 C 
ATOM     12  C   LIG A   1      -6.062  -2.688 124.375  0.00  0.00    -0.069 C 
ATOM     13  C   LIG A   1      -5.043  -3.063 123.320  0.00  0.00    +0.039 C 
BRANCH  12  14
ATOM     14  C   LIG A   1      -7.485  -3.105 124.066  0.00  0.00    +0.034 C 
BRANCH  14  15
ATOM     15  C   LIG A   1      -8.177  -2.357 122.911  0.00  0.00    +0.031 C 
BRANCH  15  16
ATOM     16  C   LIG A   1      -8.987  -1.167 123.354  0.00  0.00    -0.028 C 
ATOM     17  C   LIG A   1      -8.591   0.107 123.541  0.00  0.00    -0.080 C 
ATOM     18  C   LIG A   1      -7.203   0.652 123.331  0.00  0.00    +0.038 C 
ATOM     19  C   LIG A   1      -9.577   1.145 124.012  0.00  0.00    +0.038 C 
ENDBRANCH  15  16
ENDBRANCH  14  15
ENDBRANCH  12  14
ENDBRANCH   9  11
ENDBRANCH   2   9
BRANCH   4  20
ATOM     20  C   LIG A   1      -3.431  -3.047 130.340  0.00  0.00    +0.337 C 
ATOM     21  O   LIG A   1      -3.150  -3.458 131.457  0.00  0.00    -0.245 OA
BRANCH  20  22
ATOM     22  O   LIG A   1      -2.522  -2.463 129.547  0.00  0.00    -0.477 OA
ATOM     23  H   LIG A   1      -1.781  -3.099 129.487  0.00  0.00    +0.295 HD
ENDBRANCH  20  22
ENDBRANCH   4  20
TORSDOF 8
ENDMDL
