MODEL 1
REMARK VINA RESULT:      -6.9      0.000      0.000
REMARK  Name = NuBBE_1403
REMARK  4 active torsions:
REMARK  status: ('A' for Active; 'I' for Inactive)
REMARK    1  A    between atoms: C_1  and  C_2
REMARK    2  A    between atoms: C_1  and  C_3
REMARK    3  A    between atoms: C_1  and  C_4
REMARK    4  A    between atoms: C_16  and  C_18
REMARK                            x       y       z     vdW  Elec       q    Type
REMARK                         _______ _______ _______ _____ _____    ______ ____
ROOT
ATOM      1  C   LIG A   1      -7.842  -1.943 125.906  0.00  0.00    -0.001 C 
ATOM      2  C   LIG A   1      -6.430  -1.532 125.368  0.00  0.00    +0.022 C 
ATOM      3  C   LIG A   1      -6.503  -0.648 124.089  0.00  0.00    +0.022 C 
ATOM      4  C   LIG A   1      -7.505   0.478 124.237  0.00  0.00    -0.073 C 
ATOM      5  C   LIG A   1      -7.189   1.756 123.965  0.00  0.00    +0.008 C 
ATOM      6  C   LIG A   1      -8.863   0.086 124.745  0.00  0.00    +0.031 C 
ATOM      7  C   LIG A   1      -8.740  -0.695 126.052  0.00  0.00    +0.009 C 
ATOM      8  C   LIG A   1      -6.793  -1.504 122.846  0.00  0.00    +0.013 C 
ATOM      9  C   LIG A   1      -5.701  -2.555 122.633  0.00  0.00    +0.031 C 
ATOM     10  C   LIG A   1      -5.213  -3.202 123.905  0.00  0.00    -0.076 C 
ATOM     11  C   LIG A   1      -5.550  -2.741 125.123  0.00  0.00    -0.024 C 
ATOM     12  C   LIG A   1      -4.308  -4.387 123.728  0.00  0.00    +0.038 C 
ENDROOT
BRANCH   1  13
ATOM     13  C   LIG A   1      -7.794  -2.798 127.215  0.00  0.00    -0.013 C 
ATOM     14  C   LIG A   1      -8.992  -3.752 127.322  0.00  0.00    +0.007 C 
ATOM     15  C   LIG A   1      -7.682  -1.974 128.499  0.00  0.00    +0.007 C 
ENDBRANCH   1  13
TORSDOF 1
ENDMDL
MODEL 2
REMARK VINA RESULT:      -6.8      1.629      4.658
REMARK  Name = NuBBE_1403
REMARK  4 active torsions:
REMARK  status: ('A' for Active; 'I' for Inactive)
REMARK    1  A    between atoms: C_1  and  C_2
REMARK    2  A    between atoms: C_1  and  C_3
REMARK    3  A    between atoms: C_1  and  C_4
REMARK    4  A    between atoms: C_16  and  C_18
REMARK                            x       y       z     vdW  Elec       q    Type
REMARK                         _______ _______ _______ _____ _____    ______ ____
ROOT
ATOM      1  C   LIG A   1      -6.664  -2.436 124.643  0.00  0.00    -0.001 C 
ATOM      2  C   LIG A   1      -6.237  -2.077 126.107  0.00  0.00    +0.022 C 
ATOM      3  C   LIG A   1      -7.446  -1.954 127.078  0.00  0.00    +0.022 C 
ATOM      4  C   LIG A   1      -8.403  -3.120 126.939  0.00  0.00    -0.073 C 
ATOM      5  C   LIG A   1      -8.825  -3.829 128.000  0.00  0.00    +0.008 C 
ATOM      6  C   LIG A   1      -8.822  -3.462 125.537  0.00  0.00    +0.031 C 
ATOM      7  C   LIG A   1      -7.598  -3.667 124.648  0.00  0.00    +0.009 C 
ATOM      8  C   LIG A   1      -8.163  -0.608 126.895  0.00  0.00    +0.013 C 
ATOM      9  C   LIG A   1      -7.217   0.563 127.169  0.00  0.00    +0.031 C 
ATOM     10  C   LIG A   1      -5.821   0.365 126.630  0.00  0.00    -0.076 C 
ATOM     11  C   LIG A   1      -5.395  -0.818 126.151  0.00  0.00    -0.024 C 
ATOM     12  C   LIG A   1      -4.927   1.570 126.679  0.00  0.00    +0.038 C 
ENDROOT
BRANCH   1  13
ATOM     13  C   LIG A   1      -5.462  -2.603 123.657  0.00  0.00    -0.013 C 
ATOM     14  C   LIG A   1      -5.850  -2.254 122.214  0.00  0.00    +0.007 C 
ATOM     15  C   LIG A   1      -4.813  -3.989 123.689  0.00  0.00    +0.007 C 
ENDBRANCH   1  13
TORSDOF 1
ENDMDL
MODEL 3
REMARK VINA RESULT:      -6.0      1.846      3.730
REMARK  Name = NuBBE_1403
REMARK  4 active torsions:
REMARK  status: ('A' for Active; 'I' for Inactive)
REMARK    1  A    between atoms: C_1  and  C_2
REMARK    2  A    between atoms: C_1  and  C_3
REMARK    3  A    between atoms: C_1  and  C_4
REMARK    4  A    between atoms: C_16  and  C_18
REMARK                            x       y       z     vdW  Elec       q    Type
REMARK                         _______ _______ _______ _____ _____    ______ ____
ROOT
ATOM      1  C   LIG A   1      -7.795  -2.360 126.708  0.00  0.00    -0.001 C 
ATOM      2  C   LIG A   1      -8.577  -1.270 125.900  0.00  0.00    +0.022 C 
ATOM      3  C   LIG A   1      -8.553  -1.522 124.364  0.00  0.00    +0.022 C 
ATOM      4  C   LIG A   1      -8.886  -2.960 124.023  0.00  0.00    -0.073 C 
ATOM      5  C   LIG A   1      -9.823  -3.280 123.115  0.00  0.00    +0.008 C 
ATOM      6  C   LIG A   1      -8.132  -4.008 124.791  0.00  0.00    +0.031 C 
ATOM      7  C   LIG A   1      -8.267  -3.771 126.293  0.00  0.00    +0.009 C 
ATOM      8  C   LIG A   1      -7.208  -1.093 123.757  0.00  0.00    +0.013 C 
ATOM      9  C   LIG A   1      -6.946   0.396 123.996  0.00  0.00    +0.031 C 
ATOM     10  C   LIG A   1      -7.352   0.881 125.365  0.00  0.00    -0.076 C 
ATOM     11  C   LIG A   1      -8.075   0.125 126.212  0.00  0.00    -0.024 C 
ATOM     12  C   LIG A   1      -6.913   2.272 125.721  0.00  0.00    +0.038 C 
ENDROOT
BRANCH   1  13
ATOM     13  C   LIG A   1      -7.838  -2.149 128.257  0.00  0.00    -0.013 C 
ATOM     14  C   LIG A   1      -6.446  -1.866 128.838  0.00  0.00    +0.007 C 
ATOM     15  C   LIG A   1      -8.488  -3.299 129.029  0.00  0.00    +0.007 C 
ENDBRANCH   1  13
TORSDOF 1
ENDMDL
MODEL 4
REMARK VINA RESULT:      -6.0      2.132      4.833
REMARK  Name = NuBBE_1403
REMARK  4 active torsions:
REMARK  status: ('A' for Active; 'I' for Inactive)
REMARK    1  A    between atoms: C_1  and  C_2
REMARK    2  A    between atoms: C_1  and  C_3
REMARK    3  A    between atoms: C_1  and  C_4
REMARK    4  A    between atoms: C_16  and  C_18
REMARK                            x       y       z     vdW  Elec       q    Type
REMARK                         _______ _______ _______ _____ _____    ______ ____
ROOT
ATOM      1  C   LIG A   1      -7.907  -2.522 126.376  0.00  0.00    -0.001 C 
ATOM      2  C   LIG A   1      -6.473  -2.230 126.933  0.00  0.00    +0.022 C 
ATOM      3  C   LIG A   1      -6.445  -2.071 128.481  0.00  0.00    +0.022 C 
ATOM      4  C   LIG A   1      -7.207  -3.180 129.176  0.00  0.00    -0.073 C 
ATOM      5  C   LIG A   1      -6.672  -3.896 130.179  0.00  0.00    +0.008 C 
ATOM      6  C   LIG A   1      -8.587  -3.458 128.650  0.00  0.00    +0.031 C 
ATOM      7  C   LIG A   1      -8.546  -3.702 127.143  0.00  0.00    +0.009 C 
ATOM      8  C   LIG A   1      -6.955  -0.683 128.900  0.00  0.00    +0.013 C 
ATOM      9  C   LIG A   1      -6.093   0.427 128.295  0.00  0.00    +0.031 C 
ATOM     10  C   LIG A   1      -5.670   0.170 126.870  0.00  0.00    -0.076 C 
ATOM     11  C   LIG A   1      -5.850  -1.019 126.268  0.00  0.00    -0.024 C 
ATOM     12  C   LIG A   1      -5.014   1.324 126.167  0.00  0.00    +0.038 C 
ENDROOT
BRANCH   1  13
ATOM     13  C   LIG A   1      -7.953  -2.725 124.826  0.00  0.00    -0.013 C 
ATOM     14  C   LIG A   1      -9.347  -3.148 124.343  0.00  0.00    +0.007 C 
ATOM     15  C   LIG A   1      -6.909  -3.708 124.291  0.00  0.00    +0.007 C 
ENDBRANCH   1  13
TORSDOF 1
ENDMDL
MODEL 5
REMARK VINA RESULT:      -5.9      8.835     11.171
REMARK  Name = NuBBE_1403
REMARK  4 active torsions:
REMARK  status: ('A' for Active; 'I' for Inactive)
REMARK    1  A    between atoms: C_1  and  C_2
REMARK    2  A    between atoms: C_1  and  C_3
REMARK    3  A    between atoms: C_1  and  C_4
REMARK    4  A    between atoms: C_16  and  C_18
REMARK                            x       y       z     vdW  Elec       q    Type
REMARK                         _______ _______ _______ _____ _____    ______ ____
ROOT
ATOM      1  C   LIG A   1      -9.990   6.409 130.139  0.00  0.00    -0.001 C 
ATOM      2  C   LIG A   1     -10.626   7.704 129.530  0.00  0.00    +0.022 C 
ATOM      3  C   LIG A   1     -12.149   7.827 129.824  0.00  0.00    +0.022 C 
ATOM      4  C   LIG A   1     -12.466   7.560 131.280  0.00  0.00    -0.073 C 
ATOM      5  C   LIG A   1     -13.211   8.403 132.016  0.00  0.00    +0.008 C 
ATOM      6  C   LIG A   1     -11.865   6.314 131.866  0.00  0.00    +0.031 C 
ATOM      7  C   LIG A   1     -10.356   6.289 131.635  0.00  0.00    +0.009 C 
ATOM      8  C   LIG A   1     -12.963   6.917 128.891  0.00  0.00    +0.013 C 
ATOM      9  C   LIG A   1     -12.734   7.285 127.423  0.00  0.00    +0.031 C 
ATOM     10  C   LIG A   1     -11.303   7.630 127.092  0.00  0.00    -0.076 C 
ATOM     11  C   LIG A   1     -10.366   7.808 128.041  0.00  0.00    -0.024 C 
ATOM     12  C   LIG A   1     -10.990   7.780 125.630  0.00  0.00    +0.038 C 
ENDROOT
BRANCH   1  13
ATOM     13  C   LIG A   1      -8.451   6.284 129.890  0.00  0.00    -0.013 C 
ATOM     14  C   LIG A   1      -8.039   4.846 129.547  0.00  0.00    +0.007 C 
ATOM     15  C   LIG A   1      -7.585   6.800 131.042  0.00  0.00    +0.007 C 
ENDBRANCH   1  13
TORSDOF 1
ENDMDL
MODEL 6
REMARK VINA RESULT:      -5.9      1.833      4.173
REMARK  Name = NuBBE_1403
REMARK  4 active torsions:
REMARK  status: ('A' for Active; 'I' for Inactive)
REMARK    1  A    between atoms: C_1  and  C_2
REMARK    2  A    between atoms: C_1  and  C_3
REMARK    3  A    between atoms: C_1  and  C_4
REMARK    4  A    between atoms: C_16  and  C_18
REMARK                            x       y       z     vdW  Elec       q    Type
REMARK                         _______ _______ _______ _____ _____    ______ ____
ROOT
ATOM      1  C   LIG A   1      -6.684  -1.587 124.983  0.00  0.00    -0.001 C 
ATOM      2  C   LIG A   1      -6.756  -0.244 124.180  0.00  0.00    +0.022 C 
ATOM      3  C   LIG A   1      -6.706   1.013 125.097  0.00  0.00    +0.022 C 
ATOM      4  C   LIG A   1      -5.596   0.919 126.123  0.00  0.00    -0.073 C 
ATOM      5  C   LIG A   1      -4.704   1.907 126.304  0.00  0.00    +0.008 C 
ATOM      6  C   LIG A   1      -5.528  -0.365 126.901  0.00  0.00    +0.031 C 
ATOM      7  C   LIG A   1      -5.483  -1.563 125.955  0.00  0.00    +0.009 C 
ATOM      8  C   LIG A   1      -8.069   1.266 125.758  0.00  0.00    +0.013 C 
ATOM      9  C   LIG A   1      -9.159   1.491 124.707  0.00  0.00    +0.031 C 
ATOM     10  C   LIG A   1      -9.052   0.584 123.506  0.00  0.00    -0.076 C 
ATOM     11  C   LIG A   1      -7.976  -0.193 123.284  0.00  0.00    -0.024 C 
ATOM     12  C   LIG A   1     -10.218   0.615 122.560  0.00  0.00    +0.038 C 
ENDROOT
BRANCH   1  13
ATOM     13  C   LIG A   1      -6.693  -2.864 124.080  0.00  0.00    -0.013 C 
ATOM     14  C   LIG A   1      -7.780  -3.860 124.505  0.00  0.00    +0.007 C 
ATOM     15  C   LIG A   1      -5.346  -3.584 123.998  0.00  0.00    +0.007 C 
ENDBRANCH   1  13
TORSDOF 1
ENDMDL
MODEL 7
REMARK VINA RESULT:      -5.9      1.827      4.582
REMARK  Name = NuBBE_1403
REMARK  4 active torsions:
REMARK  status: ('A' for Active; 'I' for Inactive)
REMARK    1  A    between atoms: C_1  and  C_2
REMARK    2  A    between atoms: C_1  and  C_3
REMARK    3  A    between atoms: C_1  and  C_4
REMARK    4  A    between atoms: C_16  and  C_18
REMARK                            x       y       z     vdW  Elec       q    Type
REMARK                         _______ _______ _______ _____ _____    ______ ____
ROOT
ATOM      1  C   LIG A   1      -8.226  -0.664 124.110  0.00  0.00    -0.001 C 
ATOM      2  C   LIG A   1      -6.711  -0.272 124.065  0.00  0.00    +0.022 C 
ATOM      3  C   LIG A   1      -5.785  -1.357 124.688  0.00  0.00    +0.022 C 
ATOM      4  C   LIG A   1      -6.121  -2.744 124.181  0.00  0.00    -0.073 C 
ATOM      5  C   LIG A   1      -5.185  -3.570 123.685  0.00  0.00    +0.008 C 
ATOM      6  C   LIG A   1      -7.573  -3.127 124.231  0.00  0.00    +0.031 C 
ATOM      7  C   LIG A   1      -8.428  -2.079 123.523  0.00  0.00    +0.009 C 
ATOM      8  C   LIG A   1      -5.817  -1.290 126.222  0.00  0.00    +0.013 C 
ATOM      9  C   LIG A   1      -5.348   0.076 126.726  0.00  0.00    +0.031 C 
ATOM     10  C   LIG A   1      -5.846   1.239 125.903  0.00  0.00    -0.076 C 
ATOM     11  C   LIG A   1      -6.460   1.072 124.718  0.00  0.00    -0.024 C 
ATOM     12  C   LIG A   1      -5.597   2.602 126.484  0.00  0.00    +0.038 C 
ENDROOT
BRANCH   1  13
ATOM     13  C   LIG A   1      -9.172   0.394 123.454  0.00  0.00    -0.013 C 
ATOM     14  C   LIG A   1     -10.010   1.143 124.499  0.00  0.00    +0.007 C 
ATOM     15  C   LIG A   1     -10.095  -0.174 122.374  0.00  0.00    +0.007 C 
ENDBRANCH   1  13
TORSDOF 1
ENDMDL
MODEL 8
REMARK VINA RESULT:      -5.8      1.554      4.410
REMARK  Name = NuBBE_1403
REMARK  4 active torsions:
REMARK  status: ('A' for Active; 'I' for Inactive)
REMARK    1  A    between atoms: C_1  and  C_2
REMARK    2  A    between atoms: C_1  and  C_3
REMARK    3  A    between atoms: C_1  and  C_4
REMARK    4  A    between atoms: C_16  and  C_18
REMARK                            x       y       z     vdW  Elec       q    Type
REMARK                         _______ _______ _______ _____ _____    ______ ____
ROOT
ATOM      1  C   LIG A   1      -6.216  -1.841 125.471  0.00  0.00    -0.001 C 
ATOM      2  C   LIG A   1      -7.596  -1.516 126.135  0.00  0.00    +0.022 C 
ATOM      3  C   LIG A   1      -7.472  -0.554 127.352  0.00  0.00    +0.022 C 
ATOM      4  C   LIG A   1      -6.594   0.640 127.040  0.00  0.00    -0.073 C 
ATOM      5  C   LIG A   1      -6.992   1.901 127.279  0.00  0.00    +0.008 C 
ATOM      6  C   LIG A   1      -5.265   0.332 126.411  0.00  0.00    +0.031 C 
ATOM      7  C   LIG A   1      -5.450  -0.533 125.166  0.00  0.00    +0.009 C 
ATOM      8  C   LIG A   1      -6.982  -1.307 128.599  0.00  0.00    +0.013 C 
ATOM      9  C   LIG A   1      -7.950  -2.429 128.981  0.00  0.00    +0.031 C 
ATOM     10  C   LIG A   1      -8.506  -3.190 127.802  0.00  0.00    -0.076 C 
ATOM     11  C   LIG A   1      -8.336  -2.776 126.533  0.00  0.00    -0.024 C 
ATOM     12  C   LIG A   1      -9.280  -4.433 128.135  0.00  0.00    +0.038 C 
ENDROOT
BRANCH   1  13
ATOM     13  C   LIG A   1      -6.320  -2.774 124.220  0.00  0.00    -0.013 C 
ATOM     14  C   LIG A   1      -5.061  -3.631 124.036  0.00  0.00    +0.007 C 
ATOM     15  C   LIG A   1      -6.633  -2.041 122.914  0.00  0.00    +0.007 C 
ENDBRANCH   1  13
TORSDOF 1
ENDMDL
MODEL 9
REMARK VINA RESULT:      -5.7      1.891      2.793
REMARK  Name = NuBBE_1403
REMARK  4 active torsions:
REMARK  status: ('A' for Active; 'I' for Inactive)
REMARK    1  A    between atoms: C_1  and  C_2
REMARK    2  A    between atoms: C_1  and  C_3
REMARK    3  A    between atoms: C_1  and  C_4
REMARK    4  A    between atoms: C_16  and  C_18
REMARK                            x       y       z     vdW  Elec       q    Type
REMARK                         _______ _______ _______ _____ _____    ______ ____
ROOT
ATOM      1  C   LIG A   1      -6.813   0.060 125.722  0.00  0.00    -0.001 C 
ATOM      2  C   LIG A   1      -6.679  -0.536 124.280  0.00  0.00    +0.022 C 
ATOM      3  C   LIG A   1      -8.042  -0.990 123.684  0.00  0.00    +0.022 C 
ATOM      4  C   LIG A   1      -9.116   0.063 123.863  0.00  0.00    -0.073 C 
ATOM      5  C   LIG A   1      -9.876   0.490 122.841  0.00  0.00    +0.008 C 
ATOM      6  C   LIG A   1      -9.253   0.632 125.247  0.00  0.00    +0.031 C 
ATOM      7  C   LIG A   1      -7.907   1.151 125.748  0.00  0.00    +0.009 C 
ATOM      8  C   LIG A   1      -8.474  -2.344 124.268  0.00  0.00    +0.013 C 
ATOM      9  C   LIG A   1      -7.440  -3.431 123.964  0.00  0.00    +0.031 C 
ATOM     10  C   LIG A   1      -6.009  -2.970 124.088  0.00  0.00    -0.076 C 
ATOM     11  C   LIG A   1      -5.680  -1.674 124.236  0.00  0.00    -0.024 C 
ATOM     12  C   LIG A   1      -4.968  -4.051 124.018  0.00  0.00    +0.038 C 
ENDROOT
BRANCH   1  13
ATOM     13  C   LIG A   1      -5.460   0.560 126.327  0.00  0.00    -0.013 C 
ATOM     14  C   LIG A   1      -5.325   0.197 127.812  0.00  0.00    +0.007 C 
ATOM     15  C   LIG A   1      -5.206   2.058 126.144  0.00  0.00    +0.007 C 
ENDBRANCH   1  13
TORSDOF 1
ENDMDL
