MODEL 1
REMARK VINA RESULT:      -6.3      0.000      0.000
REMARK  Name = NuBBE_739
REMARK  2 active torsions:
REMARK  status: ('A' for Active; 'I' for Inactive)
REMARK    1  A    between atoms: C_2  and  C_3
REMARK    2  A    between atoms: C_4  and  C_5
REMARK                            x       y       z     vdW  Elec       q    Type
REMARK                         _______ _______ _______ _____ _____    ______ ____
ROOT
ATOM      1  C   LIG A   1     -12.201   8.219 129.715  0.00  0.00    -0.021 A 
ATOM      2  C   LIG A   1     -11.156   7.734 128.912  0.00  0.00    +0.057 A 
ATOM      3  C   LIG A   1     -10.502   6.586 129.313  0.00  0.00    +0.167 A 
ATOM      4  O   LIG A   1      -9.467   5.992 128.659  0.00  0.00    -0.453 OA
ATOM      5  C   LIG A   1      -9.206   4.869 129.528  0.00  0.00    +0.466 C 
ATOM      6  O   LIG A   1     -10.087   4.810 130.670  0.00  0.00    -0.453 OA
ATOM      7  C   LIG A   1     -10.855   5.911 130.457  0.00  0.00    +0.166 A 
ATOM      8  C   LIG A   1     -11.885   6.342 131.261  0.00  0.00    +0.050 A 
ATOM      9  C   LIG A   1     -12.566   7.504 130.879  0.00  0.00    +0.012 A 
ENDROOT
BRANCH   1  11
ATOM     10  C   LIG A   1     -13.173  10.468 130.100  0.00  0.00    +0.043 C 
ATOM     11  C   LIG A   1     -12.915   9.434 129.287  0.00  0.00    +0.011 C 
BRANCH  10  13
ATOM     12  O   LIG A   1     -13.715  12.760 130.091  0.00  0.00    -0.296 OA
ATOM     13  C   LIG A   1     -13.886  11.656 129.592  0.00  0.00    +0.251 C 
ENDBRANCH  10  13
ENDBRANCH   1  11
TORSDOF 2
ENDMDL
MODEL 2
REMARK VINA RESULT:      -6.0     10.483     13.524
REMARK  Name = NuBBE_739
REMARK  2 active torsions:
REMARK  status: ('A' for Active; 'I' for Inactive)
REMARK    1  A    between atoms: C_2  and  C_3
REMARK    2  A    between atoms: C_4  and  C_5
REMARK                            x       y       z     vdW  Elec       q    Type
REMARK                         _______ _______ _______ _____ _____    ______ ____
ROOT
ATOM      1  C   LIG A   1      -6.822  -1.971 123.901  0.00  0.00    -0.021 A 
ATOM      2  C   LIG A   1      -8.066  -2.045 123.256  0.00  0.00    +0.057 A 
ATOM      3  C   LIG A   1      -8.794  -0.882 123.100  0.00  0.00    +0.167 A 
ATOM      4  O   LIG A   1     -10.016  -0.783 122.511  0.00  0.00    -0.453 OA
ATOM      5  C   LIG A   1     -10.266   0.633 122.643  0.00  0.00    +0.466 C 
ATOM      6  O   LIG A   1      -9.195   1.346 123.295  0.00  0.00    -0.453 OA
ATOM      7  C   LIG A   1      -8.327   0.331 123.545  0.00  0.00    +0.166 A 
ATOM      8  C   LIG A   1      -7.104   0.451 124.165  0.00  0.00    +0.050 A 
ATOM      9  C   LIG A   1      -6.344  -0.712 124.336  0.00  0.00    +0.012 A 
ENDROOT
BRANCH   1  11
ATOM     10  C   LIG A   1      -4.836  -3.396 123.480  0.00  0.00    +0.043 C 
ATOM     11  C   LIG A   1      -6.031  -3.203 124.056  0.00  0.00    +0.011 C 
BRANCH  10  13
ATOM     12  O   LIG A   1      -4.089  -5.537 122.844  0.00  0.00    -0.296 OA
ATOM     13  C   LIG A   1      -4.099  -4.656 123.694  0.00  0.00    +0.251 C 
ENDBRANCH  10  13
ENDBRANCH   1  11
TORSDOF 2
ENDMDL
MODEL 3
REMARK VINA RESULT:      -5.6      2.611      5.320
REMARK  Name = NuBBE_739
REMARK  2 active torsions:
REMARK  status: ('A' for Active; 'I' for Inactive)
REMARK    1  A    between atoms: C_2  and  C_3
REMARK    2  A    between atoms: C_4  and  C_5
REMARK                            x       y       z     vdW  Elec       q    Type
REMARK                         _______ _______ _______ _____ _____    ______ ____
ROOT
ATOM      1  C   LIG A   1     -10.654   6.476 131.601  0.00  0.00    -0.021 A 
ATOM      2  C   LIG A   1      -9.874   6.865 130.500  0.00  0.00    +0.057 A 
ATOM      3  C   LIG A   1     -10.508   7.448 129.422  0.00  0.00    +0.167 A 
ATOM      4  O   LIG A   1      -9.905   7.870 128.278  0.00  0.00    -0.453 OA
ATOM      5  C   LIG A   1     -11.040   8.372 127.541  0.00  0.00    +0.466 C 
ATOM      6  O   LIG A   1     -12.287   8.248 128.256  0.00  0.00    -0.453 OA
ATOM      7  C   LIG A   1     -11.865   7.666 129.408  0.00  0.00    +0.166 A 
ATOM      8  C   LIG A   1     -12.662   7.318 130.474  0.00  0.00    +0.050 A 
ATOM      9  C   LIG A   1     -12.047   6.724 131.582  0.00  0.00    +0.012 A 
ENDROOT
BRANCH   1  11
ATOM     10  C   LIG A   1      -8.656   5.890 132.949  0.00  0.00    +0.043 C 
ATOM     11  C   LIG A   1      -9.984   5.868 132.763  0.00  0.00    +0.011 C 
BRANCH  10  13
ATOM     12  O   LIG A   1      -8.516   4.232 134.616  0.00  0.00    -0.296 OA
ATOM     13  C   LIG A   1      -8.061   5.266 134.147  0.00  0.00    +0.251 C 
ENDBRANCH  10  13
ENDBRANCH   1  11
TORSDOF 2
ENDMDL
MODEL 4
REMARK VINA RESULT:      -5.6      2.864      5.454
REMARK  Name = NuBBE_739
REMARK  2 active torsions:
REMARK  status: ('A' for Active; 'I' for Inactive)
REMARK    1  A    between atoms: C_2  and  C_3
REMARK    2  A    between atoms: C_4  and  C_5
REMARK                            x       y       z     vdW  Elec       q    Type
REMARK                         _______ _______ _______ _____ _____    ______ ____
ROOT
ATOM      1  C   LIG A   1      -9.498   6.666 131.121  0.00  0.00    -0.021 A 
ATOM      2  C   LIG A   1      -9.567   7.426 129.943  0.00  0.00    +0.057 A 
ATOM      3  C   LIG A   1     -10.813   7.789 129.471  0.00  0.00    +0.167 A 
ATOM      4  O   LIG A   1     -11.056   8.512 128.344  0.00  0.00    -0.453 OA
ATOM      5  C   LIG A   1     -12.498   8.570 128.364  0.00  0.00    +0.466 C 
ATOM      6  O   LIG A   1     -13.083   7.894 129.496  0.00  0.00    -0.453 OA
ATOM      7  C   LIG A   1     -11.969   7.440 130.127  0.00  0.00    +0.166 A 
ATOM      8  C   LIG A   1     -11.944   6.713 131.294  0.00  0.00    +0.050 A 
ATOM      9  C   LIG A   1     -10.695   6.330 131.797  0.00  0.00    +0.012 A 
ENDROOT
BRANCH   1  11
ATOM     10  C   LIG A   1      -7.024   6.822 131.204  0.00  0.00    +0.043 C 
ATOM     11  C   LIG A   1      -8.174   6.288 131.641  0.00  0.00    +0.011 C 
BRANCH  10  13
ATOM     12  O   LIG A   1      -4.704   7.016 131.561  0.00  0.00    -0.296 OA
ATOM     13  C   LIG A   1      -5.736   6.397 131.785  0.00  0.00    +0.251 C 
ENDBRANCH  10  13
ENDBRANCH   1  11
TORSDOF 2
ENDMDL
MODEL 5
REMARK VINA RESULT:      -5.4      2.592      3.083
REMARK  Name = NuBBE_739
REMARK  2 active torsions:
REMARK  status: ('A' for Active; 'I' for Inactive)
REMARK    1  A    between atoms: C_2  and  C_3
REMARK    2  A    between atoms: C_4  and  C_5
REMARK                            x       y       z     vdW  Elec       q    Type
REMARK                         _______ _______ _______ _____ _____    ______ ____
ROOT
ATOM      1  C   LIG A   1     -10.530   6.985 130.774  0.00  0.00    -0.021 A 
ATOM      2  C   LIG A   1      -9.258   7.292 130.267  0.00  0.00    +0.057 A 
ATOM      3  C   LIG A   1      -8.151   6.872 130.977  0.00  0.00    +0.167 A 
ATOM      4  O   LIG A   1      -6.854   7.095 130.633  0.00  0.00    -0.453 OA
ATOM      5  C   LIG A   1      -6.168   6.444 131.723  0.00  0.00    +0.466 C 
ATOM      6  O   LIG A   1      -7.060   5.844 132.685  0.00  0.00    -0.453 OA
ATOM      7  C   LIG A   1      -8.266   6.158 132.145  0.00  0.00    +0.166 A 
ATOM      8  C   LIG A   1      -9.494   5.819 132.666  0.00  0.00    +0.050 A 
ATOM      9  C   LIG A   1     -10.634   6.232 131.967  0.00  0.00    +0.012 A 
ENDROOT
BRANCH   1  11
ATOM     10  C   LIG A   1     -11.676   8.315 129.022  0.00  0.00    +0.043 C 
ATOM     11  C   LIG A   1     -11.716   7.415 130.015  0.00  0.00    +0.011 C 
BRANCH  10  13
ATOM     12  O   LIG A   1     -13.546   9.686 128.606  0.00  0.00    -0.296 OA
ATOM     13  C   LIG A   1     -12.910   8.686 128.301  0.00  0.00    +0.251 C 
ENDBRANCH  10  13
ENDBRANCH   1  11
TORSDOF 2
ENDMDL
MODEL 6
REMARK VINA RESULT:      -5.3      9.949     10.503
REMARK  Name = NuBBE_739
REMARK  2 active torsions:
REMARK  status: ('A' for Active; 'I' for Inactive)
REMARK    1  A    between atoms: C_2  and  C_3
REMARK    2  A    between atoms: C_4  and  C_5
REMARK                            x       y       z     vdW  Elec       q    Type
REMARK                         _______ _______ _______ _____ _____    ______ ____
ROOT
ATOM      1  C   LIG A   1      -7.041   2.973 122.762  0.00  0.00    -0.021 A 
ATOM      2  C   LIG A   1      -6.706   1.963 123.677  0.00  0.00    +0.057 A 
ATOM      3  C   LIG A   1      -7.694   1.080 124.067  0.00  0.00    +0.167 A 
ATOM      4  O   LIG A   1      -7.540   0.057 124.950  0.00  0.00    -0.453 OA
ATOM      5  C   LIG A   1      -8.874  -0.494 124.962  0.00  0.00    +0.466 C 
ATOM      6  O   LIG A   1      -9.789   0.200 124.088  0.00  0.00    -0.453 OA
ATOM      7  C   LIG A   1      -8.974   1.160 123.576  0.00  0.00    +0.166 A 
ATOM      8  C   LIG A   1      -9.338   2.122 122.663  0.00  0.00    +0.050 A 
ATOM      9  C   LIG A   1      -8.358   3.031 122.249  0.00  0.00    +0.012 A 
ENDROOT
BRANCH   1  11
ATOM     10  C   LIG A   1      -5.621   4.068 121.048  0.00  0.00    +0.043 C 
ATOM     11  C   LIG A   1      -5.991   3.909 122.327  0.00  0.00    +0.011 C 
BRANCH  10  13
ATOM     12  O   LIG A   1      -4.843   6.168 120.318  0.00  0.00    -0.296 OA
ATOM     13  C   LIG A   1      -4.566   5.036 120.691  0.00  0.00    +0.251 C 
ENDBRANCH  10  13
ENDBRANCH   1  11
TORSDOF 2
ENDMDL
MODEL 7
REMARK VINA RESULT:      -5.3     12.000     12.255
REMARK  Name = NuBBE_739
REMARK  2 active torsions:
REMARK  status: ('A' for Active; 'I' for Inactive)
REMARK    1  A    between atoms: C_2  and  C_3
REMARK    2  A    between atoms: C_4  and  C_5
REMARK                            x       y       z     vdW  Elec       q    Type
REMARK                         _______ _______ _______ _____ _____    ______ ____
ROOT
ATOM      1  C   LIG A   1      -8.199  -2.915 127.121  0.00  0.00    -0.021 A 
ATOM      2  C   LIG A   1      -6.921  -2.336 127.071  0.00  0.00    +0.057 A 
ATOM      3  C   LIG A   1      -6.147  -2.359 128.214  0.00  0.00    +0.167 A 
ATOM      4  O   LIG A   1      -4.897  -1.836 128.337  0.00  0.00    -0.453 OA
ATOM      5  C   LIG A   1      -4.608  -2.149 129.717  0.00  0.00    +0.466 C 
ATOM      6  O   LIG A   1      -5.677  -2.853 130.382  0.00  0.00    -0.453 OA
ATOM      7  C   LIG A   1      -6.589  -2.940 129.378  0.00  0.00    +0.166 A 
ATOM      8  C   LIG A   1      -7.826  -3.535 129.464  0.00  0.00    +0.050 A 
ATOM      9  C   LIG A   1      -8.633  -3.527 128.320  0.00  0.00    +0.012 A 
ENDROOT
BRANCH   1  11
ATOM     10  C   LIG A   1      -8.622  -3.419 124.729  0.00  0.00    +0.043 C 
ATOM     11  C   LIG A   1      -9.026  -2.910 125.902  0.00  0.00    +0.011 C 
BRANCH  10  13
ATOM     12  O   LIG A   1      -9.982  -2.332 123.143  0.00  0.00    -0.296 OA
ATOM     13  C   LIG A   1      -9.514  -3.385 123.555  0.00  0.00    +0.251 C 
ENDBRANCH  10  13
ENDBRANCH   1  11
TORSDOF 2
ENDMDL
MODEL 8
REMARK VINA RESULT:      -4.9     12.105     12.973
REMARK  Name = NuBBE_739
REMARK  2 active torsions:
REMARK  status: ('A' for Active; 'I' for Inactive)
REMARK    1  A    between atoms: C_2  and  C_3
REMARK    2  A    between atoms: C_4  and  C_5
REMARK                            x       y       z     vdW  Elec       q    Type
REMARK                         _______ _______ _______ _____ _____    ______ ____
ROOT
ATOM      1  C   LIG A   1      -6.468  -2.393 127.071  0.00  0.00    -0.021 A 
ATOM      2  C   LIG A   1      -6.374  -2.283 125.675  0.00  0.00    +0.057 A 
ATOM      3  C   LIG A   1      -7.501  -2.545 124.921  0.00  0.00    +0.167 A 
ATOM      4  O   LIG A   1      -7.577  -2.495 123.563  0.00  0.00    -0.453 OA
ATOM      5  C   LIG A   1      -8.958  -2.858 123.355  0.00  0.00    +0.466 C 
ATOM      6  O   LIG A   1      -9.676  -3.109 124.582  0.00  0.00    -0.453 OA
ATOM      7  C   LIG A   1      -8.697  -2.893 125.499  0.00  0.00    +0.166 A 
ATOM      8  C   LIG A   1      -8.837  -2.993 126.864  0.00  0.00    +0.050 A 
ATOM      9  C   LIG A   1      -7.712  -2.734 127.655  0.00  0.00    +0.012 A 
ENDROOT
BRANCH   1  11
ATOM     10  C   LIG A   1      -4.810  -2.918 128.839  0.00  0.00    +0.043 C 
ATOM     11  C   LIG A   1      -5.277  -2.100 127.885  0.00  0.00    +0.011 C 
BRANCH  10  13
ATOM     12  O   LIG A   1      -2.945  -3.408 130.192  0.00  0.00    -0.296 OA
ATOM     13  C   LIG A   1      -3.601  -2.558 129.606  0.00  0.00    +0.251 C 
ENDBRANCH  10  13
ENDBRANCH   1  11
TORSDOF 2
ENDMDL
MODEL 9
REMARK VINA RESULT:      -4.8     11.796     12.409
REMARK  Name = NuBBE_739
REMARK  2 active torsions:
REMARK  status: ('A' for Active; 'I' for Inactive)
REMARK    1  A    between atoms: C_2  and  C_3
REMARK    2  A    between atoms: C_4  and  C_5
REMARK                            x       y       z     vdW  Elec       q    Type
REMARK                         _______ _______ _______ _____ _____    ______ ____
ROOT
ATOM      1  C   LIG A   1      -7.921  -2.879 127.570  0.00  0.00    -0.021 A 
ATOM      2  C   LIG A   1      -8.982  -3.211 126.712  0.00  0.00    +0.057 A 
ATOM      3  C   LIG A   1      -8.839  -2.954 125.364  0.00  0.00    +0.167 A 
ATOM      4  O   LIG A   1      -9.770  -3.204 124.404  0.00  0.00    -0.453 OA
ATOM      5  C   LIG A   1      -9.079  -2.737 123.226  0.00  0.00    +0.466 C 
ATOM      6  O   LIG A   1      -7.756  -2.229 123.501  0.00  0.00    -0.453 OA
ATOM      7  C   LIG A   1      -7.692  -2.400 124.848  0.00  0.00    +0.166 A 
ATOM      8  C   LIG A   1      -6.622  -2.078 125.650  0.00  0.00    +0.050 A 
ATOM      9  C   LIG A   1      -6.739  -2.327 127.023  0.00  0.00    +0.012 A 
ENDROOT
BRANCH   1  11
ATOM     10  C   LIG A   1      -7.241  -2.664 129.945  0.00  0.00    +0.043 C 
ATOM     11  C   LIG A   1      -8.058  -3.164 129.007  0.00  0.00    +0.011 C 
BRANCH  10  13
ATOM     12  O   LIG A   1      -7.021  -2.263 132.255  0.00  0.00    -0.296 OA
ATOM     13  C   LIG A   1      -7.450  -2.989 131.369  0.00  0.00    +0.251 C 
ENDBRANCH  10  13
ENDBRANCH   1  11
TORSDOF 2
ENDMDL
