MODEL 1
REMARK VINA RESULT:      -7.9      0.000      0.000
REMARK  Name = NuBBE_183
REMARK  18 active torsions:
REMARK  status: ('A' for Active; 'I' for Inactive)
REMARK    1  A    between atoms: C_1  and  C_2
REMARK    2  A    between atoms: C_2  and  C_3
REMARK    3  A    between atoms: C_3  and  C_4
REMARK    4  A    between atoms: C_4  and  C_5
REMARK    5  A    between atoms: C_6  and  C_7
REMARK    6  A    between atoms: C_6  and  C_20
REMARK    7  A    between atoms: C_7  and  C_8
REMARK    8  A    between atoms: C_8  and  C_9
REMARK    9  A    between atoms: C_10  and  C_11
REMARK   10  A    between atoms: C_10  and  C_14
REMARK   11  A    between atoms: C_11  and  O_12
REMARK   12  A    between atoms: C_14  and  C_15
REMARK   13  A    between atoms: C_15  and  C_16
REMARK   14  A    between atoms: C_17  and  C_18
REMARK   15  A    between atoms: C_17  and  C_19
REMARK   16  A    between atoms: C_21  and  C_22
REMARK   17  A    between atoms: C_22  and  C_23
REMARK   18  A    between atoms: C_27  and  C_28
REMARK                            x       y       z     vdW  Elec       q    Type
REMARK                         _______ _______ _______ _____ _____    ______ ____
ROOT
ATOM      1  C   LIG A   1      -7.810  -1.649 128.226  0.00  0.00    -0.027 C 
ATOM      2  C   LIG A   1      -7.909  -2.987 128.276  0.00  0.00    -0.076 C 
ATOM      3  C   LIG A   1      -7.201  -3.750 129.362  0.00  0.00    +0.038 C 
ENDROOT
BRANCH   1   4
ATOM      4  C   LIG A   1      -7.086  -0.701 129.133  0.00  0.00    +0.031 C 
BRANCH   4   5
ATOM      5  C   LIG A   1      -8.005   0.432 129.660  0.00  0.00    +0.034 C 
BRANCH   5   7
ATOM      6  C   LIG A   1      -6.548   1.861 128.254  0.00  0.00    +0.038 C 
ATOM      7  C   LIG A   1      -7.770   1.819 129.096  0.00  0.00    -0.076 C 
ATOM      8  C   LIG A   1      -8.582   2.865 129.388  0.00  0.00    -0.023 C 
BRANCH   8   9
ATOM      9  C   LIG A   1      -8.423   4.349 129.098  0.00  0.00    +0.066 C 
BRANCH   9  10
ATOM     10  C   LIG A   1      -9.387   5.303 129.687  0.00  0.00    +0.007 C 
ATOM     11  C   LIG A   1      -9.585   5.406 131.002  0.00  0.00    +0.058 C 
ATOM     12  C   LIG A   1     -10.523   6.390 131.538  0.00  0.00    +0.180 C 
ATOM     13  C   LIG A   1     -11.393   7.086 130.571  0.00  0.00    +0.058 C 
ATOM     14  C   LIG A   1     -11.198   7.012 129.246  0.00  0.00    +0.000 C 
ATOM     15  C   LIG A   1     -12.093   7.635 128.222  0.00  0.00    +0.048 C 
ATOM     16  C   LIG A   1     -10.049   6.238 128.729  0.00  0.00    +0.185 C 
ATOM     17  O   LIG A   1      -9.686   6.363 127.562  0.00  0.00    -0.287 OA
ATOM     18  O   LIG A   1     -10.608   6.579 132.741  0.00  0.00    -0.288 OA
ENDBRANCH   9  10
ENDBRANCH   8   9
ENDBRANCH   5   7
ENDBRANCH   4   5
ENDBRANCH   1   4
BRANCH   2  19
ATOM     19  C   LIG A   1      -8.750  -3.787 127.274  0.00  0.00    +0.034 C 
BRANCH  19  20
ATOM     20  C   LIG A   1      -9.636  -3.036 126.236  0.00  0.00    +0.032 C 
BRANCH  20  21
ATOM     21  C   LIG A   1      -9.073  -2.898 124.829  0.00  0.00    -0.016 C 
ATOM     22  C   LIG A   1      -8.757  -1.723 124.154  0.00  0.00    +0.033 C 
BRANCH  22  23
ATOM     23  C   LIG A   1      -8.685  -0.347 124.800  0.00  0.00    +0.333 C 
ATOM     24  O   LIG A   1      -7.793   0.168 125.357  0.00  0.00    -0.245 OA
BRANCH  23  25
ATOM     25  O   LIG A   1     -10.008   0.201 124.698  0.00  0.00    -0.477 OA
ATOM     26  H   LIG A   1     -10.657  -0.523 124.861  0.00  0.00    +0.295 HD
ENDBRANCH  23  25
ENDBRANCH  22  23
BRANCH  22  27
ATOM     27  C   LIG A   1      -8.098  -1.728 122.746  0.00  0.00    +0.046 C 
BRANCH  27  28
ATOM     28  C   LIG A   1      -6.579  -1.555 122.665  0.00  0.00    +0.032 C 
BRANCH  28  29
ATOM     29  C   LIG A   1      -5.687  -2.738 122.735  0.00  0.00    -0.028 C 
ATOM     30  C   LIG A   1      -5.199  -3.239 123.882  0.00  0.00    -0.080 C 
ATOM     31  C   LIG A   1      -5.461  -2.681 125.261  0.00  0.00    +0.038 C 
ATOM     32  C   LIG A   1      -4.258  -4.397 123.811  0.00  0.00    +0.038 C 
ENDBRANCH  28  29
ENDBRANCH  27  28
ENDBRANCH  22  27
ENDBRANCH  20  21
ENDBRANCH  19  20
ENDBRANCH   2  19
TORSDOF 13
ENDMDL
MODEL 2
REMARK VINA RESULT:      -7.7      4.575      7.629
REMARK  Name = NuBBE_183
REMARK  18 active torsions:
REMARK  status: ('A' for Active; 'I' for Inactive)
REMARK    1  A    between atoms: C_1  and  C_2
REMARK    2  A    between atoms: C_2  and  C_3
REMARK    3  A    between atoms: C_3  and  C_4
REMARK    4  A    between atoms: C_4  and  C_5
REMARK    5  A    between atoms: C_6  and  C_7
REMARK    6  A    between atoms: C_6  and  C_20
REMARK    7  A    between atoms: C_7  and  C_8
REMARK    8  A    between atoms: C_8  and  C_9
REMARK    9  A    between atoms: C_10  and  C_11
REMARK   10  A    between atoms: C_10  and  C_14
REMARK   11  A    between atoms: C_11  and  O_12
REMARK   12  A    between atoms: C_14  and  C_15
REMARK   13  A    between atoms: C_15  and  C_16
REMARK   14  A    between atoms: C_17  and  C_18
REMARK   15  A    between atoms: C_17  and  C_19
REMARK   16  A    between atoms: C_21  and  C_22
REMARK   17  A    between atoms: C_22  and  C_23
REMARK   18  A    between atoms: C_27  and  C_28
REMARK                            x       y       z     vdW  Elec       q    Type
REMARK                         _______ _______ _______ _____ _____    ______ ____
ROOT
ATOM      1  C   LIG A   1      -9.240  -2.999 125.774  0.00  0.00    -0.027 C 
ATOM      2  C   LIG A   1      -8.653  -3.135 124.575  0.00  0.00    -0.076 C 
ATOM      3  C   LIG A   1      -7.272  -3.723 124.479  0.00  0.00    +0.038 C 
ENDROOT
BRANCH   1   4
ATOM      4  C   LIG A   1      -8.743  -3.372 127.138  0.00  0.00    +0.031 C 
BRANCH   4   5
ATOM      5  C   LIG A   1      -7.884  -2.251 127.782  0.00  0.00    +0.034 C 
BRANCH   5   7
ATOM      6  C   LIG A   1      -5.536  -1.916 128.505  0.00  0.00    +0.038 C 
ATOM      7  C   LIG A   1      -6.783  -2.692 128.725  0.00  0.00    -0.076 C 
ATOM      8  C   LIG A   1      -6.955  -3.701 129.615  0.00  0.00    -0.023 C 
BRANCH   8   9
ATOM      9  C   LIG A   1      -5.949  -4.421 130.497  0.00  0.00    +0.066 C 
BRANCH   9  10
ATOM     10  C   LIG A   1      -5.572  -3.820 131.795  0.00  0.00    +0.007 C 
ATOM     11  C   LIG A   1      -6.364  -3.868 132.867  0.00  0.00    +0.058 C 
ATOM     12  C   LIG A   1      -5.931  -3.291 134.138  0.00  0.00    +0.180 C 
ATOM     13  C   LIG A   1      -4.707  -2.466 134.120  0.00  0.00    +0.058 C 
ATOM     14  C   LIG A   1      -3.888  -2.420 133.060  0.00  0.00    +0.000 C 
ATOM     15  C   LIG A   1      -2.678  -1.545 132.961  0.00  0.00    +0.048 C 
ATOM     16  C   LIG A   1      -4.193  -3.252 131.876  0.00  0.00    +0.185 C 
ATOM     17  O   LIG A   1      -3.343  -3.440 131.009  0.00  0.00    -0.287 OA
ATOM     18  O   LIG A   1      -6.592  -3.450 135.152  0.00  0.00    -0.288 OA
ENDBRANCH   9  10
ENDBRANCH   8   9
ENDBRANCH   5   7
ENDBRANCH   4   5
ENDBRANCH   1   4
BRANCH   2  19
ATOM     19  C   LIG A   1      -9.350  -2.735 123.268  0.00  0.00    +0.034 C 
BRANCH  19  20
ATOM     20  C   LIG A   1      -9.411  -1.235 122.853  0.00  0.00    +0.032 C 
BRANCH  20  21
ATOM     21  C   LIG A   1      -8.202  -0.380 123.201  0.00  0.00    -0.016 C 
ATOM     22  C   LIG A   1      -8.143   0.682 124.098  0.00  0.00    +0.033 C 
BRANCH  22  23
ATOM     23  C   LIG A   1      -9.238   1.032 125.096  0.00  0.00    +0.333 C 
ATOM     24  O   LIG A   1      -9.461   0.568 126.148  0.00  0.00    -0.245 OA
BRANCH  23  25
ATOM     25  O   LIG A   1     -10.061   2.010 124.444  0.00  0.00    -0.477 OA
ATOM     26  H   LIG A   1      -9.494   2.776 124.194  0.00  0.00    +0.295 HD
ENDBRANCH  23  25
ENDBRANCH  22  23
BRANCH  22  27
ATOM     27  C   LIG A   1      -6.813   1.415 124.429  0.00  0.00    +0.046 C 
BRANCH  27  28
ATOM     28  C   LIG A   1      -6.580   2.794 123.805  0.00  0.00    +0.032 C 
BRANCH  28  29
ATOM     29  C   LIG A   1      -6.898   3.031 122.375  0.00  0.00    -0.028 C 
ATOM     30  C   LIG A   1      -6.142   3.781 121.557  0.00  0.00    -0.080 C 
ATOM     31  C   LIG A   1      -4.877   4.504 121.953  0.00  0.00    +0.038 C 
ATOM     32  C   LIG A   1      -6.608   3.994 120.153  0.00  0.00    +0.038 C 
ENDBRANCH  28  29
ENDBRANCH  27  28
ENDBRANCH  22  27
ENDBRANCH  20  21
ENDBRANCH  19  20
ENDBRANCH   2  19
TORSDOF 13
ENDMDL
MODEL 3
REMARK VINA RESULT:      -7.7      2.408      4.182
REMARK  Name = NuBBE_183
REMARK  18 active torsions:
REMARK  status: ('A' for Active; 'I' for Inactive)
REMARK    1  A    between atoms: C_1  and  C_2
REMARK    2  A    between atoms: C_2  and  C_3
REMARK    3  A    between atoms: C_3  and  C_4
REMARK    4  A    between atoms: C_4  and  C_5
REMARK    5  A    between atoms: C_6  and  C_7
REMARK    6  A    between atoms: C_6  and  C_20
REMARK    7  A    between atoms: C_7  and  C_8
REMARK    8  A    between atoms: C_8  and  C_9
REMARK    9  A    between atoms: C_10  and  C_11
REMARK   10  A    between atoms: C_10  and  C_14
REMARK   11  A    between atoms: C_11  and  O_12
REMARK   12  A    between atoms: C_14  and  C_15
REMARK   13  A    between atoms: C_15  and  C_16
REMARK   14  A    between atoms: C_17  and  C_18
REMARK   15  A    between atoms: C_17  and  C_19
REMARK   16  A    between atoms: C_21  and  C_22
REMARK   17  A    between atoms: C_22  and  C_23
REMARK   18  A    between atoms: C_27  and  C_28
REMARK                            x       y       z     vdW  Elec       q    Type
REMARK                         _______ _______ _______ _____ _____    ______ ____
ROOT
ATOM      1  C   LIG A   1      -9.144   1.896 131.133  0.00  0.00    -0.027 C 
ATOM      2  C   LIG A   1      -8.491   0.824 130.659  0.00  0.00    -0.076 C 
ATOM      3  C   LIG A   1      -8.249  -0.362 131.553  0.00  0.00    +0.038 C 
ENDROOT
BRANCH   1   4
ATOM      4  C   LIG A   1      -9.739   2.142 132.487  0.00  0.00    +0.031 C 
BRANCH   4   5
ATOM      5  C   LIG A   1      -8.899   3.138 133.331  0.00  0.00    +0.034 C 
BRANCH   5   7
ATOM      6  C   LIG A   1      -8.271   5.457 133.941  0.00  0.00    +0.038 C 
ATOM      7  C   LIG A   1      -9.158   4.613 133.101  0.00  0.00    -0.076 C 
ATOM      8  C   LIG A   1     -10.118   5.055 132.252  0.00  0.00    -0.023 C 
BRANCH   8   9
ATOM      9  C   LIG A   1     -10.668   6.454 132.024  0.00  0.00    +0.066 C 
BRANCH   9  10
ATOM     10  C   LIG A   1     -10.890   6.921 130.639  0.00  0.00    +0.007 C 
ATOM     11  C   LIG A   1     -10.120   6.541 129.619  0.00  0.00    +0.058 C 
ATOM     12  C   LIG A   1     -10.403   7.002 128.261  0.00  0.00    +0.180 C 
ATOM     13  C   LIG A   1     -11.413   8.067 128.109  0.00  0.00    +0.058 C 
ATOM     14  C   LIG A   1     -12.211   8.449 129.117  0.00  0.00    +0.000 C 
ATOM     15  C   LIG A   1     -13.197   9.572 129.039  0.00  0.00    +0.048 C 
ATOM     16  C   LIG A   1     -12.108   7.757 130.420  0.00  0.00    +0.185 C 
ATOM     17  O   LIG A   1     -12.986   7.892 131.269  0.00  0.00    -0.287 OA
ATOM     18  O   LIG A   1      -9.785   6.552 127.309  0.00  0.00    -0.288 OA
ENDBRANCH   9  10
ENDBRANCH   8   9
ENDBRANCH   5   7
ENDBRANCH   4   5
ENDBRANCH   1   4
BRANCH   2  19
ATOM     19  C   LIG A   1      -7.995   0.738 129.210  0.00  0.00    +0.034 C 
BRANCH  19  20
ATOM     20  C   LIG A   1      -8.398   1.844 128.189  0.00  0.00    +0.032 C 
BRANCH  20  21
ATOM     21  C   LIG A   1      -8.064   1.580 126.729  0.00  0.00    -0.016 C 
ATOM     22  C   LIG A   1      -7.888   2.517 125.716  0.00  0.00    +0.033 C 
BRANCH  22  23
ATOM     23  C   LIG A   1      -7.752   4.017 125.940  0.00  0.00    +0.333 C 
ATOM     24  O   LIG A   1      -6.909   4.613 126.492  0.00  0.00    -0.245 OA
BRANCH  23  25
ATOM     25  O   LIG A   1      -8.958   4.598 125.423  0.00  0.00    -0.477 OA
ATOM     26  H   LIG A   1      -9.153   4.185 124.550  0.00  0.00    +0.295 HD
ENDBRANCH  23  25
ENDBRANCH  22  23
BRANCH  22  27
ATOM     27  C   LIG A   1      -7.457   2.114 124.278  0.00  0.00    +0.046 C 
BRANCH  27  28
ATOM     28  C   LIG A   1      -7.778   0.693 123.806  0.00  0.00    +0.032 C 
BRANCH  28  29
ATOM     29  C   LIG A   1      -6.725  -0.351 123.804  0.00  0.00    -0.028 C 
ATOM     30  C   LIG A   1      -6.887  -1.575 123.275  0.00  0.00    -0.080 C 
ATOM     31  C   LIG A   1      -8.150  -2.085 122.622  0.00  0.00    +0.038 C 
ATOM     32  C   LIG A   1      -5.768  -2.558 123.395  0.00  0.00    +0.038 C 
ENDBRANCH  28  29
ENDBRANCH  27  28
ENDBRANCH  22  27
ENDBRANCH  20  21
ENDBRANCH  19  20
ENDBRANCH   2  19
TORSDOF 13
ENDMDL
MODEL 4
REMARK VINA RESULT:      -7.7      3.716      8.689
REMARK  Name = NuBBE_183
REMARK  18 active torsions:
REMARK  status: ('A' for Active; 'I' for Inactive)
REMARK    1  A    between atoms: C_1  and  C_2
REMARK    2  A    between atoms: C_2  and  C_3
REMARK    3  A    between atoms: C_3  and  C_4
REMARK    4  A    between atoms: C_4  and  C_5
REMARK    5  A    between atoms: C_6  and  C_7
REMARK    6  A    between atoms: C_6  and  C_20
REMARK    7  A    between atoms: C_7  and  C_8
REMARK    8  A    between atoms: C_8  and  C_9
REMARK    9  A    between atoms: C_10  and  C_11
REMARK   10  A    between atoms: C_10  and  C_14
REMARK   11  A    between atoms: C_11  and  O_12
REMARK   12  A    between atoms: C_14  and  C_15
REMARK   13  A    between atoms: C_15  and  C_16
REMARK   14  A    between atoms: C_17  and  C_18
REMARK   15  A    between atoms: C_17  and  C_19
REMARK   16  A    between atoms: C_21  and  C_22
REMARK   17  A    between atoms: C_22  and  C_23
REMARK   18  A    between atoms: C_27  and  C_28
REMARK                            x       y       z     vdW  Elec       q    Type
REMARK                         _______ _______ _______ _____ _____    ______ ____
ROOT
ATOM      1  C   LIG A   1      -8.502   3.268 133.306  0.00  0.00    -0.027 C 
ATOM      2  C   LIG A   1      -8.856   2.367 132.377  0.00  0.00    -0.076 C 
ATOM      3  C   LIG A   1      -8.030   1.124 132.186  0.00  0.00    +0.038 C 
ENDROOT
BRANCH   1   4
ATOM      4  C   LIG A   1      -7.358   3.255 134.275  0.00  0.00    +0.031 C 
BRANCH   4   5
ATOM      5  C   LIG A   1      -6.398   4.458 134.073  0.00  0.00    +0.034 C 
BRANCH   5   7
ATOM      6  C   LIG A   1      -6.073   6.099 132.245  0.00  0.00    +0.038 C 
ATOM      7  C   LIG A   1      -5.882   4.689 132.667  0.00  0.00    -0.076 C 
ATOM      8  C   LIG A   1      -5.357   3.690 131.916  0.00  0.00    -0.023 C 
BRANCH   8   9
ATOM      9  C   LIG A   1      -4.970   3.657 130.446  0.00  0.00    +0.066 C 
BRANCH   9  10
ATOM     10  C   LIG A   1      -6.005   3.337 129.439  0.00  0.00    +0.007 C 
ATOM     11  C   LIG A   1      -6.692   4.277 128.791  0.00  0.00    +0.058 C 
ATOM     12  C   LIG A   1      -7.679   3.911 127.776  0.00  0.00    +0.180 C 
ATOM     13  C   LIG A   1      -8.039   2.483 127.673  0.00  0.00    +0.058 C 
ATOM     14  C   LIG A   1      -7.348   1.521 128.301  0.00  0.00    +0.000 C 
ATOM     15  C   LIG A   1      -7.714   0.070 128.291  0.00  0.00    +0.048 C 
ATOM     16  C   LIG A   1      -6.158   1.891 129.097  0.00  0.00    +0.185 C 
ATOM     17  O   LIG A   1      -5.357   1.033 129.460  0.00  0.00    -0.287 OA
ATOM     18  O   LIG A   1      -8.213   4.766 127.088  0.00  0.00    -0.288 OA
ENDBRANCH   9  10
ENDBRANCH   8   9
ENDBRANCH   5   7
ENDBRANCH   4   5
ENDBRANCH   1   4
BRANCH   2  19
ATOM     19  C   LIG A   1     -10.105   2.534 131.503  0.00  0.00    +0.034 C 
BRANCH  19  20
ATOM     20  C   LIG A   1     -10.132   3.631 130.397  0.00  0.00    +0.032 C 
BRANCH  20  21
ATOM     21  C   LIG A   1     -11.252   4.657 130.479  0.00  0.00    -0.016 C 
ATOM     22  C   LIG A   1     -11.241   5.872 131.157  0.00  0.00    +0.033 C 
BRANCH  22  23
ATOM     23  C   LIG A   1      -9.998   6.522 131.747  0.00  0.00    +0.333 C 
ATOM     24  O   LIG A   1      -9.085   7.014 131.202  0.00  0.00    -0.245 OA
BRANCH  23  25
ATOM     25  O   LIG A   1     -10.088   6.320 133.165  0.00  0.00    -0.477 OA
ATOM     26  H   LIG A   1     -10.641   7.042 133.547  0.00  0.00    +0.295 HD
ENDBRANCH  23  25
ENDBRANCH  22  23
BRANCH  22  27
ATOM     27  C   LIG A   1     -12.427   6.874 131.083  0.00  0.00    +0.046 C 
BRANCH  27  28
ATOM     28  C   LIG A   1     -12.266   8.112 130.197  0.00  0.00    +0.032 C 
BRANCH  28  29
ATOM     29  C   LIG A   1     -11.567   8.013 128.893  0.00  0.00    -0.028 C 
ATOM     30  C   LIG A   1     -12.141   7.546 127.771  0.00  0.00    -0.080 C 
ATOM     31  C   LIG A   1     -13.560   7.042 127.661  0.00  0.00    +0.038 C 
ATOM     32  C   LIG A   1     -11.308   7.438 126.536  0.00  0.00    +0.038 C 
ENDBRANCH  28  29
ENDBRANCH  27  28
ENDBRANCH  22  27
ENDBRANCH  20  21
ENDBRANCH  19  20
ENDBRANCH   2  19
TORSDOF 13
ENDMDL
MODEL 5
REMARK VINA RESULT:      -7.6      1.672      2.458
REMARK  Name = NuBBE_183
REMARK  18 active torsions:
REMARK  status: ('A' for Active; 'I' for Inactive)
REMARK    1  A    between atoms: C_1  and  C_2
REMARK    2  A    between atoms: C_2  and  C_3
REMARK    3  A    between atoms: C_3  and  C_4
REMARK    4  A    between atoms: C_4  and  C_5
REMARK    5  A    between atoms: C_6  and  C_7
REMARK    6  A    between atoms: C_6  and  C_20
REMARK    7  A    between atoms: C_7  and  C_8
REMARK    8  A    between atoms: C_8  and  C_9
REMARK    9  A    between atoms: C_10  and  C_11
REMARK   10  A    between atoms: C_10  and  C_14
REMARK   11  A    between atoms: C_11  and  O_12
REMARK   12  A    between atoms: C_14  and  C_15
REMARK   13  A    between atoms: C_15  and  C_16
REMARK   14  A    between atoms: C_17  and  C_18
REMARK   15  A    between atoms: C_17  and  C_19
REMARK   16  A    between atoms: C_21  and  C_22
REMARK   17  A    between atoms: C_22  and  C_23
REMARK   18  A    between atoms: C_27  and  C_28
REMARK                            x       y       z     vdW  Elec       q    Type
REMARK                         _______ _______ _______ _____ _____    ______ ____
ROOT
ATOM      1  C   LIG A   1      -8.301  -0.413 130.646  0.00  0.00    -0.027 C 
ATOM      2  C   LIG A   1      -7.490  -1.458 130.420  0.00  0.00    -0.076 C 
ATOM      3  C   LIG A   1      -6.035  -1.371 130.791  0.00  0.00    +0.038 C 
ENDROOT
BRANCH   1   4
ATOM      4  C   LIG A   1      -8.007   0.920 131.265  0.00  0.00    +0.031 C 
BRANCH   4   5
ATOM      5  C   LIG A   1      -9.297   1.698 131.636  0.00  0.00    +0.034 C 
BRANCH   5   7
ATOM      6  C   LIG A   1      -9.228   3.661 133.148  0.00  0.00    +0.038 C 
ATOM      7  C   LIG A   1      -9.179   3.206 131.736  0.00  0.00    -0.076 C 
ATOM      8  C   LIG A   1      -9.083   3.997 130.639  0.00  0.00    -0.023 C 
BRANCH   8   9
ATOM      9  C   LIG A   1      -9.152   5.509 130.503  0.00  0.00    +0.066 C 
BRANCH   9  10
ATOM     10  C   LIG A   1     -10.463   6.149 130.257  0.00  0.00    +0.007 C 
ATOM     11  C   LIG A   1     -11.332   6.407 131.235  0.00  0.00    +0.058 C 
ATOM     12  C   LIG A   1     -12.600   7.075 130.946  0.00  0.00    +0.180 C 
ATOM     13  C   LIG A   1     -12.968   7.233 129.525  0.00  0.00    +0.058 C 
ATOM     14  C   LIG A   1     -12.103   6.998 128.529  0.00  0.00    +0.000 C 
ATOM     15  C   LIG A   1     -12.445   7.070 127.074  0.00  0.00    +0.048 C 
ATOM     16  C   LIG A   1     -10.716   6.601 128.857  0.00  0.00    +0.185 C 
ATOM     17  O   LIG A   1      -9.837   6.637 127.999  0.00  0.00    -0.287 OA
ATOM     18  O   LIG A   1     -13.337   7.432 131.851  0.00  0.00    -0.288 OA
ENDBRANCH   9  10
ENDBRANCH   8   9
ENDBRANCH   5   7
ENDBRANCH   4   5
ENDBRANCH   1   4
BRANCH   2  19
ATOM     19  C   LIG A   1      -7.994  -2.774 129.814  0.00  0.00    +0.034 C 
BRANCH  19  20
ATOM     20  C   LIG A   1      -8.296  -2.855 128.287  0.00  0.00    +0.032 C 
BRANCH  20  21
ATOM     21  C   LIG A   1      -7.240  -2.286 127.351  0.00  0.00    -0.016 C 
ATOM     22  C   LIG A   1      -7.400  -1.279 126.404  0.00  0.00    +0.033 C 
BRANCH  22  23
ATOM     23  C   LIG A   1      -8.622  -0.377 126.300  0.00  0.00    +0.333 C 
ATOM     24  O   LIG A   1      -9.492  -0.391 125.516  0.00  0.00    -0.245 OA
BRANCH  23  25
ATOM     25  O   LIG A   1      -8.460   0.618 127.321  0.00  0.00    -0.477 OA
ATOM     26  H   LIG A   1      -8.688   0.211 128.190  0.00  0.00    +0.295 HD
ENDBRANCH  23  25
ENDBRANCH  22  23
BRANCH  22  27
ATOM     27  C   LIG A   1      -6.210  -0.725 125.573  0.00  0.00    +0.046 C 
BRANCH  27  28
ATOM     28  C   LIG A   1      -6.044  -1.227 124.136  0.00  0.00    +0.032 C 
BRANCH  28  29
ATOM     29  C   LIG A   1      -5.115  -2.345 123.836  0.00  0.00    -0.028 C 
ATOM     30  C   LIG A   1      -5.448  -3.641 123.944  0.00  0.00    -0.080 C 
ATOM     31  C   LIG A   1      -6.791  -4.165 124.394  0.00  0.00    +0.038 C 
ATOM     32  C   LIG A   1      -4.400  -4.671 123.674  0.00  0.00    +0.038 C 
ENDBRANCH  28  29
ENDBRANCH  27  28
ENDBRANCH  22  27
ENDBRANCH  20  21
ENDBRANCH  19  20
ENDBRANCH   2  19
TORSDOF 13
ENDMDL
MODEL 6
REMARK VINA RESULT:      -7.6      2.037      2.878
REMARK  Name = NuBBE_183
REMARK  18 active torsions:
REMARK  status: ('A' for Active; 'I' for Inactive)
REMARK    1  A    between atoms: C_1  and  C_2
REMARK    2  A    between atoms: C_2  and  C_3
REMARK    3  A    between atoms: C_3  and  C_4
REMARK    4  A    between atoms: C_4  and  C_5
REMARK    5  A    between atoms: C_6  and  C_7
REMARK    6  A    between atoms: C_6  and  C_20
REMARK    7  A    between atoms: C_7  and  C_8
REMARK    8  A    between atoms: C_8  and  C_9
REMARK    9  A    between atoms: C_10  and  C_11
REMARK   10  A    between atoms: C_10  and  C_14
REMARK   11  A    between atoms: C_11  and  O_12
REMARK   12  A    between atoms: C_14  and  C_15
REMARK   13  A    between atoms: C_15  and  C_16
REMARK   14  A    between atoms: C_17  and  C_18
REMARK   15  A    between atoms: C_17  and  C_19
REMARK   16  A    between atoms: C_21  and  C_22
REMARK   17  A    between atoms: C_22  and  C_23
REMARK   18  A    between atoms: C_27  and  C_28
REMARK                            x       y       z     vdW  Elec       q    Type
REMARK                         _______ _______ _______ _____ _____    ______ ____
ROOT
ATOM      1  C   LIG A   1      -8.237   0.870 129.806  0.00  0.00    -0.027 C 
ATOM      2  C   LIG A   1      -7.254   0.470 128.984  0.00  0.00    -0.076 C 
ATOM      3  C   LIG A   1      -5.873   0.232 129.529  0.00  0.00    +0.038 C 
ENDROOT
BRANCH   1   4
ATOM      4  C   LIG A   1      -8.215   1.123 131.283  0.00  0.00    +0.031 C 
BRANCH   4   5
ATOM      5  C   LIG A   1      -9.537   1.756 131.795  0.00  0.00    +0.034 C 
BRANCH   5   7
ATOM      6  C   LIG A   1     -10.557   3.490 130.346  0.00  0.00    +0.038 C 
ATOM      7  C   LIG A   1      -9.723   3.239 131.549  0.00  0.00    -0.076 C 
ATOM      8  C   LIG A   1      -9.147   4.180 132.336  0.00  0.00    -0.023 C 
BRANCH   8   9
ATOM      9  C   LIG A   1      -9.041   5.686 132.160  0.00  0.00    +0.066 C 
BRANCH   9  10
ATOM     10  C   LIG A   1     -10.138   6.409 131.480  0.00  0.00    +0.007 C 
ATOM     11  C   LIG A   1     -11.387   6.422 131.946  0.00  0.00    +0.058 C 
ATOM     12  C   LIG A   1     -12.430   7.181 131.258  0.00  0.00    +0.180 C 
ATOM     13  C   LIG A   1     -12.097   7.727 129.927  0.00  0.00    +0.058 C 
ATOM     14  C   LIG A   1     -10.845   7.741 129.450  0.00  0.00    +0.000 C 
ATOM     15  C   LIG A   1     -10.464   8.213 128.082  0.00  0.00    +0.048 C 
ATOM     16  C   LIG A   1      -9.745   7.229 130.296  0.00  0.00    +0.185 C 
ATOM     17  O   LIG A   1      -8.574   7.466 130.009  0.00  0.00    -0.287 OA
ATOM     18  O   LIG A   1     -13.540   7.305 131.752  0.00  0.00    -0.288 OA
ENDBRANCH   9  10
ENDBRANCH   8   9
ENDBRANCH   5   7
ENDBRANCH   4   5
ENDBRANCH   1   4
BRANCH   2  19
ATOM     19  C   LIG A   1      -7.486   0.214 127.490  0.00  0.00    +0.034 C 
BRANCH  19  20
ATOM     20  C   LIG A   1      -8.766   0.773 126.799  0.00  0.00    +0.032 C 
BRANCH  20  21
ATOM     21  C   LIG A   1      -9.186   0.107 125.498  0.00  0.00    -0.016 C 
ATOM     22  C   LIG A   1      -9.211   0.672 124.226  0.00  0.00    +0.033 C 
BRANCH  22  23
ATOM     23  C   LIG A   1      -8.580   2.008 123.861  0.00  0.00    +0.333 C 
ATOM     24  O   LIG A   1      -7.596   2.228 123.265  0.00  0.00    -0.245 OA
BRANCH  23  25
ATOM     25  O   LIG A   1      -9.386   3.008 124.502  0.00  0.00    -0.477 OA
ATOM     26  H   LIG A   1     -10.156   3.206 123.919  0.00  0.00    +0.295 HD
ENDBRANCH  23  25
ENDBRANCH  22  23
BRANCH  22  27
ATOM     27  C   LIG A   1      -9.576  -0.151 122.960  0.00  0.00    +0.046 C 
BRANCH  27  28
ATOM     28  C   LIG A   1      -9.022  -1.574 122.846  0.00  0.00    +0.032 C 
BRANCH  28  29
ATOM     29  C   LIG A   1      -7.557  -1.810 122.861  0.00  0.00    -0.028 C 
ATOM     30  C   LIG A   1      -6.948  -2.670 123.693  0.00  0.00    -0.080 C 
ATOM     31  C   LIG A   1      -7.638  -3.511 124.741  0.00  0.00    +0.038 C 
ATOM     32  C   LIG A   1      -5.458  -2.768 123.650  0.00  0.00    +0.038 C 
ENDBRANCH  28  29
ENDBRANCH  27  28
ENDBRANCH  22  27
ENDBRANCH  20  21
ENDBRANCH  19  20
ENDBRANCH   2  19
TORSDOF 13
ENDMDL
MODEL 7
REMARK VINA RESULT:      -7.5      2.984      4.788
REMARK  Name = NuBBE_183
REMARK  18 active torsions:
REMARK  status: ('A' for Active; 'I' for Inactive)
REMARK    1  A    between atoms: C_1  and  C_2
REMARK    2  A    between atoms: C_2  and  C_3
REMARK    3  A    between atoms: C_3  and  C_4
REMARK    4  A    between atoms: C_4  and  C_5
REMARK    5  A    between atoms: C_6  and  C_7
REMARK    6  A    between atoms: C_6  and  C_20
REMARK    7  A    between atoms: C_7  and  C_8
REMARK    8  A    between atoms: C_8  and  C_9
REMARK    9  A    between atoms: C_10  and  C_11
REMARK   10  A    between atoms: C_10  and  C_14
REMARK   11  A    between atoms: C_11  and  O_12
REMARK   12  A    between atoms: C_14  and  C_15
REMARK   13  A    between atoms: C_15  and  C_16
REMARK   14  A    between atoms: C_17  and  C_18
REMARK   15  A    between atoms: C_17  and  C_19
REMARK   16  A    between atoms: C_21  and  C_22
REMARK   17  A    between atoms: C_22  and  C_23
REMARK   18  A    between atoms: C_27  and  C_28
REMARK                            x       y       z     vdW  Elec       q    Type
REMARK                         _______ _______ _______ _____ _____    ______ ____
ROOT
ATOM      1  C   LIG A   1      -9.138   1.797 131.038  0.00  0.00    -0.027 C 
ATOM      2  C   LIG A   1      -8.363   0.792 130.601  0.00  0.00    -0.076 C 
ATOM      3  C   LIG A   1      -7.938  -0.294 131.551  0.00  0.00    +0.038 C 
ENDROOT
BRANCH   1   4
ATOM      4  C   LIG A   1      -9.719   2.045 132.398  0.00  0.00    +0.031 C 
BRANCH   4   5
ATOM      5  C   LIG A   1      -8.872   3.044 133.230  0.00  0.00    +0.034 C 
BRANCH   5   7
ATOM      6  C   LIG A   1      -8.246   5.366 133.831  0.00  0.00    +0.038 C 
ATOM      7  C   LIG A   1      -9.155   4.518 133.019  0.00  0.00    -0.076 C 
ATOM      8  C   LIG A   1     -10.150   4.954 132.209  0.00  0.00    -0.023 C 
BRANCH   8   9
ATOM      9  C   LIG A   1     -10.722   6.349 132.010  0.00  0.00    +0.066 C 
BRANCH   9  10
ATOM     10  C   LIG A   1     -10.913   6.857 130.635  0.00  0.00    +0.007 C 
ATOM     11  C   LIG A   1     -10.141   6.482 129.615  0.00  0.00    +0.058 C 
ATOM     12  C   LIG A   1     -10.392   6.985 128.266  0.00  0.00    +0.180 C 
ATOM     13  C   LIG A   1     -11.371   8.082 128.129  0.00  0.00    +0.058 C 
ATOM     14  C   LIG A   1     -12.171   8.460 129.136  0.00  0.00    +0.000 C 
ATOM     15  C   LIG A   1     -13.125   9.611 129.074  0.00  0.00    +0.048 C 
ATOM     16  C   LIG A   1     -12.105   7.732 130.422  0.00  0.00    +0.185 C 
ATOM     17  O   LIG A   1     -12.990   7.869 131.263  0.00  0.00    -0.287 OA
ATOM     18  O   LIG A   1      -9.774   6.543 127.310  0.00  0.00    -0.288 OA
ENDBRANCH   9  10
ENDBRANCH   8   9
ENDBRANCH   5   7
ENDBRANCH   4   5
ENDBRANCH   1   4
BRANCH   2  19
ATOM     19  C   LIG A   1      -7.904   0.683 129.142  0.00  0.00    +0.034 C 
BRANCH  19  20
ATOM     20  C   LIG A   1      -8.570   1.579 128.054  0.00  0.00    +0.032 C 
BRANCH  20  21
ATOM     21  C   LIG A   1      -7.834   1.705 126.729  0.00  0.00    -0.016 C 
ATOM     22  C   LIG A   1      -8.191   1.150 125.505  0.00  0.00    +0.033 C 
BRANCH  22  23
ATOM     23  C   LIG A   1      -9.537   0.506 125.207  0.00  0.00    +0.333 C 
ATOM     24  O   LIG A   1     -10.518   0.991 124.789  0.00  0.00    -0.245 OA
BRANCH  23  25
ATOM     25  O   LIG A   1      -9.426  -0.854 125.653  0.00  0.00    -0.477 OA
ATOM     26  H   LIG A   1     -10.043  -0.983 126.411  0.00  0.00    +0.295 HD
ENDBRANCH  23  25
ENDBRANCH  22  23
BRANCH  22  27
ATOM     27  C   LIG A   1      -7.394   1.435 124.201  0.00  0.00    +0.046 C 
BRANCH  27  28
ATOM     28  C   LIG A   1      -7.432   2.856 123.633  0.00  0.00    +0.032 C 
BRANCH  28  29
ATOM     29  C   LIG A   1      -8.330   3.185 122.499  0.00  0.00    -0.028 C 
ATOM     30  C   LIG A   1      -7.894   3.585 121.293  0.00  0.00    -0.080 C 
ATOM     31  C   LIG A   1      -6.447   3.778 120.907  0.00  0.00    +0.038 C 
ATOM     32  C   LIG A   1      -8.904   3.947 120.254  0.00  0.00    +0.038 C 
ENDBRANCH  28  29
ENDBRANCH  27  28
ENDBRANCH  22  27
ENDBRANCH  20  21
ENDBRANCH  19  20
ENDBRANCH   2  19
TORSDOF 13
ENDMDL
MODEL 8
REMARK VINA RESULT:      -7.5      3.625      7.336
REMARK  Name = NuBBE_183
REMARK  18 active torsions:
REMARK  status: ('A' for Active; 'I' for Inactive)
REMARK    1  A    between atoms: C_1  and  C_2
REMARK    2  A    between atoms: C_2  and  C_3
REMARK    3  A    between atoms: C_3  and  C_4
REMARK    4  A    between atoms: C_4  and  C_5
REMARK    5  A    between atoms: C_6  and  C_7
REMARK    6  A    between atoms: C_6  and  C_20
REMARK    7  A    between atoms: C_7  and  C_8
REMARK    8  A    between atoms: C_8  and  C_9
REMARK    9  A    between atoms: C_10  and  C_11
REMARK   10  A    between atoms: C_10  and  C_14
REMARK   11  A    between atoms: C_11  and  O_12
REMARK   12  A    between atoms: C_14  and  C_15
REMARK   13  A    between atoms: C_15  and  C_16
REMARK   14  A    between atoms: C_17  and  C_18
REMARK   15  A    between atoms: C_17  and  C_19
REMARK   16  A    between atoms: C_21  and  C_22
REMARK   17  A    between atoms: C_22  and  C_23
REMARK   18  A    between atoms: C_27  and  C_28
REMARK                            x       y       z     vdW  Elec       q    Type
REMARK                         _______ _______ _______ _____ _____    ______ ____
ROOT
ATOM      1  C   LIG A   1      -5.654  -2.369 125.307  0.00  0.00    -0.027 C 
ATOM      2  C   LIG A   1      -6.603  -2.247 126.248  0.00  0.00    -0.076 C 
ATOM      3  C   LIG A   1      -7.861  -3.066 126.153  0.00  0.00    +0.038 C 
ENDROOT
BRANCH   1   4
ATOM      4  C   LIG A   1      -5.604  -3.252 124.097  0.00  0.00    +0.031 C 
BRANCH   4   5
ATOM      5  C   LIG A   1      -6.015  -2.504 122.801  0.00  0.00    +0.034 C 
BRANCH   5   7
ATOM      6  C   LIG A   1      -8.445  -2.078 122.570  0.00  0.00    +0.038 C 
ATOM      7  C   LIG A   1      -7.131  -1.487 122.926  0.00  0.00    -0.076 C 
ATOM      8  C   LIG A   1      -6.899  -0.200 123.283  0.00  0.00    -0.023 C 
BRANCH   8   9
ATOM      9  C   LIG A   1      -7.821   1.008 123.279  0.00  0.00    +0.066 C 
BRANCH   9  10
ATOM     10  C   LIG A   1      -7.291   2.318 123.715  0.00  0.00    +0.007 C 
ATOM     11  C   LIG A   1      -6.341   2.969 123.045  0.00  0.00    +0.058 C 
ATOM     12  C   LIG A   1      -5.876   4.279 123.497  0.00  0.00    +0.180 C 
ATOM     13  C   LIG A   1      -6.328   4.731 124.827  0.00  0.00    +0.058 C 
ATOM     14  C   LIG A   1      -7.296   4.102 125.508  0.00  0.00    +0.000 C 
ATOM     15  C   LIG A   1      -7.740   4.472 126.889  0.00  0.00    +0.048 C 
ATOM     16  C   LIG A   1      -7.968   2.935 124.895  0.00  0.00    +0.185 C 
ATOM     17  O   LIG A   1      -9.020   2.505 125.360  0.00  0.00    -0.287 OA
ATOM     18  O   LIG A   1      -5.105   4.936 122.815  0.00  0.00    -0.288 OA
ENDBRANCH   9  10
ENDBRANCH   8   9
ENDBRANCH   5   7
ENDBRANCH   4   5
ENDBRANCH   1   4
BRANCH   2  19
ATOM     19  C   LIG A   1      -6.450  -1.313 127.455  0.00  0.00    +0.034 C 
BRANCH  19  20
ATOM     20  C   LIG A   1      -6.718   0.213 127.289  0.00  0.00    +0.032 C 
BRANCH  20  21
ATOM     21  C   LIG A   1      -5.586   1.046 126.706  0.00  0.00    -0.016 C 
ATOM     22  C   LIG A   1      -4.761   1.942 127.378  0.00  0.00    +0.033 C 
BRANCH  22  23
ATOM     23  C   LIG A   1      -4.677   2.073 128.892  0.00  0.00    +0.333 C 
ATOM     24  O   LIG A   1      -5.200   2.844 129.603  0.00  0.00    -0.245 OA
BRANCH  23  25
ATOM     25  O   LIG A   1      -3.709   1.101 129.314  0.00  0.00    -0.477 OA
ATOM     26  H   LIG A   1      -3.099   1.530 129.959  0.00  0.00    +0.295 HD
ENDBRANCH  23  25
ENDBRANCH  22  23
BRANCH  22  27
ATOM     27  C   LIG A   1      -3.576   2.663 126.677  0.00  0.00    +0.046 C 
BRANCH  27  28
ATOM     28  C   LIG A   1      -3.429   4.173 126.889  0.00  0.00    +0.032 C 
BRANCH  28  29
ATOM     29  C   LIG A   1      -2.580   4.695 127.988  0.00  0.00    -0.028 C 
ATOM     30  C   LIG A   1      -2.711   5.923 128.514  0.00  0.00    -0.080 C 
ATOM     31  C   LIG A   1      -3.715   6.961 128.071  0.00  0.00    +0.038 C 
ATOM     32  C   LIG A   1      -1.750   6.351 129.574  0.00  0.00    +0.038 C 
ENDBRANCH  28  29
ENDBRANCH  27  28
ENDBRANCH  22  27
ENDBRANCH  20  21
ENDBRANCH  19  20
ENDBRANCH   2  19
TORSDOF 13
ENDMDL
MODEL 9
REMARK VINA RESULT:      -7.5      1.771      3.027
REMARK  Name = NuBBE_183
REMARK  18 active torsions:
REMARK  status: ('A' for Active; 'I' for Inactive)
REMARK    1  A    between atoms: C_1  and  C_2
REMARK    2  A    between atoms: C_2  and  C_3
REMARK    3  A    between atoms: C_3  and  C_4
REMARK    4  A    between atoms: C_4  and  C_5
REMARK    5  A    between atoms: C_6  and  C_7
REMARK    6  A    between atoms: C_6  and  C_20
REMARK    7  A    between atoms: C_7  and  C_8
REMARK    8  A    between atoms: C_8  and  C_9
REMARK    9  A    between atoms: C_10  and  C_11
REMARK   10  A    between atoms: C_10  and  C_14
REMARK   11  A    between atoms: C_11  and  O_12
REMARK   12  A    between atoms: C_14  and  C_15
REMARK   13  A    between atoms: C_15  and  C_16
REMARK   14  A    between atoms: C_17  and  C_18
REMARK   15  A    between atoms: C_17  and  C_19
REMARK   16  A    between atoms: C_21  and  C_22
REMARK   17  A    between atoms: C_22  and  C_23
REMARK   18  A    between atoms: C_27  and  C_28
REMARK                            x       y       z     vdW  Elec       q    Type
REMARK                         _______ _______ _______ _____ _____    ______ ____
ROOT
ATOM      1  C   LIG A   1      -8.448  -0.645 130.943  0.00  0.00    -0.027 C 
ATOM      2  C   LIG A   1      -7.537  -1.583 130.642  0.00  0.00    -0.076 C 
ATOM      3  C   LIG A   1      -6.179  -1.545 131.288  0.00  0.00    +0.038 C 
ENDROOT
BRANCH   1   4
ATOM      4  C   LIG A   1      -8.362   0.512 131.893  0.00  0.00    +0.031 C 
BRANCH   4   5
ATOM      5  C   LIG A   1      -9.603   1.441 131.807  0.00  0.00    +0.034 C 
BRANCH   5   7
ATOM      6  C   LIG A   1      -9.215   3.434 133.229  0.00  0.00    +0.038 C 
ATOM      7  C   LIG A   1      -9.341   2.933 131.837  0.00  0.00    -0.076 C 
ATOM      8  C   LIG A   1      -9.278   3.679 130.707  0.00  0.00    -0.023 C 
BRANCH   8   9
ATOM      9  C   LIG A   1      -9.224   5.186 130.520  0.00  0.00    +0.066 C 
BRANCH   9  10
ATOM     10  C   LIG A   1     -10.480   5.924 130.264  0.00  0.00    +0.007 C 
ATOM     11  C   LIG A   1     -11.363   6.194 131.224  0.00  0.00    +0.058 C 
ATOM     12  C   LIG A   1     -12.574   6.958 130.928  0.00  0.00    +0.180 C 
ATOM     13  C   LIG A   1     -12.880   7.208 129.506  0.00  0.00    +0.058 C 
ATOM     14  C   LIG A   1     -11.998   6.962 128.527  0.00  0.00    +0.000 C 
ATOM     15  C   LIG A   1     -12.283   7.125 127.068  0.00  0.00    +0.048 C 
ATOM     16  C   LIG A   1     -10.652   6.458 128.880  0.00  0.00    +0.185 C 
ATOM     17  O   LIG A   1      -9.743   6.474 128.054  0.00  0.00    -0.287 OA
ATOM     18  O   LIG A   1     -13.317   7.322 131.826  0.00  0.00    -0.288 OA
ENDBRANCH   9  10
ENDBRANCH   8   9
ENDBRANCH   5   7
ENDBRANCH   4   5
ENDBRANCH   1   4
BRANCH   2  19
ATOM     19  C   LIG A   1      -7.831  -2.733 129.670  0.00  0.00    +0.034 C 
BRANCH  19  20
ATOM     20  C   LIG A   1      -8.409  -2.420 128.257  0.00  0.00    +0.032 C 
BRANCH  20  21
ATOM     21  C   LIG A   1      -7.538  -2.793 127.066  0.00  0.00    -0.016 C 
ATOM     22  C   LIG A   1      -6.583  -2.004 126.434  0.00  0.00    +0.033 C 
BRANCH  22  23
ATOM     23  C   LIG A   1      -6.049  -0.688 126.981  0.00  0.00    +0.333 C 
ATOM     24  O   LIG A   1      -5.304  -0.496 127.864  0.00  0.00    -0.245 OA
BRANCH  23  25
ATOM     25  O   LIG A   1      -6.739   0.342 126.257  0.00  0.00    -0.477 OA
ATOM     26  H   LIG A   1      -6.594   1.199 126.724  0.00  0.00    +0.295 HD
ENDBRANCH  23  25
ENDBRANCH  22  23
BRANCH  22  27
ATOM     27  C   LIG A   1      -5.694  -2.544 125.279  0.00  0.00    +0.046 C 
BRANCH  27  28
ATOM     28  C   LIG A   1      -6.357  -2.797 123.922  0.00  0.00    +0.032 C 
BRANCH  28  29
ATOM     29  C   LIG A   1      -7.323  -1.817 123.367  0.00  0.00    -0.028 C 
ATOM     30  C   LIG A   1      -8.644  -2.041 123.276  0.00  0.00    -0.080 C 
ATOM     31  C   LIG A   1      -9.348  -3.308 123.699  0.00  0.00    +0.038 C 
ATOM     32  C   LIG A   1      -9.501  -0.997 122.638  0.00  0.00    +0.038 C 
ENDBRANCH  28  29
ENDBRANCH  27  28
ENDBRANCH  22  27
ENDBRANCH  20  21
ENDBRANCH  19  20
ENDBRANCH   2  19
TORSDOF 13
ENDMDL
