MODEL 1
REMARK VINA RESULT:      -6.9      0.000      0.000
REMARK  Name = NuBBE_2267
REMARK  4 active torsions:
REMARK  status: ('A' for Active; 'I' for Inactive)
REMARK    1  A    between atoms: C_2  and  C_15
REMARK    2  A    between atoms: C_9  and  C_14
REMARK    3  A    between atoms: C_12  and  C_13
REMARK    4  A    between atoms: C_15  and  C_17
REMARK                            x       y       z     vdW  Elec       q    Type
REMARK                         _______ _______ _______ _____ _____    ______ ____
ROOT
ATOM      1  C   LIG A   1      -5.813   3.560 123.016  0.00  0.00    +0.021 C 
ATOM      2  C   LIG A   1      -6.694   3.133 123.937  0.00  0.00    +0.029 C 
ATOM      3  C   LIG A   1      -8.134   3.089 123.557  0.00  0.00    +0.233 C 
ATOM      4  O   LIG A   1      -9.046   3.057 124.371  0.00  0.00    -0.283 OA
ATOM      5  C   LIG A   1      -8.436   3.073 122.070  0.00  0.00    +0.234 C 
ATOM      6  O   LIG A   1      -9.419   2.472 121.663  0.00  0.00    -0.283 OA
ATOM      7  C   LIG A   1      -7.486   3.775 121.171  0.00  0.00    +0.036 A 
ATOM      8  C   LIG A   1      -6.185   4.018 121.665  0.00  0.00    -0.010 A 
ATOM      9  C   LIG A   1      -5.246   4.677 120.839  0.00  0.00    -0.043 A 
ATOM     10  C   LIG A   1      -5.623   5.062 119.545  0.00  0.00    +0.004 A 
ATOM     11  C   LIG A   1      -6.908   4.814 119.067  0.00  0.00    +0.004 A 
ATOM     12  C   LIG A   1      -7.860   4.176 119.870  0.00  0.00    -0.039 A 
ATOM     13  C   LIG A   1      -9.235   3.941 119.303  0.00  0.00    +0.044 C 
ATOM     14  C   LIG A   1      -3.840   4.981 121.288  0.00  0.00    +0.044 C 
ENDROOT
BRANCH   2  15
ATOM     15  C   LIG A   1      -6.269   2.737 125.275  0.00  0.00    -0.047 C 
ATOM     16  C   LIG A   1      -6.160   1.443 125.620  0.00  0.00    +0.012 C 
ATOM     17  C   LIG A   1      -5.932   3.845 126.234  0.00  0.00    +0.044 C 
ENDBRANCH   2  15
TORSDOF 1
ENDMDL
MODEL 2
REMARK VINA RESULT:      -6.5      5.127      8.659
REMARK  Name = NuBBE_2267
REMARK  4 active torsions:
REMARK  status: ('A' for Active; 'I' for Inactive)
REMARK    1  A    between atoms: C_2  and  C_15
REMARK    2  A    between atoms: C_9  and  C_14
REMARK    3  A    between atoms: C_12  and  C_13
REMARK    4  A    between atoms: C_15  and  C_17
REMARK                            x       y       z     vdW  Elec       q    Type
REMARK                         _______ _______ _______ _____ _____    ______ ____
ROOT
ATOM      1  C   LIG A   1      -6.591  -1.649 125.820  0.00  0.00    +0.021 C 
ATOM      2  C   LIG A   1      -7.191  -1.831 124.632  0.00  0.00    +0.029 C 
ATOM      3  C   LIG A   1      -8.370  -2.740 124.577  0.00  0.00    +0.233 C 
ATOM      4  O   LIG A   1      -8.781  -3.252 123.545  0.00  0.00    -0.283 OA
ATOM      5  C   LIG A   1      -9.073  -3.007 125.895  0.00  0.00    +0.234 C 
ATOM      6  O   LIG A   1     -10.279  -3.198 125.904  0.00  0.00    -0.283 OA
ATOM      7  C   LIG A   1      -8.246  -2.991 127.128  0.00  0.00    +0.036 A 
ATOM      8  C   LIG A   1      -7.005  -2.317 127.068  0.00  0.00    -0.010 A 
ATOM      9  C   LIG A   1      -6.190  -2.270 128.220  0.00  0.00    -0.043 A 
ATOM     10  C   LIG A   1      -6.636  -2.881 129.400  0.00  0.00    +0.004 A 
ATOM     11  C   LIG A   1      -7.862  -3.540 129.449  0.00  0.00    +0.004 A 
ATOM     12  C   LIG A   1      -8.682  -3.612 128.318  0.00  0.00    -0.039 A 
ATOM     13  C   LIG A   1      -9.993  -4.344 128.428  0.00  0.00    +0.044 C 
ATOM     14  C   LIG A   1      -4.851  -1.578 128.242  0.00  0.00    +0.044 C 
ENDROOT
BRANCH   2  15
ATOM     15  C   LIG A   1      -6.703  -1.179 123.422  0.00  0.00    -0.047 C 
ATOM     16  C   LIG A   1      -6.032  -1.862 122.479  0.00  0.00    +0.012 C 
ATOM     17  C   LIG A   1      -7.014   0.285 123.270  0.00  0.00    +0.044 C 
ENDBRANCH   2  15
TORSDOF 1
ENDMDL
MODEL 3
REMARK VINA RESULT:      -6.4      7.238      9.627
REMARK  Name = NuBBE_2267
REMARK  4 active torsions:
REMARK  status: ('A' for Active; 'I' for Inactive)
REMARK    1  A    between atoms: C_2  and  C_15
REMARK    2  A    between atoms: C_9  and  C_14
REMARK    3  A    between atoms: C_12  and  C_13
REMARK    4  A    between atoms: C_15  and  C_17
REMARK                            x       y       z     vdW  Elec       q    Type
REMARK                         _______ _______ _______ _____ _____    ______ ____
ROOT
ATOM      1  C   LIG A   1     -10.679   6.419 131.620  0.00  0.00    +0.021 C 
ATOM      2  C   LIG A   1      -9.809   5.397 131.579  0.00  0.00    +0.029 C 
ATOM      3  C   LIG A   1      -9.432   4.853 130.244  0.00  0.00    +0.233 C 
ATOM      4  O   LIG A   1      -8.944   3.745 130.078  0.00  0.00    -0.283 OA
ATOM      5  C   LIG A   1      -9.676   5.766 129.055  0.00  0.00    +0.234 C 
ATOM      6  O   LIG A   1      -8.925   5.712 128.093  0.00  0.00    -0.283 OA
ATOM      7  C   LIG A   1     -10.817   6.712 129.141  0.00  0.00    +0.036 A 
ATOM      8  C   LIG A   1     -11.310   7.018 130.429  0.00  0.00    -0.010 A 
ATOM      9  C   LIG A   1     -12.390   7.920 130.557  0.00  0.00    -0.043 A 
ATOM     10  C   LIG A   1     -12.938   8.500 129.405  0.00  0.00    +0.004 A 
ATOM     11  C   LIG A   1     -12.441   8.194 128.140  0.00  0.00    +0.004 A 
ATOM     12  C   LIG A   1     -11.381   7.293 127.985  0.00  0.00    -0.039 A 
ATOM     13  C   LIG A   1     -10.892   6.995 126.593  0.00  0.00    +0.044 C 
ATOM     14  C   LIG A   1     -12.981   8.297 131.891  0.00  0.00    +0.044 C 
ENDROOT
BRANCH   2  15
ATOM     15  C   LIG A   1      -9.254   4.816 132.797  0.00  0.00    -0.047 C 
ATOM     16  C   LIG A   1      -9.634   3.602 133.229  0.00  0.00    +0.012 C 
ATOM     17  C   LIG A   1      -8.218   5.628 133.524  0.00  0.00    +0.044 C 
ENDBRANCH   2  15
TORSDOF 1
ENDMDL
MODEL 4
REMARK VINA RESULT:      -6.3      4.541      6.972
REMARK  Name = NuBBE_2267
REMARK  4 active torsions:
REMARK  status: ('A' for Active; 'I' for Inactive)
REMARK    1  A    between atoms: C_2  and  C_15
REMARK    2  A    between atoms: C_9  and  C_14
REMARK    3  A    between atoms: C_12  and  C_13
REMARK    4  A    between atoms: C_15  and  C_17
REMARK                            x       y       z     vdW  Elec       q    Type
REMARK                         _______ _______ _______ _____ _____    ______ ____
ROOT
ATOM      1  C   LIG A   1      -5.331  -2.899 126.452  0.00  0.00    +0.021 C 
ATOM      2  C   LIG A   1      -5.422  -2.233 127.616  0.00  0.00    +0.029 C 
ATOM      3  C   LIG A   1      -5.962  -0.845 127.585  0.00  0.00    +0.233 C 
ATOM      4  O   LIG A   1      -5.781  -0.029 128.478  0.00  0.00    -0.283 OA
ATOM      5  C   LIG A   1      -6.784  -0.472 126.364  0.00  0.00    +0.234 C 
ATOM      6  O   LIG A   1      -7.705   0.322 126.480  0.00  0.00    -0.283 OA
ATOM      7  C   LIG A   1      -6.437  -1.128 125.078  0.00  0.00    +0.036 A 
ATOM      8  C   LIG A   1      -5.702  -2.333 125.143  0.00  0.00    -0.010 A 
ATOM      9  C   LIG A   1      -5.357  -2.995 123.943  0.00  0.00    -0.043 A 
ATOM     10  C   LIG A   1      -5.762  -2.448 122.718  0.00  0.00    +0.004 A 
ATOM     11  C   LIG A   1      -6.490  -1.260 122.666  0.00  0.00    +0.004 A 
ATOM     12  C   LIG A   1      -6.832  -0.578 123.840  0.00  0.00    -0.039 A 
ATOM     13  C   LIG A   1      -7.611   0.704 123.722  0.00  0.00    +0.044 C 
ATOM     14  C   LIG A   1      -4.572  -4.280 123.920  0.00  0.00    +0.044 C 
ENDROOT
BRANCH   2  15
ATOM     15  C   LIG A   1      -4.993  -2.832 128.875  0.00  0.00    -0.047 C 
ATOM     16  C   LIG A   1      -3.692  -2.944 129.189  0.00  0.00    +0.012 C 
ATOM     17  C   LIG A   1      -6.078  -3.288 129.812  0.00  0.00    +0.044 C 
ENDBRANCH   2  15
TORSDOF 1
ENDMDL
MODEL 5
REMARK VINA RESULT:      -6.2      2.222      5.715
REMARK  Name = NuBBE_2267
REMARK  4 active torsions:
REMARK  status: ('A' for Active; 'I' for Inactive)
REMARK    1  A    between atoms: C_2  and  C_15
REMARK    2  A    between atoms: C_9  and  C_14
REMARK    3  A    between atoms: C_12  and  C_13
REMARK    4  A    between atoms: C_15  and  C_17
REMARK                            x       y       z     vdW  Elec       q    Type
REMARK                         _______ _______ _______ _____ _____    ______ ____
ROOT
ATOM      1  C   LIG A   1      -7.686   2.396 122.528  0.00  0.00    +0.021 C 
ATOM      2  C   LIG A   1      -6.731   3.330 122.388  0.00  0.00    +0.029 C 
ATOM      3  C   LIG A   1      -6.137   3.913 123.624  0.00  0.00    +0.233 C 
ATOM      4  O   LIG A   1      -5.536   4.977 123.648  0.00  0.00    -0.283 OA
ATOM      5  C   LIG A   1      -6.305   3.101 124.895  0.00  0.00    +0.234 C 
ATOM      6  O   LIG A   1      -5.434   3.139 125.751  0.00  0.00    -0.283 OA
ATOM      7  C   LIG A   1      -7.527   2.267 125.019  0.00  0.00    +0.036 A 
ATOM      8  C   LIG A   1      -8.208   1.934 123.827  0.00  0.00    -0.010 A 
ATOM      9  C   LIG A   1      -9.371   1.135 123.898  0.00  0.00    -0.043 A 
ATOM     10  C   LIG A   1      -9.815   0.680 125.147  0.00  0.00    +0.004 A 
ATOM     11  C   LIG A   1      -9.133   1.011 126.316  0.00  0.00    +0.004 A 
ATOM     12  C   LIG A   1      -7.987   1.813 126.274  0.00  0.00    -0.039 A 
ATOM     13  C   LIG A   1      -7.296   2.145 127.570  0.00  0.00    +0.044 C 
ATOM     14  C   LIG A   1     -10.161   0.737 122.678  0.00  0.00    +0.044 C 
ENDROOT
BRANCH   2  15
ATOM     15  C   LIG A   1      -6.289   3.781 121.072  0.00  0.00    -0.047 C 
ATOM     16  C   LIG A   1      -4.985   3.896 120.773  0.00  0.00    +0.012 C 
ATOM     17  C   LIG A   1      -7.364   4.080 120.063  0.00  0.00    +0.044 C 
ENDBRANCH   2  15
TORSDOF 1
ENDMDL
MODEL 6
REMARK VINA RESULT:      -6.2      5.582      7.975
REMARK  Name = NuBBE_2267
REMARK  4 active torsions:
REMARK  status: ('A' for Active; 'I' for Inactive)
REMARK    1  A    between atoms: C_2  and  C_15
REMARK    2  A    between atoms: C_9  and  C_14
REMARK    3  A    between atoms: C_12  and  C_13
REMARK    4  A    between atoms: C_15  and  C_17
REMARK                            x       y       z     vdW  Elec       q    Type
REMARK                         _______ _______ _______ _____ _____    ______ ____
ROOT
ATOM      1  C   LIG A   1      -7.960  -1.867 126.315  0.00  0.00    +0.021 C 
ATOM      2  C   LIG A   1      -8.519  -1.428 125.174  0.00  0.00    +0.029 C 
ATOM      3  C   LIG A   1      -9.129  -0.068 125.174  0.00  0.00    +0.233 C 
ATOM      4  O   LIG A   1      -9.947   0.305 124.346  0.00  0.00    -0.283 OA
ATOM      5  C   LIG A   1      -8.670   0.873 126.273  0.00  0.00    +0.234 C 
ATOM      6  O   LIG A   1      -8.613   2.072 126.051  0.00  0.00    -0.283 OA
ATOM      7  C   LIG A   1      -8.281   0.269 127.573  0.00  0.00    +0.036 A 
ATOM      8  C   LIG A   1      -7.940  -1.102 127.575  0.00  0.00    -0.010 A 
ATOM      9  C   LIG A   1      -7.556  -1.714 128.789  0.00  0.00    -0.043 A 
ATOM     10  C   LIG A   1      -7.509  -0.946 129.960  0.00  0.00    +0.004 A 
ATOM     11  C   LIG A   1      -7.845   0.407 129.945  0.00  0.00    +0.004 A 
ATOM     12  C   LIG A   1      -8.242   1.034 128.759  0.00  0.00    -0.039 A 
ATOM     13  C   LIG A   1      -8.599   2.495 128.806  0.00  0.00    +0.044 C 
ATOM     14  C   LIG A   1      -7.182  -3.171 128.882  0.00  0.00    +0.044 C 
ENDROOT
BRANCH   2  15
ATOM     15  C   LIG A   1      -8.550  -2.252 123.971  0.00  0.00    -0.047 C 
ATOM     16  C   LIG A   1      -9.437  -3.250 123.829  0.00  0.00    +0.012 C 
ATOM     17  C   LIG A   1      -7.561  -1.910 122.891  0.00  0.00    +0.044 C 
ENDBRANCH   2  15
TORSDOF 1
ENDMDL
MODEL 7
REMARK VINA RESULT:      -6.1      3.840      7.591
REMARK  Name = NuBBE_2267
REMARK  4 active torsions:
REMARK  status: ('A' for Active; 'I' for Inactive)
REMARK    1  A    between atoms: C_2  and  C_15
REMARK    2  A    between atoms: C_9  and  C_14
REMARK    3  A    between atoms: C_12  and  C_13
REMARK    4  A    between atoms: C_15  and  C_17
REMARK                            x       y       z     vdW  Elec       q    Type
REMARK                         _______ _______ _______ _____ _____    ______ ____
ROOT
ATOM      1  C   LIG A   1      -8.388  -0.475 124.470  0.00  0.00    +0.021 C 
ATOM      2  C   LIG A   1      -8.284   0.858 124.605  0.00  0.00    +0.029 C 
ATOM      3  C   LIG A   1      -8.156   1.412 125.982  0.00  0.00    +0.233 C 
ATOM      4  O   LIG A   1      -8.396   2.577 126.266  0.00  0.00    -0.283 OA
ATOM      5  C   LIG A   1      -7.689   0.444 127.054  0.00  0.00    +0.234 C 
ATOM      6  O   LIG A   1      -7.014   0.859 127.984  0.00  0.00    -0.283 OA
ATOM      7  C   LIG A   1      -8.061  -0.984 126.896  0.00  0.00    +0.036 A 
ATOM      8  C   LIG A   1      -8.416  -1.422 125.600  0.00  0.00    -0.010 A 
ATOM      9  C   LIG A   1      -8.769  -2.776 125.403  0.00  0.00    -0.043 A 
ATOM     10  C   LIG A   1      -8.745  -3.656 126.493  0.00  0.00    +0.004 A 
ATOM     11  C   LIG A   1      -8.389  -3.214 127.766  0.00  0.00    +0.004 A 
ATOM     12  C   LIG A   1      -8.049  -1.875 127.990  0.00  0.00    -0.039 A 
ATOM     13  C   LIG A   1      -7.681  -1.454 129.388  0.00  0.00    +0.044 C 
ATOM     14  C   LIG A   1      -9.166  -3.325 124.057  0.00  0.00    +0.044 C 
ENDROOT
BRANCH   2  15
ATOM     15  C   LIG A   1      -8.310   1.747 123.449  0.00  0.00    -0.047 C 
ATOM     16  C   LIG A   1      -9.448   1.989 122.778  0.00  0.00    +0.012 C 
ATOM     17  C   LIG A   1      -7.010   2.399 123.067  0.00  0.00    +0.044 C 
ENDBRANCH   2  15
TORSDOF 1
ENDMDL
MODEL 8
REMARK VINA RESULT:      -6.1      9.588     11.254
REMARK  Name = NuBBE_2267
REMARK  4 active torsions:
REMARK  status: ('A' for Active; 'I' for Inactive)
REMARK    1  A    between atoms: C_2  and  C_15
REMARK    2  A    between atoms: C_9  and  C_14
REMARK    3  A    between atoms: C_12  and  C_13
REMARK    4  A    between atoms: C_15  and  C_17
REMARK                            x       y       z     vdW  Elec       q    Type
REMARK                         _______ _______ _______ _____ _____    ______ ____
ROOT
ATOM      1  C   LIG A   1      -5.032   6.088 133.141  0.00  0.00    +0.021 C 
ATOM      2  C   LIG A   1      -4.466   6.623 132.046  0.00  0.00    +0.029 C 
ATOM      3  C   LIG A   1      -5.326   6.836 130.849  0.00  0.00    +0.233 C 
ATOM      4  O   LIG A   1      -4.886   6.981 129.718  0.00  0.00    -0.283 OA
ATOM      5  C   LIG A   1      -6.823   6.877 131.097  0.00  0.00    +0.234 C 
ATOM      6  O   LIG A   1      -7.528   7.587 130.397  0.00  0.00    -0.283 OA
ATOM      7  C   LIG A   1      -7.354   6.060 132.218  0.00  0.00    +0.036 A 
ATOM      8  C   LIG A   1      -6.442   5.667 133.223  0.00  0.00    -0.010 A 
ATOM      9  C   LIG A   1      -6.907   4.896 134.311  0.00  0.00    -0.043 A 
ATOM     10  C   LIG A   1      -8.263   4.549 134.376  0.00  0.00    +0.004 A 
ATOM     11  C   LIG A   1      -9.154   4.945 133.380  0.00  0.00    +0.004 A 
ATOM     12  C   LIG A   1      -8.717   5.698 132.285  0.00  0.00    -0.039 A 
ATOM     13  C   LIG A   1      -9.723   6.090 131.237  0.00  0.00    +0.044 C 
ATOM     14  C   LIG A   1      -6.003   4.430 135.423  0.00  0.00    +0.044 C 
ENDROOT
BRANCH   2  15
ATOM     15  C   LIG A   1      -3.051   6.975 132.012  0.00  0.00    -0.047 C 
ATOM     16  C   LIG A   1      -2.638   8.236 132.223  0.00  0.00    +0.012 C 
ATOM     17  C   LIG A   1      -2.080   5.855 131.759  0.00  0.00    +0.044 C 
ENDBRANCH   2  15
TORSDOF 1
ENDMDL
MODEL 9
REMARK VINA RESULT:      -6.1      4.359      7.041
REMARK  Name = NuBBE_2267
REMARK  4 active torsions:
REMARK  status: ('A' for Active; 'I' for Inactive)
REMARK    1  A    between atoms: C_2  and  C_15
REMARK    2  A    between atoms: C_9  and  C_14
REMARK    3  A    between atoms: C_12  and  C_13
REMARK    4  A    between atoms: C_15  and  C_17
REMARK                            x       y       z     vdW  Elec       q    Type
REMARK                         _______ _______ _______ _____ _____    ______ ____
ROOT
ATOM      1  C   LIG A   1      -6.183  -0.183 125.107  0.00  0.00    +0.021 C 
ATOM      2  C   LIG A   1      -6.239   0.722 126.099  0.00  0.00    +0.029 C 
ATOM      3  C   LIG A   1      -7.087   0.407 127.283  0.00  0.00    +0.233 C 
ATOM      4  O   LIG A   1      -7.492   1.253 128.067  0.00  0.00    -0.283 OA
ATOM      5  C   LIG A   1      -7.430  -1.056 127.492  0.00  0.00    +0.234 C 
ATOM      6  O   LIG A   1      -7.568  -1.483 128.628  0.00  0.00    -0.283 OA
ATOM      7  C   LIG A   1      -7.553  -1.911 126.284  0.00  0.00    +0.036 A 
ATOM      8  C   LIG A   1      -6.932  -1.452 125.101  0.00  0.00    -0.010 A 
ATOM      9  C   LIG A   1      -7.018  -2.239 123.930  0.00  0.00    -0.043 A 
ATOM     10  C   LIG A   1      -7.704  -3.460 123.973  0.00  0.00    +0.004 A 
ATOM     11  C   LIG A   1      -8.310  -3.903 125.147  0.00  0.00    +0.004 A 
ATOM     12  C   LIG A   1      -8.252  -3.137 126.316  0.00  0.00    -0.039 A 
ATOM     13  C   LIG A   1      -8.931  -3.663 127.552  0.00  0.00    +0.044 C 
ATOM     14  C   LIG A   1      -6.390  -1.824 122.624  0.00  0.00    +0.044 C 
ENDROOT
BRANCH   2  15
ATOM     15  C   LIG A   1      -5.510   1.983 126.025  0.00  0.00    -0.047 C 
ATOM     16  C   LIG A   1      -4.393   2.189 126.741  0.00  0.00    +0.012 C 
ATOM     17  C   LIG A   1      -6.054   3.025 125.087  0.00  0.00    +0.044 C 
ENDBRANCH   2  15
TORSDOF 1
ENDMDL
