MODEL 1
REMARK VINA RESULT:      -4.5      0.000      0.000
REMARK  Name = NuBBE_2135
REMARK  2 active torsions:
REMARK  status: ('A' for Active; 'I' for Inactive)
REMARK    1  A    between atoms: C_1  and  C_2
REMARK    2  A    between atoms: C_2  and  C_3
REMARK                            x       y       z     vdW  Elec       q    Type
REMARK                         _______ _______ _______ _____ _____    ______ ____
ROOT
ATOM      1  C   LIG A   1      -6.045  -2.839 123.473  0.00  0.00    -0.074 C 
ATOM      2  C   LIG A   1      -6.591  -1.913 122.675  0.00  0.00    -0.028 C 
ATOM      3  C   LIG A   1      -8.065  -1.800 122.880  0.00  0.00    +0.027 C 
ATOM      4  C   LIG A   1      -8.391  -3.055 123.688  0.00  0.00    +0.008 C 
ATOM      5  C   LIG A   1      -7.080  -3.500 124.333  0.00  0.00    +0.030 C 
ENDROOT
BRANCH   1   7
ATOM      6  C   LIG A   1      -4.388  -4.719 123.585  0.00  0.00    +0.008 C 
ATOM      7  C   LIG A   1      -4.600  -3.213 123.553  0.00  0.00    +0.027 C 
ENDBRANCH   1   7
TORSDOF 1
ENDMDL
MODEL 2
REMARK VINA RESULT:      -4.5     12.508     14.142
REMARK  Name = NuBBE_2135
REMARK  2 active torsions:
REMARK  status: ('A' for Active; 'I' for Inactive)
REMARK    1  A    between atoms: C_1  and  C_2
REMARK    2  A    between atoms: C_2  and  C_3
REMARK                            x       y       z     vdW  Elec       q    Type
REMARK                         _______ _______ _______ _____ _____    ______ ____
ROOT
ATOM      1  C   LIG A   1     -12.394   8.551 128.594  0.00  0.00    -0.074 C 
ATOM      2  C   LIG A   1     -13.181   7.806 127.808  0.00  0.00    -0.028 C 
ATOM      3  C   LIG A   1     -12.405   7.116 126.736  0.00  0.00    +0.027 C 
ATOM      4  C   LIG A   1     -11.058   7.835 126.778  0.00  0.00    +0.008 C 
ATOM      5  C   LIG A   1     -10.962   8.481 128.160  0.00  0.00    +0.030 C 
ENDROOT
BRANCH   1   7
ATOM      6  C   LIG A   1     -13.541  10.644 129.367  0.00  0.00    +0.008 C 
ATOM      7  C   LIG A   1     -12.821   9.366 129.772  0.00  0.00    +0.027 C 
ENDBRANCH   1   7
TORSDOF 1
ENDMDL
MODEL 3
REMARK VINA RESULT:      -4.5     12.192     13.532
REMARK  Name = NuBBE_2135
REMARK  2 active torsions:
REMARK  status: ('A' for Active; 'I' for Inactive)
REMARK    1  A    between atoms: C_1  and  C_2
REMARK    2  A    between atoms: C_2  and  C_3
REMARK                            x       y       z     vdW  Elec       q    Type
REMARK                         _______ _______ _______ _____ _____    ______ ____
ROOT
ATOM      1  C   LIG A   1     -12.257   8.273 128.592  0.00  0.00    -0.074 C 
ATOM      2  C   LIG A   1     -11.050   8.383 128.025  0.00  0.00    -0.028 C 
ATOM      3  C   LIG A   1     -11.035   7.839 126.636  0.00  0.00    +0.027 C 
ATOM      4  C   LIG A   1     -12.346   7.057 126.565  0.00  0.00    +0.008 C 
ATOM      5  C   LIG A   1     -13.240   7.624 127.666  0.00  0.00    +0.030 C 
ENDROOT
BRANCH   1   7
ATOM      6  C   LIG A   1     -12.819   7.560 130.931  0.00  0.00    +0.008 C 
ATOM      7  C   LIG A   1     -12.646   8.723 129.964  0.00  0.00    +0.027 C 
ENDBRANCH   1   7
TORSDOF 1
ENDMDL
MODEL 4
REMARK VINA RESULT:      -4.4      0.469      1.567
REMARK  Name = NuBBE_2135
REMARK  2 active torsions:
REMARK  status: ('A' for Active; 'I' for Inactive)
REMARK    1  A    between atoms: C_1  and  C_2
REMARK    2  A    between atoms: C_2  and  C_3
REMARK                            x       y       z     vdW  Elec       q    Type
REMARK                         _______ _______ _______ _____ _____    ______ ____
ROOT
ATOM      1  C   LIG A   1      -6.476  -2.918 123.710  0.00  0.00    -0.074 C 
ATOM      2  C   LIG A   1      -7.436  -3.611 124.335  0.00  0.00    -0.028 C 
ATOM      3  C   LIG A   1      -8.797  -3.242 123.847  0.00  0.00    +0.027 C 
ATOM      4  C   LIG A   1      -8.538  -1.956 123.065  0.00  0.00    +0.008 C 
ATOM      5  C   LIG A   1      -7.052  -1.965 122.708  0.00  0.00    +0.030 C 
ENDROOT
BRANCH   1   7
ATOM      6  C   LIG A   1      -4.489  -4.450 123.704  0.00  0.00    +0.008 C 
ATOM      7  C   LIG A   1      -5.001  -3.035 123.930  0.00  0.00    +0.027 C 
ENDBRANCH   1   7
TORSDOF 1
ENDMDL
MODEL 5
REMARK VINA RESULT:      -4.4      7.053      8.440
REMARK  Name = NuBBE_2135
REMARK  2 active torsions:
REMARK  status: ('A' for Active; 'I' for Inactive)
REMARK    1  A    between atoms: C_1  and  C_2
REMARK    2  A    between atoms: C_2  and  C_3
REMARK                            x       y       z     vdW  Elec       q    Type
REMARK                         _______ _______ _______ _____ _____    ______ ____
ROOT
ATOM      1  C   LIG A   1      -5.935   4.435 120.640  0.00  0.00    -0.074 C 
ATOM      2  C   LIG A   1      -7.062   3.998 120.064  0.00  0.00    -0.028 C 
ATOM      3  C   LIG A   1      -7.216   4.520 118.674  0.00  0.00    +0.027 C 
ATOM      4  C   LIG A   1      -6.171   5.632 118.613  0.00  0.00    +0.008 C 
ATOM      5  C   LIG A   1      -5.162   5.332 119.721  0.00  0.00    +0.030 C 
ENDROOT
BRANCH   1   7
ATOM      6  C   LIG A   1      -6.515   3.437 122.867  0.00  0.00    +0.008 C 
ATOM      7  C   LIG A   1      -5.447   4.107 122.014  0.00  0.00    +0.027 C 
ENDBRANCH   1   7
TORSDOF 1
ENDMDL
MODEL 6
REMARK VINA RESULT:      -4.4     13.470     15.062
REMARK  Name = NuBBE_2135
REMARK  2 active torsions:
REMARK  status: ('A' for Active; 'I' for Inactive)
REMARK    1  A    between atoms: C_1  and  C_2
REMARK    2  A    between atoms: C_2  and  C_3
REMARK                            x       y       z     vdW  Elec       q    Type
REMARK                         _______ _______ _______ _____ _____    ______ ____
ROOT
ATOM      1  C   LIG A   1     -13.266   9.046 129.082  0.00  0.00    -0.074 C 
ATOM      2  C   LIG A   1     -12.655   8.532 130.157  0.00  0.00    -0.028 C 
ATOM      3  C   LIG A   1     -12.352   7.081 129.985  0.00  0.00    +0.027 C 
ATOM      4  C   LIG A   1     -13.191   6.702 128.766  0.00  0.00    +0.008 C 
ATOM      5  C   LIG A   1     -13.477   8.007 128.023  0.00  0.00    +0.030 C 
ENDROOT
BRANCH   1   7
ATOM      6  C   LIG A   1     -13.605  11.278 130.175  0.00  0.00    +0.008 C 
ATOM      7  C   LIG A   1     -13.703  10.463 128.894  0.00  0.00    +0.027 C 
ENDBRANCH   1   7
TORSDOF 1
ENDMDL
MODEL 7
REMARK VINA RESULT:      -4.2     12.367     13.448
REMARK  Name = NuBBE_2135
REMARK  2 active torsions:
REMARK  status: ('A' for Active; 'I' for Inactive)
REMARK    1  A    between atoms: C_1  and  C_2
REMARK    2  A    between atoms: C_2  and  C_3
REMARK                            x       y       z     vdW  Elec       q    Type
REMARK                         _______ _______ _______ _____ _____    ______ ____
ROOT
ATOM      1  C   LIG A   1     -11.236   7.942 129.393  0.00  0.00    -0.074 C 
ATOM      2  C   LIG A   1     -12.486   8.213 129.787  0.00  0.00    -0.028 C 
ATOM      3  C   LIG A   1     -12.828   7.527 131.067  0.00  0.00    +0.027 C 
ATOM      4  C   LIG A   1     -11.699   6.509 131.217  0.00  0.00    +0.008 C 
ATOM      5  C   LIG A   1     -10.547   7.018 130.351  0.00  0.00    +0.030 C 
ENDROOT
BRANCH   1   7
ATOM      6  C   LIG A   1     -11.049   7.801 126.895  0.00  0.00    +0.008 C 
ATOM      7  C   LIG A   1     -10.550   8.463 128.171  0.00  0.00    +0.027 C 
ENDBRANCH   1   7
TORSDOF 1
ENDMDL
MODEL 8
REMARK VINA RESULT:      -4.1     12.978     14.425
REMARK  Name = NuBBE_2135
REMARK  2 active torsions:
REMARK  status: ('A' for Active; 'I' for Inactive)
REMARK    1  A    between atoms: C_1  and  C_2
REMARK    2  A    between atoms: C_2  and  C_3
REMARK                            x       y       z     vdW  Elec       q    Type
REMARK                         _______ _______ _______ _____ _____    ______ ____
ROOT
ATOM      1  C   LIG A   1     -12.536   7.999 129.779  0.00  0.00    -0.074 C 
ATOM      2  C   LIG A   1     -11.799   6.997 129.284  0.00  0.00    -0.028 C 
ATOM      3  C   LIG A   1     -11.545   5.936 130.302  0.00  0.00    +0.027 C 
ATOM      4  C   LIG A   1     -11.954   6.616 131.608  0.00  0.00    +0.008 C 
ATOM      5  C   LIG A   1     -12.882   7.765 131.218  0.00  0.00    +0.030 C 
ENDROOT
BRANCH   1   7
ATOM      6  C   LIG A   1     -13.248  10.396 129.977  0.00  0.00    +0.008 C 
ATOM      7  C   LIG A   1     -12.995   9.218 129.046  0.00  0.00    +0.027 C 
ENDBRANCH   1   7
TORSDOF 1
ENDMDL
MODEL 9
REMARK VINA RESULT:      -4.1     12.674     13.494
REMARK  Name = NuBBE_2135
REMARK  2 active torsions:
REMARK  status: ('A' for Active; 'I' for Inactive)
REMARK    1  A    between atoms: C_1  and  C_2
REMARK    2  A    between atoms: C_2  and  C_3
REMARK                            x       y       z     vdW  Elec       q    Type
REMARK                         _______ _______ _______ _____ _____    ______ ____
ROOT
ATOM      1  C   LIG A   1     -12.087   7.501 129.619  0.00  0.00    -0.074 C 
ATOM      2  C   LIG A   1     -12.272   8.807 129.389  0.00  0.00    -0.028 C 
ATOM      3  C   LIG A   1     -13.396   9.051 128.437  0.00  0.00    +0.027 C 
ATOM      4  C   LIG A   1     -13.647   7.664 127.847  0.00  0.00    +0.008 C 
ATOM      5  C   LIG A   1     -13.059   6.665 128.842  0.00  0.00    +0.030 C 
ENDROOT
BRANCH   1   7
ATOM      6  C   LIG A   1      -9.642   7.212 130.100  0.00  0.00    +0.008 C 
ATOM      7  C   LIG A   1     -11.068   6.888 130.524  0.00  0.00    +0.027 C 
ENDBRANCH   1   7
TORSDOF 1
ENDMDL
