MODEL 1
REMARK VINA RESULT:      -8.2      0.000      0.000
REMARK  Name = NuBBE_2268
REMARK  4 active torsions:
REMARK  status: ('A' for Active; 'I' for Inactive)
REMARK    1  A    between atoms: C_1  and  C_23
REMARK    2  A    between atoms: C_4  and  C_7
REMARK    3  A    between atoms: C_10  and  C_12
REMARK    4  A    between atoms: C_12  and  C_14
REMARK                            x       y       z     vdW  Elec       q    Type
REMARK                         _______ _______ _______ _____ _____    ______ ____
ROOT
ATOM      1  C   LIG A   1      -6.139   3.099 123.873  0.00  0.00    -0.043 A 
ATOM      2  C   LIG A   1      -6.727   1.888 124.331  0.00  0.00    -0.012 A 
ATOM      3  C   LIG A   1      -6.516   1.427 125.663  0.00  0.00    +0.013 A 
ATOM      4  C   LIG A   1      -5.686   2.242 126.509  0.00  0.00    -0.041 A 
ATOM      5  C   LIG A   1      -5.117   3.434 126.030  0.00  0.00    +0.004 A 
ATOM      6  C   LIG A   1      -5.340   3.856 124.731  0.00  0.00    +0.004 A 
ATOM      7  C   LIG A   1      -5.370   1.886 127.943  0.00  0.00    +0.044 C 
ATOM      8  C   LIG A   1      -7.131   0.200 126.080  0.00  0.00    +0.098 A 
ATOM      9  C   LIG A   1      -7.937  -0.549 125.184  0.00  0.00    +0.098 A 
ATOM     10  C   LIG A   1      -8.130  -0.078 123.885  0.00  0.00    +0.005 A 
ATOM     11  C   LIG A   1      -7.532   1.120 123.478  0.00  0.00    +0.019 A 
ATOM     12  N   LIG A   1      -8.514  -1.716 125.563  0.00  0.00    -0.243 NA
ATOM     13  C   LIG A   1      -8.319  -2.161 126.811  0.00  0.00    +0.090 A 
ATOM     14  C   LIG A   1      -7.532  -1.433 127.710  0.00  0.00    +0.090 A 
ATOM     15  N   LIG A   1      -6.956  -0.279 127.337  0.00  0.00    -0.243 NA
ATOM     16  C   LIG A   1      -7.349  -1.920 129.000  0.00  0.00    +0.030 A 
ATOM     17  C   LIG A   1      -7.935  -3.117 129.414  0.00  0.00    +0.002 A 
ATOM     18  C   LIG A   1      -8.715  -3.839 128.521  0.00  0.00    +0.002 A 
ATOM     19  C   LIG A   1      -8.900  -3.354 127.226  0.00  0.00    +0.030 A 
ATOM     20  C   LIG A   1      -6.341   3.617 122.469  0.00  0.00    +0.044 C 
ENDROOT
BRANCH  10  21
ATOM     21  C   LIG A   1      -8.973  -0.795 122.894  0.00  0.00    -0.048 C 
ATOM     22  C   LIG A   1     -10.097  -0.227 122.426  0.00  0.00    +0.012 C 
ATOM     23  C   LIG A   1      -8.521  -2.162 122.465  0.00  0.00    +0.044 C 
ENDBRANCH  10  21
TORSDOF 1
ENDMDL
MODEL 2
REMARK VINA RESULT:      -7.9      1.374      5.529
REMARK  Name = NuBBE_2268
REMARK  4 active torsions:
REMARK  status: ('A' for Active; 'I' for Inactive)
REMARK    1  A    between atoms: C_1  and  C_23
REMARK    2  A    between atoms: C_4  and  C_7
REMARK    3  A    between atoms: C_10  and  C_12
REMARK    4  A    between atoms: C_12  and  C_14
REMARK                            x       y       z     vdW  Elec       q    Type
REMARK                         _______ _______ _______ _____ _____    ______ ____
ROOT
ATOM      1  C   LIG A   1      -8.268  -2.823 128.227  0.00  0.00    -0.043 A 
ATOM      2  C   LIG A   1      -7.934  -1.835 127.260  0.00  0.00    -0.012 A 
ATOM      3  C   LIG A   1      -7.490  -0.540 127.656  0.00  0.00    +0.013 A 
ATOM      4  C   LIG A   1      -7.400  -0.289 129.069  0.00  0.00    -0.041 A 
ATOM      5  C   LIG A   1      -7.737  -1.283 130.003  0.00  0.00    +0.004 A 
ATOM      6  C   LIG A   1      -8.166  -2.532 129.588  0.00  0.00    +0.004 A 
ATOM      7  C   LIG A   1      -6.946   1.034 129.642  0.00  0.00    +0.044 C 
ATOM      8  C   LIG A   1      -7.163   0.422 126.644  0.00  0.00    +0.098 A 
ATOM      9  C   LIG A   1      -7.278   0.096 125.268  0.00  0.00    +0.098 A 
ATOM     10  C   LIG A   1      -7.714  -1.178 124.904  0.00  0.00    +0.005 A 
ATOM     11  C   LIG A   1      -8.032  -2.118 125.890  0.00  0.00    +0.019 A 
ATOM     12  N   LIG A   1      -6.983   1.001 124.302  0.00  0.00    -0.243 NA
ATOM     13  C   LIG A   1      -6.569   2.222 124.663  0.00  0.00    +0.090 A 
ATOM     14  C   LIG A   1      -6.444   2.560 126.015  0.00  0.00    +0.090 A 
ATOM     15  N   LIG A   1      -6.738   1.667 126.974  0.00  0.00    -0.243 NA
ATOM     16  C   LIG A   1      -6.009   3.836 126.358  0.00  0.00    +0.030 A 
ATOM     17  C   LIG A   1      -5.697   4.783 125.383  0.00  0.00    +0.002 A 
ATOM     18  C   LIG A   1      -5.822   4.448 124.041  0.00  0.00    +0.002 A 
ATOM     19  C   LIG A   1      -6.259   3.170 123.693  0.00  0.00    +0.030 A 
ATOM     20  C   LIG A   1      -8.742  -4.204 127.843  0.00  0.00    +0.044 C 
ENDROOT
BRANCH  10  21
ATOM     21  C   LIG A   1      -7.846  -1.601 123.486  0.00  0.00    -0.048 C 
ATOM     22  C   LIG A   1      -9.059  -1.686 122.916  0.00  0.00    +0.012 C 
ATOM     23  C   LIG A   1      -6.582  -1.935 122.745  0.00  0.00    +0.044 C 
ENDBRANCH  10  21
TORSDOF 1
ENDMDL
MODEL 3
REMARK VINA RESULT:      -7.9      1.631      3.462
REMARK  Name = NuBBE_2268
REMARK  4 active torsions:
REMARK  status: ('A' for Active; 'I' for Inactive)
REMARK    1  A    between atoms: C_1  and  C_23
REMARK    2  A    between atoms: C_4  and  C_7
REMARK    3  A    between atoms: C_10  and  C_12
REMARK    4  A    between atoms: C_12  and  C_14
REMARK                            x       y       z     vdW  Elec       q    Type
REMARK                         _______ _______ _______ _____ _____    ______ ____
ROOT
ATOM      1  C   LIG A   1      -4.762   3.340 126.904  0.00  0.00    -0.043 A 
ATOM      2  C   LIG A   1      -5.541   2.514 126.047  0.00  0.00    -0.012 A 
ATOM      3  C   LIG A   1      -5.899   1.189 126.432  0.00  0.00    +0.013 A 
ATOM      4  C   LIG A   1      -5.436   0.738 127.716  0.00  0.00    -0.041 A 
ATOM      5  C   LIG A   1      -4.667   1.575 128.542  0.00  0.00    +0.004 A 
ATOM      6  C   LIG A   1      -4.335   2.858 128.142  0.00  0.00    +0.004 A 
ATOM      7  C   LIG A   1      -5.734  -0.640 128.262  0.00  0.00    +0.044 C 
ATOM      8  C   LIG A   1      -6.687   0.394 125.535  0.00  0.00    +0.098 A 
ATOM      9  C   LIG A   1      -7.106   0.913 124.282  0.00  0.00    +0.098 A 
ATOM     10  C   LIG A   1      -6.744   2.212 123.927  0.00  0.00    +0.005 A 
ATOM     11  C   LIG A   1      -5.976   2.989 124.802  0.00  0.00    +0.019 A 
ATOM     12  N   LIG A   1      -7.841   0.166 123.421  0.00  0.00    -0.243 NA
ATOM     13  C   LIG A   1      -8.179  -1.081 123.770  0.00  0.00    +0.090 A 
ATOM     14  C   LIG A   1      -7.781  -1.607 125.004  0.00  0.00    +0.090 A 
ATOM     15  N   LIG A   1      -7.050  -0.873 125.858  0.00  0.00    -0.243 NA
ATOM     16  C   LIG A   1      -8.150  -2.905 125.339  0.00  0.00    +0.030 A 
ATOM     17  C   LIG A   1      -8.909  -3.692 124.471  0.00  0.00    +0.002 A 
ATOM     18  C   LIG A   1      -9.303  -3.169 123.247  0.00  0.00    +0.002 A 
ATOM     19  C   LIG A   1      -8.934  -1.868 122.906  0.00  0.00    +0.030 A 
ATOM     20  C   LIG A   1      -4.364   4.748 126.528  0.00  0.00    +0.044 C 
ENDROOT
BRANCH  10  21
ATOM     21  C   LIG A   1      -7.156   2.832 122.642  0.00  0.00    -0.048 C 
ATOM     22  C   LIG A   1      -8.452   3.097 122.404  0.00  0.00    +0.012 C 
ATOM     23  C   LIG A   1      -6.076   3.126 121.640  0.00  0.00    +0.044 C 
ENDBRANCH  10  21
TORSDOF 1
ENDMDL
MODEL 4
REMARK VINA RESULT:      -7.8      1.423      6.772
REMARK  Name = NuBBE_2268
REMARK  4 active torsions:
REMARK  status: ('A' for Active; 'I' for Inactive)
REMARK    1  A    between atoms: C_1  and  C_23
REMARK    2  A    between atoms: C_4  and  C_7
REMARK    3  A    between atoms: C_10  and  C_12
REMARK    4  A    between atoms: C_12  and  C_14
REMARK                            x       y       z     vdW  Elec       q    Type
REMARK                         _______ _______ _______ _____ _____    ______ ____
ROOT
ATOM      1  C   LIG A   1      -8.263  -2.830 127.902  0.00  0.00    -0.043 A 
ATOM      2  C   LIG A   1      -7.727  -1.580 127.483  0.00  0.00    -0.012 A 
ATOM      3  C   LIG A   1      -7.827  -1.155 126.127  0.00  0.00    +0.013 A 
ATOM      4  C   LIG A   1      -8.490  -2.047 125.214  0.00  0.00    -0.041 A 
ATOM      5  C   LIG A   1      -9.011  -3.276 125.654  0.00  0.00    +0.004 A 
ATOM      6  C   LIG A   1      -8.898  -3.662 126.978  0.00  0.00    +0.004 A 
ATOM      7  C   LIG A   1      -8.674  -1.736 123.746  0.00  0.00    +0.044 C 
ATOM      8  C   LIG A   1      -7.272   0.113 125.753  0.00  0.00    +0.098 A 
ATOM      9  C   LIG A   1      -6.631   0.937 126.714  0.00  0.00    +0.098 A 
ATOM     10  C   LIG A   1      -6.546   0.501 128.036  0.00  0.00    +0.005 A 
ATOM     11  C   LIG A   1      -7.088  -0.736 128.402  0.00  0.00    +0.019 A 
ATOM     12  N   LIG A   1      -6.093   2.133 126.370  0.00  0.00    -0.243 NA
ATOM     13  C   LIG A   1      -6.177   2.540 125.097  0.00  0.00    +0.090 A 
ATOM     14  C   LIG A   1      -6.810   1.744 124.137  0.00  0.00    +0.090 A 
ATOM     15  N   LIG A   1      -7.342   0.558 124.473  0.00  0.00    -0.243 NA
ATOM     16  C   LIG A   1      -6.884   2.195 122.824  0.00  0.00    +0.030 A 
ATOM     17  C   LIG A   1      -6.340   3.424 122.446  0.00  0.00    +0.002 A 
ATOM     18  C   LIG A   1      -5.711   4.213 123.399  0.00  0.00    +0.002 A 
ATOM     19  C   LIG A   1      -5.634   3.763 124.718  0.00  0.00    +0.030 A 
ATOM     20  C   LIG A   1      -8.174  -3.311 129.330  0.00  0.00    +0.044 C 
ENDROOT
BRANCH  10  21
ATOM     21  C   LIG A   1      -5.905   1.312 129.104  0.00  0.00    -0.048 C 
ATOM     22  C   LIG A   1      -4.607   1.132 129.402  0.00  0.00    +0.012 C 
ATOM     23  C   LIG A   1      -6.768   2.308 129.825  0.00  0.00    +0.044 C 
ENDBRANCH  10  21
TORSDOF 1
ENDMDL
MODEL 5
REMARK VINA RESULT:      -7.7      1.497      4.459
REMARK  Name = NuBBE_2268
REMARK  4 active torsions:
REMARK  status: ('A' for Active; 'I' for Inactive)
REMARK    1  A    between atoms: C_1  and  C_23
REMARK    2  A    between atoms: C_4  and  C_7
REMARK    3  A    between atoms: C_10  and  C_12
REMARK    4  A    between atoms: C_12  and  C_14
REMARK                            x       y       z     vdW  Elec       q    Type
REMARK                         _______ _______ _______ _____ _____    ______ ____
ROOT
ATOM      1  C   LIG A   1      -4.424   2.900 127.158  0.00  0.00    -0.043 A 
ATOM      2  C   LIG A   1      -5.144   1.700 126.903  0.00  0.00    -0.012 A 
ATOM      3  C   LIG A   1      -5.912   1.543 125.712  0.00  0.00    +0.013 A 
ATOM      4  C   LIG A   1      -5.921   2.651 124.795  0.00  0.00    -0.041 A 
ATOM      5  C   LIG A   1      -5.201   3.825 125.072  0.00  0.00    +0.004 A 
ATOM      6  C   LIG A   1      -4.464   3.948 126.237  0.00  0.00    +0.004 A 
ATOM      7  C   LIG A   1      -6.688   2.635 123.492  0.00  0.00    +0.044 C 
ATOM      8  C   LIG A   1      -6.620   0.314 125.499  0.00  0.00    +0.098 A 
ATOM      9  C   LIG A   1      -6.561  -0.733 126.454  0.00  0.00    +0.098 A 
ATOM     10  C   LIG A   1      -5.802  -0.558 127.611  0.00  0.00    +0.005 A 
ATOM     11  C   LIG A   1      -5.110   0.640 127.820  0.00  0.00    +0.019 A 
ATOM     12  N   LIG A   1      -7.235  -1.895 126.268  0.00  0.00    -0.243 NA
ATOM     13  C   LIG A   1      -7.964  -2.051 125.155  0.00  0.00    +0.090 A 
ATOM     14  C   LIG A   1      -8.029  -1.032 124.200  0.00  0.00    +0.090 A 
ATOM     15  N   LIG A   1      -7.365   0.122 124.381  0.00  0.00    -0.243 NA
ATOM     16  C   LIG A   1      -8.792  -1.224 123.053  0.00  0.00    +0.030 A 
ATOM     17  C   LIG A   1      -9.492  -2.412 122.838  0.00  0.00    +0.002 A 
ATOM     18  C   LIG A   1      -9.428  -3.423 123.787  0.00  0.00    +0.002 A 
ATOM     19  C   LIG A   1      -8.664  -3.233 124.939  0.00  0.00    +0.030 A 
ATOM     20  C   LIG A   1      -3.601   3.100 128.408  0.00  0.00    +0.044 C 
ENDROOT
BRANCH  10  21
ATOM     21  C   LIG A   1      -5.678  -1.612 128.650  0.00  0.00    -0.048 C 
ATOM     22  C   LIG A   1      -4.680  -2.510 128.586  0.00  0.00    +0.012 C 
ATOM     23  C   LIG A   1      -6.710  -1.630 129.743  0.00  0.00    +0.044 C 
ENDBRANCH  10  21
TORSDOF 1
ENDMDL
MODEL 6
REMARK VINA RESULT:      -7.5      2.060      4.999
REMARK  Name = NuBBE_2268
REMARK  4 active torsions:
REMARK  status: ('A' for Active; 'I' for Inactive)
REMARK    1  A    between atoms: C_1  and  C_23
REMARK    2  A    between atoms: C_4  and  C_7
REMARK    3  A    between atoms: C_10  and  C_12
REMARK    4  A    between atoms: C_12  and  C_14
REMARK                            x       y       z     vdW  Elec       q    Type
REMARK                         _______ _______ _______ _____ _____    ______ ____
ROOT
ATOM      1  C   LIG A   1      -7.110  -2.174 123.964  0.00  0.00    -0.043 A 
ATOM      2  C   LIG A   1      -6.992  -1.341 125.111  0.00  0.00    -0.012 A 
ATOM      3  C   LIG A   1      -7.518  -1.749 126.372  0.00  0.00    +0.013 A 
ATOM      4  C   LIG A   1      -8.168  -3.031 126.420  0.00  0.00    -0.041 A 
ATOM      5  C   LIG A   1      -8.271  -3.833 125.271  0.00  0.00    +0.004 A 
ATOM      6  C   LIG A   1      -7.750  -3.410 124.061  0.00  0.00    +0.004 A 
ATOM      7  C   LIG A   1      -8.775  -3.599 127.683  0.00  0.00    +0.044 C 
ATOM      8  C   LIG A   1      -7.373  -0.876 127.500  0.00  0.00    +0.098 A 
ATOM      9  C   LIG A   1      -6.718   0.376 127.370  0.00  0.00    +0.098 A 
ATOM     10  C   LIG A   1      -6.210   0.754 126.127  0.00  0.00    +0.005 A 
ATOM     11  C   LIG A   1      -6.350  -0.098 125.026  0.00  0.00    +0.019 A 
ATOM     12  N   LIG A   1      -6.585   1.215 128.428  0.00  0.00    -0.243 NA
ATOM     13  C   LIG A   1      -7.080   0.844 129.615  0.00  0.00    +0.090 A 
ATOM     14  C   LIG A   1      -7.724  -0.389 129.764  0.00  0.00    +0.090 A 
ATOM     15  N   LIG A   1      -7.860  -1.221 128.719  0.00  0.00    -0.243 NA
ATOM     16  C   LIG A   1      -8.225  -0.747 131.011  0.00  0.00    +0.030 A 
ATOM     17  C   LIG A   1      -8.098   0.098 132.114  0.00  0.00    +0.002 A 
ATOM     18  C   LIG A   1      -7.460   1.322 131.966  0.00  0.00    +0.002 A 
ATOM     19  C   LIG A   1      -6.957   1.685 130.716  0.00  0.00    +0.030 A 
ATOM     20  C   LIG A   1      -6.565  -1.774 122.614  0.00  0.00    +0.044 C 
ENDROOT
BRANCH  10  21
ATOM     21  C   LIG A   1      -5.498   2.040 125.914  0.00  0.00    -0.048 C 
ATOM     22  C   LIG A   1      -6.105   3.049 125.266  0.00  0.00    +0.012 C 
ATOM     23  C   LIG A   1      -4.092   2.145 126.434  0.00  0.00    +0.044 C 
ENDBRANCH  10  21
TORSDOF 1
ENDMDL
MODEL 7
REMARK VINA RESULT:      -7.5      1.806      5.371
REMARK  Name = NuBBE_2268
REMARK  4 active torsions:
REMARK  status: ('A' for Active; 'I' for Inactive)
REMARK    1  A    between atoms: C_1  and  C_23
REMARK    2  A    between atoms: C_4  and  C_7
REMARK    3  A    between atoms: C_10  and  C_12
REMARK    4  A    between atoms: C_12  and  C_14
REMARK                            x       y       z     vdW  Elec       q    Type
REMARK                         _______ _______ _______ _____ _____    ______ ____
ROOT
ATOM      1  C   LIG A   1      -8.179  -2.021 124.131  0.00  0.00    -0.043 A 
ATOM      2  C   LIG A   1      -7.534  -0.776 124.371  0.00  0.00    -0.012 A 
ATOM      3  C   LIG A   1      -6.729  -0.578 125.530  0.00  0.00    +0.013 A 
ATOM      4  C   LIG A   1      -6.606  -1.691 126.433  0.00  0.00    -0.041 A 
ATOM      5  C   LIG A   1      -7.255  -2.910 126.171  0.00  0.00    +0.004 A 
ATOM      6  C   LIG A   1      -8.030  -3.072 125.037  0.00  0.00    +0.004 A 
ATOM      7  C   LIG A   1      -5.788  -1.634 127.703  0.00  0.00    +0.044 C 
ATOM      8  C   LIG A   1      -6.098   0.694 125.729  0.00  0.00    +0.098 A 
ATOM      9  C   LIG A   1      -6.269   1.744 124.790  0.00  0.00    +0.098 A 
ATOM     10  C   LIG A   1      -7.061   1.527 123.663  0.00  0.00    +0.005 A 
ATOM     11  C   LIG A   1      -7.676   0.286 123.467  0.00  0.00    +0.019 A 
ATOM     12  N   LIG A   1      -5.686   2.955 124.973  0.00  0.00    -0.243 NA
ATOM     13  C   LIG A   1      -4.931   3.153 126.061  0.00  0.00    +0.090 A 
ATOM     14  C   LIG A   1      -4.747   2.128 126.995  0.00  0.00    +0.090 A 
ATOM     15  N   LIG A   1      -5.324   0.928 126.819  0.00  0.00    -0.243 NA
ATOM     16  C   LIG A   1      -3.955   2.363 128.114  0.00  0.00    +0.030 A 
ATOM     17  C   LIG A   1      -3.343   3.600 128.322  0.00  0.00    +0.002 A 
ATOM     18  C   LIG A   1      -3.527   4.617 127.396  0.00  0.00    +0.002 A 
ATOM     19  C   LIG A   1      -4.322   4.385 126.273  0.00  0.00    +0.030 A 
ATOM     20  C   LIG A   1      -9.040  -2.265 122.914  0.00  0.00    +0.044 C 
ENDROOT
BRANCH  10  21
ATOM     21  C   LIG A   1      -7.276   2.570 122.626  0.00  0.00    -0.048 C 
ATOM     22  C   LIG A   1      -8.501   3.085 122.430  0.00  0.00    +0.012 C 
ATOM     23  C   LIG A   1      -6.083   2.996 121.819  0.00  0.00    +0.044 C 
ENDBRANCH  10  21
TORSDOF 1
ENDMDL
MODEL 8
REMARK VINA RESULT:      -7.4      2.075      6.583
REMARK  Name = NuBBE_2268
REMARK  4 active torsions:
REMARK  status: ('A' for Active; 'I' for Inactive)
REMARK    1  A    between atoms: C_1  and  C_23
REMARK    2  A    between atoms: C_4  and  C_7
REMARK    3  A    between atoms: C_10  and  C_12
REMARK    4  A    between atoms: C_12  and  C_14
REMARK                            x       y       z     vdW  Elec       q    Type
REMARK                         _______ _______ _______ _____ _____    ______ ____
ROOT
ATOM      1  C   LIG A   1      -7.506  -1.895 130.451  0.00  0.00    -0.043 A 
ATOM      2  C   LIG A   1      -7.756  -0.938 129.428  0.00  0.00    -0.012 A 
ATOM      3  C   LIG A   1      -8.092  -1.348 128.105  0.00  0.00    +0.013 A 
ATOM      4  C   LIG A   1      -8.165  -2.764 127.862  0.00  0.00    -0.041 A 
ATOM      5  C   LIG A   1      -7.913  -3.687 128.891  0.00  0.00    +0.004 A 
ATOM      6  C   LIG A   1      -7.588  -3.259 130.166  0.00  0.00    +0.004 A 
ATOM      7  C   LIG A   1      -8.509  -3.351 126.513  0.00  0.00    +0.044 C 
ATOM      8  C   LIG A   1      -8.336  -0.346 127.108  0.00  0.00    +0.098 A 
ATOM      9  C   LIG A   1      -8.245   1.033 127.428  0.00  0.00    +0.098 A 
ATOM     10  C   LIG A   1      -7.915   1.411 128.729  0.00  0.00    +0.005 A 
ATOM     11  C   LIG A   1      -7.678   0.434 129.703  0.00  0.00    +0.019 A 
ATOM     12  N   LIG A   1      -8.462   1.989 126.491  0.00  0.00    -0.243 NA
ATOM     13  C   LIG A   1      -8.774   1.616 125.244  0.00  0.00    +0.090 A 
ATOM     14  C   LIG A   1      -8.875   0.260 124.912  0.00  0.00    +0.090 A 
ATOM     15  N   LIG A   1      -8.657  -0.689 125.836  0.00  0.00    -0.243 NA
ATOM     16  C   LIG A   1      -9.203  -0.096 123.608  0.00  0.00    +0.030 A 
ATOM     17  C   LIG A   1      -9.434   0.869 122.627  0.00  0.00    +0.002 A 
ATOM     18  C   LIG A   1      -9.333   2.214 122.957  0.00  0.00    +0.002 A 
ATOM     19  C   LIG A   1      -9.003   2.576 124.264  0.00  0.00    +0.030 A 
ATOM     20  C   LIG A   1      -7.147  -1.497 131.862  0.00  0.00    +0.044 C 
ENDROOT
BRANCH  10  21
ATOM     21  C   LIG A   1      -7.815   2.833 129.146  0.00  0.00    -0.048 C 
ATOM     22  C   LIG A   1      -8.863   3.443 129.726  0.00  0.00    +0.012 C 
ATOM     23  C   LIG A   1      -6.517   3.541 128.879  0.00  0.00    +0.044 C 
ENDBRANCH  10  21
TORSDOF 1
ENDMDL
MODEL 9
REMARK VINA RESULT:      -7.4      2.261      5.501
REMARK  Name = NuBBE_2268
REMARK  4 active torsions:
REMARK  status: ('A' for Active; 'I' for Inactive)
REMARK    1  A    between atoms: C_1  and  C_23
REMARK    2  A    between atoms: C_4  and  C_7
REMARK    3  A    between atoms: C_10  and  C_12
REMARK    4  A    between atoms: C_12  and  C_14
REMARK                            x       y       z     vdW  Elec       q    Type
REMARK                         _______ _______ _______ _____ _____    ______ ____
ROOT
ATOM      1  C   LIG A   1      -8.866  -1.978 124.081  0.00  0.00    -0.043 A 
ATOM      2  C   LIG A   1      -8.532  -1.353 125.315  0.00  0.00    -0.012 A 
ATOM      3  C   LIG A   1      -8.633   0.059 125.475  0.00  0.00    +0.013 A 
ATOM      4  C   LIG A   1      -9.085   0.811 124.335  0.00  0.00    -0.041 A 
ATOM      5  C   LIG A   1      -9.408   0.168 123.128  0.00  0.00    +0.004 A 
ATOM      6  C   LIG A   1      -9.300  -1.206 123.002  0.00  0.00    +0.004 A 
ATOM      7  C   LIG A   1      -9.244   2.314 124.350  0.00  0.00    +0.044 C 
ATOM      8  C   LIG A   1      -8.286   0.643 126.738  0.00  0.00    +0.098 A 
ATOM      9  C   LIG A   1      -7.848  -0.168 127.816  0.00  0.00    +0.098 A 
ATOM     10  C   LIG A   1      -7.756  -1.549 127.637  0.00  0.00    +0.005 A 
ATOM     11  C   LIG A   1      -8.096  -2.119 126.406  0.00  0.00    +0.019 A 
ATOM     12  N   LIG A   1      -7.506   0.373 129.012  0.00  0.00    -0.243 NA
ATOM     13  C   LIG A   1      -7.593   1.700 129.171  0.00  0.00    +0.090 A 
ATOM     14  C   LIG A   1      -8.030   2.515 128.121  0.00  0.00    +0.090 A 
ATOM     15  N   LIG A   1      -8.366   1.983 126.935  0.00  0.00    -0.243 NA
ATOM     16  C   LIG A   1      -8.112   3.889 128.318  0.00  0.00    +0.030 A 
ATOM     17  C   LIG A   1      -7.769   4.469 129.540  0.00  0.00    +0.002 A 
ATOM     18  C   LIG A   1      -7.335   3.660 130.581  0.00  0.00    +0.002 A 
ATOM     19  C   LIG A   1      -7.250   2.281 130.387  0.00  0.00    +0.030 A 
ATOM     20  C   LIG A   1      -8.769  -3.471 123.877  0.00  0.00    +0.044 C 
ENDROOT
BRANCH  10  21
ATOM     21  C   LIG A   1      -7.321  -2.467 128.721  0.00  0.00    -0.048 C 
ATOM     22  C   LIG A   1      -8.230  -3.039 129.528  0.00  0.00    +0.012 C 
ATOM     23  C   LIG A   1      -5.845  -2.703 128.874  0.00  0.00    +0.044 C 
ENDBRANCH  10  21
TORSDOF 1
ENDMDL
