MODEL 1
REMARK VINA RESULT:      -6.8      0.000      0.000
REMARK  Name = NuBBE_358
REMARK  8 active torsions:
REMARK  status: ('A' for Active; 'I' for Inactive)
REMARK    1  A    between atoms: O_1  and  C_2
REMARK    2  A    between atoms: C_3  and  C_4
REMARK    3  A    between atoms: C_4  and  C_5
REMARK    4  A    between atoms: C_6  and  C_7
REMARK    5  A    between atoms: C_6  and  C_8
REMARK    6  A    between atoms: C_11  and  C_12
REMARK    7  A    between atoms: C_12  and  O_13
REMARK    8  A    between atoms: O_13  and  C_14
REMARK                            x       y       z     vdW  Elec       q    Type
REMARK                         _______ _______ _______ _____ _____    ______ ____
ROOT
ATOM      1  C   LIG A   1     -10.752   6.229 131.646  0.00  0.00    +0.128 A 
ATOM      2  C   LIG A   1     -10.251   6.689 130.421  0.00  0.00    +0.064 A 
ATOM      3  C   LIG A   1      -8.871   6.867 130.277  0.00  0.00    +0.030 A 
ATOM      4  C   LIG A   1      -7.993   6.596 131.346  0.00  0.00    +0.060 A 
ATOM      5  C   LIG A   1      -8.512   6.103 132.549  0.00  0.00    +0.018 A 
ATOM      6  C   LIG A   1      -9.888   5.915 132.697  0.00  0.00    +0.047 A 
ENDROOT
BRANCH   1   7
ATOM      7  O   LIG A   1     -12.090   6.073 131.885  0.00  0.00    -0.506 OA
ATOM      8  H   LIG A   1     -12.231   6.127 132.857  0.00  0.00    +0.292 HD
ENDBRANCH   1   7
BRANCH   2   9
ATOM      9  C   LIG A   1     -11.181   7.058 129.319  0.00  0.00    +0.190 C 
ATOM     10  O   LIG A   1     -11.306   6.289 128.372  0.00  0.00    -0.287 OA
BRANCH   9  11
ATOM     11  C   LIG A   1     -11.848   8.393 129.394  0.00  0.00    +0.050 C 
ATOM     12  C   LIG A   1     -12.980   8.783 128.774  0.00  0.00    -0.072 C 
ATOM     13  C   LIG A   1     -13.844   7.950 127.867  0.00  0.00    +0.039 C 
ATOM     14  C   LIG A   1     -13.503  10.182 128.984  0.00  0.00    +0.039 C 
ENDBRANCH   9  11
ENDBRANCH   2   9
BRANCH   4  15
ATOM     15  C   LIG A   1      -6.524   6.889 131.247  0.00  0.00    +0.339 C 
ATOM     16  O   LIG A   1      -6.016   7.606 130.394  0.00  0.00    -0.245 OA
BRANCH  15  17
ATOM     17  O   LIG A   1      -5.901   6.185 132.214  0.00  0.00    -0.465 OA
ATOM     18  C   LIG A   1      -5.046   5.114 131.796  0.00  0.00    +0.280 C 
ENDBRANCH  15  17
ENDBRANCH   4  15
TORSDOF 5
ENDMDL
MODEL 2
REMARK VINA RESULT:      -6.7      1.818      5.648
REMARK  Name = NuBBE_358
REMARK  8 active torsions:
REMARK  status: ('A' for Active; 'I' for Inactive)
REMARK    1  A    between atoms: O_1  and  C_2
REMARK    2  A    between atoms: C_3  and  C_4
REMARK    3  A    between atoms: C_4  and  C_5
REMARK    4  A    between atoms: C_6  and  C_7
REMARK    5  A    between atoms: C_6  and  C_8
REMARK    6  A    between atoms: C_11  and  C_12
REMARK    7  A    between atoms: C_12  and  O_13
REMARK    8  A    between atoms: O_13  and  C_14
REMARK                            x       y       z     vdW  Elec       q    Type
REMARK                         _______ _______ _______ _____ _____    ______ ____
ROOT
ATOM      1  C   LIG A   1     -10.414   6.107 132.100  0.00  0.00    +0.128 A 
ATOM      2  C   LIG A   1      -9.363   6.485 131.255  0.00  0.00    +0.064 A 
ATOM      3  C   LIG A   1      -9.646   7.261 130.126  0.00  0.00    +0.030 A 
ATOM      4  C   LIG A   1     -10.968   7.655 129.835  0.00  0.00    +0.060 A 
ATOM      5  C   LIG A   1     -11.998   7.297 130.713  0.00  0.00    +0.018 A 
ATOM      6  C   LIG A   1     -11.721   6.528 131.845  0.00  0.00    +0.047 A 
ENDROOT
BRANCH   1   7
ATOM      7  O   LIG A   1     -10.230   5.310 133.196  0.00  0.00    -0.506 OA
ATOM      8  H   LIG A   1     -10.530   5.812 133.988  0.00  0.00    +0.292 HD
ENDBRANCH   1   7
BRANCH   2   9
ATOM      9  C   LIG A   1      -7.979   5.999 131.511  0.00  0.00    +0.190 C 
ATOM     10  O   LIG A   1      -7.829   4.895 132.024  0.00  0.00    -0.287 OA
BRANCH   9  11
ATOM     11  C   LIG A   1      -6.851   6.927 131.199  0.00  0.00    +0.050 C 
ATOM     12  C   LIG A   1      -5.663   6.620 130.640  0.00  0.00    -0.072 C 
ATOM     13  C   LIG A   1      -5.205   5.261 130.186  0.00  0.00    +0.039 C 
ATOM     14  C   LIG A   1      -4.648   7.709 130.398  0.00  0.00    +0.039 C 
ENDBRANCH   9  11
ENDBRANCH   2   9
BRANCH   4  15
ATOM     15  C   LIG A   1     -11.305   8.391 128.570  0.00  0.00    +0.339 C 
ATOM     16  O   LIG A   1     -12.298   9.091 128.419  0.00  0.00    -0.245 OA
BRANCH  15  17
ATOM     17  O   LIG A   1     -10.361   8.087 127.657  0.00  0.00    -0.465 OA
ATOM     18  C   LIG A   1     -10.810   7.598 126.387  0.00  0.00    +0.280 C 
ENDBRANCH  15  17
ENDBRANCH   4  15
TORSDOF 5
ENDMDL
MODEL 3
REMARK VINA RESULT:      -6.7      2.244      5.474
REMARK  Name = NuBBE_358
REMARK  8 active torsions:
REMARK  status: ('A' for Active; 'I' for Inactive)
REMARK    1  A    between atoms: O_1  and  C_2
REMARK    2  A    between atoms: C_3  and  C_4
REMARK    3  A    between atoms: C_4  and  C_5
REMARK    4  A    between atoms: C_6  and  C_7
REMARK    5  A    between atoms: C_6  and  C_8
REMARK    6  A    between atoms: C_11  and  C_12
REMARK    7  A    between atoms: C_12  and  O_13
REMARK    8  A    between atoms: O_13  and  C_14
REMARK                            x       y       z     vdW  Elec       q    Type
REMARK                         _______ _______ _______ _____ _____    ______ ____
ROOT
ATOM      1  C   LIG A   1     -10.774   6.284 131.891  0.00  0.00    +0.128 A 
ATOM      2  C   LIG A   1      -9.782   6.577 130.947  0.00  0.00    +0.064 A 
ATOM      3  C   LIG A   1     -10.115   7.350 129.830  0.00  0.00    +0.030 A 
ATOM      4  C   LIG A   1     -11.430   7.826 129.649  0.00  0.00    +0.060 A 
ATOM      5  C   LIG A   1     -12.398   7.553 130.624  0.00  0.00    +0.018 A 
ATOM      6  C   LIG A   1     -12.068   6.787 131.745  0.00  0.00    +0.047 A 
ENDROOT
BRANCH   1   7
ATOM      7  O   LIG A   1     -10.543   5.497 132.985  0.00  0.00    -0.506 OA
ATOM      8  H   LIG A   1      -9.570   5.377 133.070  0.00  0.00    +0.292 HD
ENDBRANCH   1   7
BRANCH   2   9
ATOM      9  C   LIG A   1      -8.415   6.005 131.089  0.00  0.00    +0.190 C 
ATOM     10  O   LIG A   1      -7.722   6.366 132.035  0.00  0.00    -0.287 OA
BRANCH   9  11
ATOM     11  C   LIG A   1      -7.936   5.080 130.019  0.00  0.00    +0.050 C 
ATOM     12  C   LIG A   1      -8.416   3.858 129.711  0.00  0.00    -0.072 C 
ATOM     13  C   LIG A   1      -9.563   3.147 130.376  0.00  0.00    +0.039 C 
ATOM     14  C   LIG A   1      -7.796   3.075 128.581  0.00  0.00    +0.039 C 
ENDBRANCH   9  11
ENDBRANCH   2   9
BRANCH   4  15
ATOM     15  C   LIG A   1     -11.833   8.560 128.402  0.00  0.00    +0.339 C 
ATOM     16  O   LIG A   1     -12.923   9.091 128.232  0.00  0.00    -0.245 OA
BRANCH  15  17
ATOM     17  O   LIG A   1     -10.812   8.467 127.526  0.00  0.00    -0.465 OA
ATOM     18  C   LIG A   1     -11.046   7.721 126.325  0.00  0.00    +0.280 C 
ENDBRANCH  15  17
ENDBRANCH   4  15
TORSDOF 5
ENDMDL
MODEL 4
REMARK VINA RESULT:      -6.4      9.883     10.871
REMARK  Name = NuBBE_358
REMARK  8 active torsions:
REMARK  status: ('A' for Active; 'I' for Inactive)
REMARK    1  A    between atoms: O_1  and  C_2
REMARK    2  A    between atoms: C_3  and  C_4
REMARK    3  A    between atoms: C_4  and  C_5
REMARK    4  A    between atoms: C_6  and  C_7
REMARK    5  A    between atoms: C_6  and  C_8
REMARK    6  A    between atoms: C_11  and  C_12
REMARK    7  A    between atoms: C_12  and  O_13
REMARK    8  A    between atoms: O_13  and  C_14
REMARK                            x       y       z     vdW  Elec       q    Type
REMARK                         _______ _______ _______ _____ _____    ______ ____
ROOT
ATOM      1  C   LIG A   1      -9.347  -0.402 122.898  0.00  0.00    +0.128 A 
ATOM      2  C   LIG A   1      -8.271   0.382 123.333  0.00  0.00    +0.064 A 
ATOM      3  C   LIG A   1      -7.103  -0.252 123.768  0.00  0.00    +0.030 A 
ATOM      4  C   LIG A   1      -7.006  -1.658 123.777  0.00  0.00    +0.060 A 
ATOM      5  C   LIG A   1      -8.080  -2.422 123.304  0.00  0.00    +0.018 A 
ATOM      6  C   LIG A   1      -9.247  -1.794 122.861  0.00  0.00    +0.047 A 
ENDROOT
BRANCH   1   7
ATOM      7  O   LIG A   1     -10.541   0.137 122.502  0.00  0.00    -0.506 OA
ATOM      8  H   LIG A   1     -10.423   0.496 121.593  0.00  0.00    +0.292 HD
ENDBRANCH   1   7
BRANCH   2   9
ATOM      9  C   LIG A   1      -8.400   1.863 123.406  0.00  0.00    +0.190 C 
ATOM     10  O   LIG A   1      -9.314   2.342 124.070  0.00  0.00    -0.287 OA
BRANCH   9  11
ATOM     11  C   LIG A   1      -7.451   2.682 122.593  0.00  0.00    +0.050 C 
ATOM     12  C   LIG A   1      -6.369   3.360 123.027  0.00  0.00    -0.072 C 
ATOM     13  C   LIG A   1      -5.860   3.436 124.441  0.00  0.00    +0.039 C 
ATOM     14  C   LIG A   1      -5.525   4.129 122.042  0.00  0.00    +0.039 C 
ENDBRANCH   9  11
ENDBRANCH   2   9
BRANCH   4  15
ATOM     15  C   LIG A   1      -5.805  -2.357 124.346  0.00  0.00    +0.339 C 
ATOM     16  O   LIG A   1      -5.466  -2.308 125.521  0.00  0.00    -0.245 OA
BRANCH  15  17
ATOM     17  O   LIG A   1      -5.172  -2.977 123.329  0.00  0.00    -0.465 OA
ATOM     18  C   LIG A   1      -4.470  -4.187 123.634  0.00  0.00    +0.280 C 
ENDBRANCH  15  17
ENDBRANCH   4  15
TORSDOF 5
ENDMDL
MODEL 5
REMARK VINA RESULT:      -6.4      9.355     10.769
REMARK  Name = NuBBE_358
REMARK  8 active torsions:
REMARK  status: ('A' for Active; 'I' for Inactive)
REMARK    1  A    between atoms: O_1  and  C_2
REMARK    2  A    between atoms: C_3  and  C_4
REMARK    3  A    between atoms: C_4  and  C_5
REMARK    4  A    between atoms: C_6  and  C_7
REMARK    5  A    between atoms: C_6  and  C_8
REMARK    6  A    between atoms: C_11  and  C_12
REMARK    7  A    between atoms: C_12  and  O_13
REMARK    8  A    between atoms: O_13  and  C_14
REMARK                            x       y       z     vdW  Elec       q    Type
REMARK                         _______ _______ _______ _____ _____    ______ ____
ROOT
ATOM      1  C   LIG A   1      -9.124   1.195 124.485  0.00  0.00    +0.128 A 
ATOM      2  C   LIG A   1      -8.172   0.609 123.640  0.00  0.00    +0.064 A 
ATOM      3  C   LIG A   1      -7.163   1.411 123.098  0.00  0.00    +0.030 A 
ATOM      4  C   LIG A   1      -7.103   2.789 123.387  0.00  0.00    +0.060 A 
ATOM      5  C   LIG A   1      -8.043   3.347 124.263  0.00  0.00    +0.018 A 
ATOM      6  C   LIG A   1      -9.049   2.550 124.813  0.00  0.00    +0.047 A 
ENDROOT
BRANCH   1   7
ATOM      7  O   LIG A   1     -10.170   0.492 125.018  0.00  0.00    -0.506 OA
ATOM      8  H   LIG A   1     -11.005   0.898 124.691  0.00  0.00    +0.292 HD
ENDBRANCH   1   7
BRANCH   2   9
ATOM      9  C   LIG A   1      -8.282  -0.827 123.264  0.00  0.00    +0.190 C 
ATOM     10  O   LIG A   1      -9.394  -1.291 123.031  0.00  0.00    -0.287 OA
BRANCH   9  11
ATOM     11  C   LIG A   1      -7.031  -1.643 123.271  0.00  0.00    +0.050 C 
ATOM     12  C   LIG A   1      -6.808  -2.802 123.922  0.00  0.00    -0.072 C 
ATOM     13  C   LIG A   1      -7.783  -3.551 124.788  0.00  0.00    +0.039 C 
ATOM     14  C   LIG A   1      -5.468  -3.483 123.797  0.00  0.00    +0.039 C 
ENDBRANCH   9  11
ENDBRANCH   2   9
BRANCH   4  15
ATOM     15  C   LIG A   1      -6.097   3.686 122.725  0.00  0.00    +0.339 C 
ATOM     16  O   LIG A   1      -5.614   4.686 123.241  0.00  0.00    -0.245 OA
BRANCH  15  17
ATOM     17  O   LIG A   1      -5.887   3.215 121.479  0.00  0.00    -0.465 OA
ATOM     18  C   LIG A   1      -6.019   4.144 120.397  0.00  0.00    +0.280 C 
ENDBRANCH  15  17
ENDBRANCH   4  15
TORSDOF 5
ENDMDL
MODEL 6
REMARK VINA RESULT:      -6.3      1.284      1.572
REMARK  Name = NuBBE_358
REMARK  8 active torsions:
REMARK  status: ('A' for Active; 'I' for Inactive)
REMARK    1  A    between atoms: O_1  and  C_2
REMARK    2  A    between atoms: C_3  and  C_4
REMARK    3  A    between atoms: C_4  and  C_5
REMARK    4  A    between atoms: C_6  and  C_7
REMARK    5  A    between atoms: C_6  and  C_8
REMARK    6  A    between atoms: C_11  and  C_12
REMARK    7  A    between atoms: C_12  and  O_13
REMARK    8  A    between atoms: O_13  and  C_14
REMARK                            x       y       z     vdW  Elec       q    Type
REMARK                         _______ _______ _______ _____ _____    ______ ____
ROOT
ATOM      1  C   LIG A   1      -9.611   5.758 132.454  0.00  0.00    +0.128 A 
ATOM      2  C   LIG A   1      -9.434   6.025 131.090  0.00  0.00    +0.064 A 
ATOM      3  C   LIG A   1      -8.162   6.380 130.628  0.00  0.00    +0.030 A 
ATOM      4  C   LIG A   1      -7.072   6.474 131.517  0.00  0.00    +0.060 A 
ATOM      5  C   LIG A   1      -7.264   6.167 132.870  0.00  0.00    +0.018 A 
ATOM      6  C   LIG A   1      -8.530   5.805 133.336  0.00  0.00    +0.047 A 
ENDROOT
BRANCH   1   7
ATOM      7  O   LIG A   1     -10.830   5.451 132.994  0.00  0.00    -0.506 OA
ATOM      8  H   LIG A   1     -11.426   5.180 132.259  0.00  0.00    +0.292 HD
ENDBRANCH   1   7
BRANCH   2   9
ATOM      9  C   LIG A   1     -10.599   6.011 130.163  0.00  0.00    +0.190 C 
ATOM     10  O   LIG A   1     -10.704   5.086 129.365  0.00  0.00    -0.287 OA
BRANCH   9  11
ATOM     11  C   LIG A   1     -11.532   7.177 130.206  0.00  0.00    +0.050 C 
ATOM     12  C   LIG A   1     -11.576   8.227 129.362  0.00  0.00    -0.072 C 
ATOM     13  C   LIG A   1     -10.693   8.461 128.167  0.00  0.00    +0.039 C 
ATOM     14  C   LIG A   1     -12.606   9.309 129.569  0.00  0.00    +0.039 C 
ENDBRANCH   9  11
ENDBRANCH   2   9
BRANCH   4  15
ATOM     15  C   LIG A   1      -5.728   6.962 131.060  0.00  0.00    +0.339 C 
ATOM     16  O   LIG A   1      -5.556   7.793 130.178  0.00  0.00    -0.245 OA
BRANCH  15  17
ATOM     17  O   LIG A   1      -4.790   6.284 131.752  0.00  0.00    -0.465 OA
ATOM     18  C   LIG A   1      -3.420   6.612 131.493  0.00  0.00    +0.280 C 
ENDBRANCH  15  17
ENDBRANCH   4  15
TORSDOF 5
ENDMDL
MODEL 7
REMARK VINA RESULT:      -6.1      8.968     10.612
REMARK  Name = NuBBE_358
REMARK  8 active torsions:
REMARK  status: ('A' for Active; 'I' for Inactive)
REMARK    1  A    between atoms: O_1  and  C_2
REMARK    2  A    between atoms: C_3  and  C_4
REMARK    3  A    between atoms: C_4  and  C_5
REMARK    4  A    between atoms: C_6  and  C_7
REMARK    5  A    between atoms: C_6  and  C_8
REMARK    6  A    between atoms: C_11  and  C_12
REMARK    7  A    between atoms: C_12  and  O_13
REMARK    8  A    between atoms: O_13  and  C_14
REMARK                            x       y       z     vdW  Elec       q    Type
REMARK                         _______ _______ _______ _____ _____    ______ ____
ROOT
ATOM      1  C   LIG A   1      -9.492   0.479 123.158  0.00  0.00    +0.128 A 
ATOM      2  C   LIG A   1      -8.489  -0.154 123.904  0.00  0.00    +0.064 A 
ATOM      3  C   LIG A   1      -7.542   0.631 124.570  0.00  0.00    +0.030 A 
ATOM      4  C   LIG A   1      -7.588   2.038 124.491  0.00  0.00    +0.060 A 
ATOM      5  C   LIG A   1      -8.621   2.650 123.770  0.00  0.00    +0.018 A 
ATOM      6  C   LIG A   1      -9.573   1.872 123.109  0.00  0.00    +0.047 A 
ENDROOT
BRANCH   1   7
ATOM      7  O   LIG A   1     -10.427  -0.215 122.439  0.00  0.00    -0.506 OA
ATOM      8  H   LIG A   1      -9.954  -0.725 121.742  0.00  0.00    +0.292 HD
ENDBRANCH   1   7
BRANCH   2   9
ATOM      9  C   LIG A   1      -8.386  -1.639 123.919  0.00  0.00    +0.190 C 
ATOM     10  O   LIG A   1      -9.302  -2.287 124.414  0.00  0.00    -0.287 OA
BRANCH   9  11
ATOM     11  C   LIG A   1      -7.126  -2.251 123.400  0.00  0.00    +0.050 C 
ATOM     12  C   LIG A   1      -6.029  -2.597 124.103  0.00  0.00    -0.072 C 
ATOM     13  C   LIG A   1      -5.827  -2.454 125.587  0.00  0.00    +0.039 C 
ATOM     14  C   LIG A   1      -4.850  -3.215 123.393  0.00  0.00    +0.039 C 
ENDBRANCH   9  11
ENDBRANCH   2   9
BRANCH   4  15
ATOM     15  C   LIG A   1      -6.516   2.892 125.105  0.00  0.00    +0.339 C 
ATOM     16  O   LIG A   1      -5.403   2.490 125.416  0.00  0.00    -0.245 OA
BRANCH  15  17
ATOM     17  O   LIG A   1      -7.031   4.125 125.286  0.00  0.00    -0.465 OA
ATOM     18  C   LIG A   1      -6.152   5.238 125.082  0.00  0.00    +0.280 C 
ENDBRANCH  15  17
ENDBRANCH   4  15
TORSDOF 5
ENDMDL
MODEL 8
REMARK VINA RESULT:      -6.1      3.509      4.294
REMARK  Name = NuBBE_358
REMARK  8 active torsions:
REMARK  status: ('A' for Active; 'I' for Inactive)
REMARK    1  A    between atoms: O_1  and  C_2
REMARK    2  A    between atoms: C_3  and  C_4
REMARK    3  A    between atoms: C_4  and  C_5
REMARK    4  A    between atoms: C_6  and  C_7
REMARK    5  A    between atoms: C_6  and  C_8
REMARK    6  A    between atoms: C_11  and  C_12
REMARK    7  A    between atoms: C_12  and  O_13
REMARK    8  A    between atoms: O_13  and  C_14
REMARK                            x       y       z     vdW  Elec       q    Type
REMARK                         _______ _______ _______ _____ _____    ______ ____
ROOT
ATOM      1  C   LIG A   1      -9.347   5.100 132.863  0.00  0.00    +0.128 A 
ATOM      2  C   LIG A   1      -9.468   4.914 131.480  0.00  0.00    +0.064 A 
ATOM      3  C   LIG A   1      -9.473   3.611 130.969  0.00  0.00    +0.030 A 
ATOM      4  C   LIG A   1      -9.353   2.500 131.828  0.00  0.00    +0.060 A 
ATOM      5  C   LIG A   1      -9.270   2.707 133.210  0.00  0.00    +0.018 A 
ATOM      6  C   LIG A   1      -9.272   4.005 133.727  0.00  0.00    +0.047 A 
ENDROOT
BRANCH   1   7
ATOM      7  O   LIG A   1      -9.286   6.340 133.439  0.00  0.00    -0.506 OA
ATOM      8  H   LIG A   1      -8.348   6.635 133.420  0.00  0.00    +0.292 HD
ENDBRANCH   1   7
BRANCH   2   9
ATOM      9  C   LIG A   1      -9.508   6.086 130.564  0.00  0.00    +0.190 C 
ATOM     10  O   LIG A   1      -8.597   6.905 130.616  0.00  0.00    -0.287 OA
BRANCH   9  11
ATOM     11  C   LIG A   1     -10.707   6.238 129.685  0.00  0.00    +0.050 C 
ATOM     12  C   LIG A   1     -11.938   6.658 130.039  0.00  0.00    -0.072 C 
ATOM     13  C   LIG A   1     -12.386   7.085 131.410  0.00  0.00    +0.039 C 
ATOM     14  C   LIG A   1     -13.024   6.751 128.995  0.00  0.00    +0.039 C 
ENDBRANCH   9  11
ENDBRANCH   2   9
BRANCH   4  15
ATOM     15  C   LIG A   1      -9.243   1.103 131.289  0.00  0.00    +0.339 C 
ATOM     16  O   LIG A   1      -9.702   0.109 131.838  0.00  0.00    -0.245 OA
BRANCH  15  17
ATOM     17  O   LIG A   1      -8.516   1.158 130.154  0.00  0.00    -0.465 OA
ATOM     18  C   LIG A   1      -7.775  -0.013 129.793  0.00  0.00    +0.280 C 
ENDBRANCH  15  17
ENDBRANCH   4  15
TORSDOF 5
ENDMDL
MODEL 9
REMARK VINA RESULT:      -6.1      9.122     10.636
REMARK  Name = NuBBE_358
REMARK  8 active torsions:
REMARK  status: ('A' for Active; 'I' for Inactive)
REMARK    1  A    between atoms: O_1  and  C_2
REMARK    2  A    between atoms: C_3  and  C_4
REMARK    3  A    between atoms: C_4  and  C_5
REMARK    4  A    between atoms: C_6  and  C_7
REMARK    5  A    between atoms: C_6  and  C_8
REMARK    6  A    between atoms: C_11  and  C_12
REMARK    7  A    between atoms: C_12  and  O_13
REMARK    8  A    between atoms: O_13  and  C_14
REMARK                            x       y       z     vdW  Elec       q    Type
REMARK                         _______ _______ _______ _____ _____    ______ ____
ROOT
ATOM      1  C   LIG A   1      -9.542  -0.275 123.634  0.00  0.00    +0.128 A 
ATOM      2  C   LIG A   1      -9.059  -1.173 124.595  0.00  0.00    +0.064 A 
ATOM      3  C   LIG A   1      -8.716  -0.690 125.863  0.00  0.00    +0.030 A 
ATOM      4  C   LIG A   1      -8.847   0.680 126.172  0.00  0.00    +0.060 A 
ATOM      5  C   LIG A   1      -9.366   1.553 125.208  0.00  0.00    +0.018 A 
ATOM      6  C   LIG A   1      -9.717   1.075 123.944  0.00  0.00    +0.047 A 
ENDROOT
BRANCH   1   7
ATOM      7  O   LIG A   1      -9.854  -0.657 122.358  0.00  0.00    -0.506 OA
ATOM      8  H   LIG A   1     -10.569  -0.065 122.033  0.00  0.00    +0.292 HD
ENDBRANCH   1   7
BRANCH   2   9
ATOM      9  C   LIG A   1      -8.839  -2.603 124.246  0.00  0.00    +0.190 C 
ATOM     10  O   LIG A   1      -9.800  -3.277 123.893  0.00  0.00    -0.287 OA
BRANCH   9  11
ATOM     11  C   LIG A   1      -7.462  -3.156 124.426  0.00  0.00    +0.050 C 
ATOM     12  C   LIG A   1      -6.361  -2.873 123.703  0.00  0.00    -0.072 C 
ATOM     13  C   LIG A   1      -6.263  -1.918 122.544  0.00  0.00    +0.039 C 
ATOM     14  C   LIG A   1      -5.050  -3.535 124.048  0.00  0.00    +0.039 C 
ENDBRANCH   9  11
ENDBRANCH   2   9
BRANCH   4  15
ATOM     15  C   LIG A   1      -8.378   1.234 127.486  0.00  0.00    +0.339 C 
ATOM     16  O   LIG A   1      -7.955   0.556 128.414  0.00  0.00    -0.245 OA
BRANCH  15  17
ATOM     17  O   LIG A   1      -8.565   2.569 127.456  0.00  0.00    -0.465 OA
ATOM     18  C   LIG A   1      -7.451   3.395 127.819  0.00  0.00    +0.280 C 
ENDBRANCH  15  17
ENDBRANCH   4  15
TORSDOF 5
ENDMDL
