MODEL 1
REMARK VINA RESULT:      -7.9      0.000      0.000
REMARK  Name = NuBBE_237
REMARK  18 active torsions:
REMARK  status: ('A' for Active; 'I' for Inactive)
REMARK    1  A    between atoms: C_1  and  C_2
REMARK    2  A    between atoms: C_7  and  O_9
REMARK    3  A    between atoms: C_12  and  O_14
REMARK    4  A    between atoms: O_14  and  C_15
REMARK    5  A    between atoms: C_15  and  C_16
REMARK    6  A    between atoms: C_19  and  O_21
REMARK    7  A    between atoms: O_21  and  C_22
REMARK    8  A    between atoms: C_22  and  C_23
REMARK    9  A    between atoms: C_26  and  O_28
REMARK   10  A    between atoms: O_28  and  C_29
REMARK   11  A    between atoms: C_29  and  C_30
REMARK   12  A    between atoms: C_30  and  C_31
REMARK   13  A    between atoms: C_30  and  C_32
REMARK   14  A    between atoms: C_37  and  C_38
REMARK   15  A    between atoms: C_37  and  C_39
REMARK   16  A    between atoms: C_39  and  C_40
REMARK   17  A    between atoms: C_41  and  C_42
REMARK   18  A    between atoms: C_41  and  C_44
REMARK                            x       y       z     vdW  Elec       q    Type
REMARK                         _______ _______ _______ _____ _____    ______ ____
ROOT
ATOM      1  C   LIG A   1      -6.357   1.939 132.802  0.00  0.00    +0.008 C 
ATOM      2  C   LIG A   1      -7.736   2.563 133.019  0.00  0.00    -0.005 C 
ATOM      3  C   LIG A   1      -8.768   2.072 131.999  0.00  0.00    +0.036 C 
ATOM      4  C   LIG A   1      -8.602   2.627 130.592  0.00  0.00    +0.131 C 
ATOM      5  C   LIG A   1      -7.979   4.059 130.463  0.00  0.00    +0.089 C 
ATOM      6  C   LIG A   1      -8.648   4.749 129.286  0.00  0.00    +0.012 C 
ATOM      7  C   LIG A   1      -8.084   4.176 128.014  0.00  0.00    +0.343 C 
ATOM      8  O   LIG A   1      -6.770   3.739 128.368  0.00  0.00    -0.297 OA
ATOM      9  C   LIG A   1      -6.561   4.021 129.766  0.00  0.00    +0.327 C 
ATOM     10  C   LIG A   1      -9.498   5.778 129.360  0.00  0.00    +0.023 C 
ATOM     11  C   LIG A   1     -10.012   6.377 130.604  0.00  0.00    +0.200 C 
ATOM     12  C   LIG A   1      -9.134   6.067 131.826  0.00  0.00    +0.054 C 
ATOM     13  C   LIG A   1      -8.050   4.910 131.798  0.00  0.00    +0.018 C 
ATOM     14  C   LIG A   1      -7.829   4.128 133.204  0.00  0.00    -0.022 C 
ATOM     15  C   LIG A   1      -9.026   4.290 134.198  0.00  0.00    +0.012 C 
ENDROOT
BRANCH   4  16
ATOM     16  O   LIG A   1      -7.855   1.662 129.846  0.00  0.00    -0.391 OA
ATOM     17  H   LIG A   1      -8.005   1.818 128.897  0.00  0.00    +0.210 HD
ENDBRANCH   4  16
BRANCH   7  18
ATOM     18  O   LIG A   1      -8.004   5.145 126.970  0.00  0.00    -0.431 OA
BRANCH  18  19
ATOM     19  C   LIG A   1      -7.918   4.609 125.716  0.00  0.00    +0.306 C 
ATOM     20  C   LIG A   1      -6.579   4.910 125.107  0.00  0.00    +0.136 C 
ATOM     21  O   LIG A   1      -8.786   3.997 125.143  0.00  0.00    -0.251 OA
ENDBRANCH  18  19
ENDBRANCH   7  18
BRANCH   9  22
ATOM     22  O   LIG A   1      -5.878   5.282 129.880  0.00  0.00    -0.434 OA
BRANCH  22  23
ATOM     23  C   LIG A   1      -4.732   5.386 129.160  0.00  0.00    +0.306 C 
ATOM     24  C   LIG A   1      -3.715   4.430 129.692  0.00  0.00    +0.136 C 
ATOM     25  O   LIG A   1      -4.526   6.150 128.219  0.00  0.00    -0.251 OA
ENDBRANCH  22  23
ENDBRANCH   9  22
BRANCH  11  26
ATOM     26  O   LIG A   1     -11.374   5.905 130.726  0.00  0.00    -0.457 OA
BRANCH  26  27
ATOM     27  C   LIG A   1     -12.322   6.893 130.752  0.00  0.00    +0.310 C 
ATOM     28  O   LIG A   1     -13.016   7.187 131.726  0.00  0.00    -0.251 OA
BRANCH  27  29
ATOM     29  C   LIG A   1     -12.396   7.628 129.414  0.00  0.00    +0.092 C 
ATOM     30  C   LIG A   1     -13.406   6.941 128.509  0.00  0.00    +0.019 C 
ATOM     31  C   LIG A   1     -12.769   9.107 129.607  0.00  0.00    +0.019 C 
ENDBRANCH  27  29
ENDBRANCH  26  27
ENDBRANCH  11  26
BRANCH  14  32
ATOM     32  C   LIG A   1      -6.530   4.694 133.950  0.00  0.00    +0.034 C 
BRANCH  32  33
ATOM     33  C   LIG A   1      -5.711   5.738 133.204  0.00  0.00    -0.023 C 
ATOM     34  C   LIG A   1      -4.371   5.926 133.157  0.00  0.00    -0.055 C 
ATOM     35  C   LIG A   1      -3.800   7.046 132.310  0.00  0.00    +0.043 C 
BRANCH  34  36
ATOM     36  C   LIG A   1      -3.391   5.084 133.830  0.00  0.00    -0.005 C 
ATOM     37  C   LIG A   1      -2.679   4.110 133.237  0.00  0.00    +0.008 C 
ENDBRANCH  34  36
ENDBRANCH  32  33
ENDBRANCH  14  32
TORSDOF 11
ENDMDL
MODEL 2
REMARK VINA RESULT:      -7.6      5.276      9.246
REMARK  Name = NuBBE_237
REMARK  18 active torsions:
REMARK  status: ('A' for Active; 'I' for Inactive)
REMARK    1  A    between atoms: C_1  and  C_2
REMARK    2  A    between atoms: C_7  and  O_9
REMARK    3  A    between atoms: C_12  and  O_14
REMARK    4  A    between atoms: O_14  and  C_15
REMARK    5  A    between atoms: C_15  and  C_16
REMARK    6  A    between atoms: C_19  and  O_21
REMARK    7  A    between atoms: O_21  and  C_22
REMARK    8  A    between atoms: C_22  and  C_23
REMARK    9  A    between atoms: C_26  and  O_28
REMARK   10  A    between atoms: O_28  and  C_29
REMARK   11  A    between atoms: C_29  and  C_30
REMARK   12  A    between atoms: C_30  and  C_31
REMARK   13  A    between atoms: C_30  and  C_32
REMARK   14  A    between atoms: C_37  and  C_38
REMARK   15  A    between atoms: C_37  and  C_39
REMARK   16  A    between atoms: C_39  and  C_40
REMARK   17  A    between atoms: C_41  and  C_42
REMARK   18  A    between atoms: C_41  and  C_44
REMARK                            x       y       z     vdW  Elec       q    Type
REMARK                         _______ _______ _______ _____ _____    ______ ____
ROOT
ATOM      1  C   LIG A   1      -8.110   3.869 125.475  0.00  0.00    +0.008 C 
ATOM      2  C   LIG A   1      -8.436   2.428 125.080  0.00  0.00    -0.005 C 
ATOM      3  C   LIG A   1      -8.974   1.606 126.255  0.00  0.00    +0.036 C 
ATOM      4  C   LIG A   1      -7.937   1.215 127.299  0.00  0.00    +0.131 C 
ATOM      5  C   LIG A   1      -6.466   1.016 126.799  0.00  0.00    +0.089 C 
ATOM      6  C   LIG A   1      -5.849  -0.109 127.614  0.00  0.00    +0.012 C 
ATOM      7  C   LIG A   1      -5.520   0.421 128.984  0.00  0.00    +0.343 C 
ATOM      8  O   LIG A   1      -5.298   1.819 128.784  0.00  0.00    -0.297 OA
ATOM      9  C   LIG A   1      -5.493   2.113 127.388  0.00  0.00    +0.327 C 
ATOM     10  C   LIG A   1      -5.535  -1.326 127.159  0.00  0.00    +0.023 C 
ATOM     11  C   LIG A   1      -5.808  -1.830 125.802  0.00  0.00    +0.200 C 
ATOM     12  C   LIG A   1      -6.041  -0.706 124.780  0.00  0.00    +0.054 C 
ATOM     13  C   LIG A   1      -6.348   0.780 125.236  0.00  0.00    +0.018 C 
ATOM     14  C   LIG A   1      -7.355   1.611 124.270  0.00  0.00    -0.022 C 
ATOM     15  C   LIG A   1      -8.228   0.696 123.351  0.00  0.00    +0.012 C 
ENDROOT
BRANCH   4  16
ATOM     16  O   LIG A   1      -8.008   2.190 128.344  0.00  0.00    -0.391 OA
ATOM     17  H   LIG A   1      -7.671   1.791 129.165  0.00  0.00    +0.210 HD
ENDBRANCH   4  16
BRANCH   7  18
ATOM     18  O   LIG A   1      -4.347  -0.180 129.530  0.00  0.00    -0.431 OA
BRANCH  18  19
ATOM     19  C   LIG A   1      -4.594  -1.080 130.527  0.00  0.00    +0.306 C 
ATOM     20  C   LIG A   1      -3.419  -1.996 130.712  0.00  0.00    +0.136 C 
ATOM     21  O   LIG A   1      -5.612  -1.168 131.171  0.00  0.00    -0.251 OA
ENDBRANCH  18  19
ENDBRANCH   7  18
BRANCH   9  22
ATOM     22  O   LIG A   1      -4.211   2.093 126.734  0.00  0.00    -0.434 OA
BRANCH  22  23
ATOM     23  C   LIG A   1      -3.726   3.309 126.375  0.00  0.00    +0.306 C 
ATOM     24  C   LIG A   1      -2.532   3.640 127.210  0.00  0.00    +0.136 C 
ATOM     25  O   LIG A   1      -4.184   4.053 125.511  0.00  0.00    -0.251 OA
ENDBRANCH  22  23
ENDBRANCH   9  22
BRANCH  11  26
ATOM     26  O   LIG A   1      -6.930  -2.734 125.945  0.00  0.00    -0.457 OA
BRANCH  26  27
ATOM     27  C   LIG A   1      -7.247  -3.433 124.811  0.00  0.00    +0.310 C 
ATOM     28  O   LIG A   1      -6.433  -3.946 124.042  0.00  0.00    -0.251 OA
BRANCH  27  29
ATOM     29  C   LIG A   1      -8.760  -3.534 124.624  0.00  0.00    +0.092 C 
ATOM     30  C   LIG A   1      -9.466  -2.862 125.790  0.00  0.00    +0.019 C 
ATOM     31  C   LIG A   1      -9.203  -2.904 123.293  0.00  0.00    +0.019 C 
ENDBRANCH  27  29
ENDBRANCH  26  27
ENDBRANCH  11  26
BRANCH  14  32
ATOM     32  C   LIG A   1      -6.518   2.574 123.301  0.00  0.00    +0.034 C 
BRANCH  32  33
ATOM     33  C   LIG A   1      -7.237   3.095 122.065  0.00  0.00    -0.023 C 
ATOM     34  C   LIG A   1      -6.743   3.700 120.959  0.00  0.00    -0.055 C 
ATOM     35  C   LIG A   1      -7.685   4.111 119.844  0.00  0.00    +0.043 C 
BRANCH  34  36
ATOM     36  C   LIG A   1      -5.329   3.953 120.712  0.00  0.00    -0.005 C 
ATOM     37  C   LIG A   1      -4.694   5.104 120.995  0.00  0.00    +0.008 C 
ENDBRANCH  34  36
ENDBRANCH  32  33
ENDBRANCH  14  32
TORSDOF 11
ENDMDL
MODEL 3
REMARK VINA RESULT:      -7.5      2.141      5.486
REMARK  Name = NuBBE_237
REMARK  18 active torsions:
REMARK  status: ('A' for Active; 'I' for Inactive)
REMARK    1  A    between atoms: C_1  and  C_2
REMARK    2  A    between atoms: C_7  and  O_9
REMARK    3  A    between atoms: C_12  and  O_14
REMARK    4  A    between atoms: O_14  and  C_15
REMARK    5  A    between atoms: C_15  and  C_16
REMARK    6  A    between atoms: C_19  and  O_21
REMARK    7  A    between atoms: O_21  and  C_22
REMARK    8  A    between atoms: C_22  and  C_23
REMARK    9  A    between atoms: C_26  and  O_28
REMARK   10  A    between atoms: O_28  and  C_29
REMARK   11  A    between atoms: C_29  and  C_30
REMARK   12  A    between atoms: C_30  and  C_31
REMARK   13  A    between atoms: C_30  and  C_32
REMARK   14  A    between atoms: C_37  and  C_38
REMARK   15  A    between atoms: C_37  and  C_39
REMARK   16  A    between atoms: C_39  and  C_40
REMARK   17  A    between atoms: C_41  and  C_42
REMARK   18  A    between atoms: C_41  and  C_44
REMARK                            x       y       z     vdW  Elec       q    Type
REMARK                         _______ _______ _______ _____ _____    ______ ____
ROOT
ATOM      1  C   LIG A   1      -7.680   0.608 129.520  0.00  0.00    +0.008 C 
ATOM      2  C   LIG A   1      -6.899   1.253 130.665  0.00  0.00    -0.005 C 
ATOM      3  C   LIG A   1      -7.813   1.944 131.681  0.00  0.00    +0.036 C 
ATOM      4  C   LIG A   1      -8.436   3.250 131.207  0.00  0.00    +0.131 C 
ATOM      5  C   LIG A   1      -7.614   4.095 130.175  0.00  0.00    +0.089 C 
ATOM      6  C   LIG A   1      -7.864   5.563 130.478  0.00  0.00    +0.012 C 
ATOM      7  C   LIG A   1      -9.237   5.925 129.978  0.00  0.00    +0.343 C 
ATOM      8  O   LIG A   1      -9.477   5.019 128.899  0.00  0.00    -0.297 OA
ATOM      9  C   LIG A   1      -8.329   4.158 128.768  0.00  0.00    +0.327 C 
ATOM     10  C   LIG A   1      -6.975   6.422 130.987  0.00  0.00    +0.023 C 
ATOM     11  C   LIG A   1      -5.612   6.082 131.428  0.00  0.00    +0.200 C 
ATOM     12  C   LIG A   1      -5.093   4.770 130.819  0.00  0.00    +0.054 C 
ATOM     13  C   LIG A   1      -6.073   3.729 130.133  0.00  0.00    +0.018 C 
ATOM     14  C   LIG A   1      -5.663   2.167 130.307  0.00  0.00    -0.022 C 
ATOM     15  C   LIG A   1      -4.685   1.913 131.501  0.00  0.00    +0.012 C 
ENDROOT
BRANCH   4  16
ATOM     16  O   LIG A   1      -9.739   2.934 130.707  0.00  0.00    -0.391 OA
ATOM     17  H   LIG A   1     -10.202   2.390 131.368  0.00  0.00    +0.210 HD
ENDBRANCH   4  16
BRANCH   7  18
ATOM     18  O   LIG A   1      -9.303   7.269 129.501  0.00  0.00    -0.431 OA
BRANCH  18  19
ATOM     19  C   LIG A   1     -10.575   7.738 129.333  0.00  0.00    +0.306 C 
ATOM     20  C   LIG A   1     -10.693   8.480 128.032  0.00  0.00    +0.136 C 
ATOM     21  O   LIG A   1     -11.489   7.613 130.112  0.00  0.00    -0.251 OA
ENDBRANCH  18  19
ENDBRANCH   7  18
BRANCH   9  22
ATOM     22  O   LIG A   1      -7.463   4.705 127.756  0.00  0.00    -0.434 OA
BRANCH  22  23
ATOM     23  C   LIG A   1      -7.938   4.631 126.487  0.00  0.00    +0.306 C 
ATOM     24  C   LIG A   1      -7.887   3.215 126.012  0.00  0.00    +0.136 C 
ATOM     25  O   LIG A   1      -8.342   5.568 125.801  0.00  0.00    -0.251 OA
ENDBRANCH  22  23
ENDBRANCH   9  22
BRANCH  11  26
ATOM     26  O   LIG A   1      -5.665   6.075 132.875  0.00  0.00    -0.457 OA
BRANCH  26  27
ATOM     27  C   LIG A   1      -5.107   4.971 133.461  0.00  0.00    +0.310 C 
ATOM     28  O   LIG A   1      -3.898   4.751 133.556  0.00  0.00    -0.251 OA
BRANCH  27  29
ATOM     29  C   LIG A   1      -6.177   4.039 134.027  0.00  0.00    +0.092 C 
ATOM     30  C   LIG A   1      -5.566   3.148 135.097  0.00  0.00    +0.019 C 
ATOM     31  C   LIG A   1      -7.363   4.830 134.601  0.00  0.00    +0.019 C 
ENDBRANCH  27  29
ENDBRANCH  26  27
ENDBRANCH  11  26
BRANCH  14  32
ATOM     32  C   LIG A   1      -4.926   1.641 128.986  0.00  0.00    +0.034 C 
BRANCH  32  33
ATOM     33  C   LIG A   1      -4.961   2.556 127.771  0.00  0.00    -0.023 C 
ATOM     34  C   LIG A   1      -3.954   3.198 127.132  0.00  0.00    -0.055 C 
ATOM     35  C   LIG A   1      -4.259   4.047 125.914  0.00  0.00    +0.043 C 
BRANCH  34  36
ATOM     36  C   LIG A   1      -2.546   3.097 127.492  0.00  0.00    -0.005 C 
ATOM     37  C   LIG A   1      -1.535   2.981 126.614  0.00  0.00    +0.008 C 
ENDBRANCH  34  36
ENDBRANCH  32  33
ENDBRANCH  14  32
TORSDOF 11
ENDMDL
MODEL 4
REMARK VINA RESULT:      -7.4      5.281      8.367
REMARK  Name = NuBBE_237
REMARK  18 active torsions:
REMARK  status: ('A' for Active; 'I' for Inactive)
REMARK    1  A    between atoms: C_1  and  C_2
REMARK    2  A    between atoms: C_7  and  O_9
REMARK    3  A    between atoms: C_12  and  O_14
REMARK    4  A    between atoms: O_14  and  C_15
REMARK    5  A    between atoms: C_15  and  C_16
REMARK    6  A    between atoms: C_19  and  O_21
REMARK    7  A    between atoms: O_21  and  C_22
REMARK    8  A    between atoms: C_22  and  C_23
REMARK    9  A    between atoms: C_26  and  O_28
REMARK   10  A    between atoms: O_28  and  C_29
REMARK   11  A    between atoms: C_29  and  C_30
REMARK   12  A    between atoms: C_30  and  C_31
REMARK   13  A    between atoms: C_30  and  C_32
REMARK   14  A    between atoms: C_37  and  C_38
REMARK   15  A    between atoms: C_37  and  C_39
REMARK   16  A    between atoms: C_39  and  C_40
REMARK   17  A    between atoms: C_41  and  C_42
REMARK   18  A    between atoms: C_41  and  C_44
REMARK                            x       y       z     vdW  Elec       q    Type
REMARK                         _______ _______ _______ _____ _____    ______ ____
ROOT
ATOM      1  C   LIG A   1      -4.683  -1.150 131.356  0.00  0.00    +0.008 C 
ATOM      2  C   LIG A   1      -5.003  -2.281 130.379  0.00  0.00    -0.005 C 
ATOM      3  C   LIG A   1      -4.542  -1.971 128.952  0.00  0.00    +0.036 C 
ATOM      4  C   LIG A   1      -5.376  -0.932 128.214  0.00  0.00    +0.131 C 
ATOM      5  C   LIG A   1      -6.892  -0.838 128.596  0.00  0.00    +0.089 C 
ATOM      6  C   LIG A   1      -7.666  -0.499 127.333  0.00  0.00    +0.012 C 
ATOM      7  C   LIG A   1      -7.452   0.958 127.020  0.00  0.00    +0.343 C 
ATOM      8  O   LIG A   1      -7.192   1.563 128.288  0.00  0.00    -0.297 OA
ATOM      9  C   LIG A   1      -7.235   0.536 129.297  0.00  0.00    +0.327 C 
ATOM     10  C   LIG A   1      -8.497  -1.316 126.678  0.00  0.00    +0.023 C 
ATOM     11  C   LIG A   1      -8.750  -2.728 127.013  0.00  0.00    +0.200 C 
ATOM     12  C   LIG A   1      -8.371  -3.078 128.461  0.00  0.00    +0.054 C 
ATOM     13  C   LIG A   1      -7.448  -2.127 129.331  0.00  0.00    +0.018 C 
ATOM     14  C   LIG A   1      -6.464  -2.881 130.380  0.00  0.00    -0.022 C 
ATOM     15  C   LIG A   1      -6.222  -4.386 130.031  0.00  0.00    +0.012 C 
ENDROOT
BRANCH   4  16
ATOM     16  O   LIG A   1      -4.715   0.325 128.376  0.00  0.00    -0.391 OA
ATOM     17  H   LIG A   1      -4.774   0.818 127.538  0.00  0.00    +0.210 HD
ENDBRANCH   4  16
BRANCH   7  18
ATOM     18  O   LIG A   1      -8.601   1.560 126.425  0.00  0.00    -0.431 OA
BRANCH  18  19
ATOM     19  C   LIG A   1      -8.318   2.384 125.374  0.00  0.00    +0.306 C 
ATOM     20  C   LIG A   1      -7.189   1.825 124.556  0.00  0.00    +0.136 C 
ATOM     21  O   LIG A   1      -8.862   3.433 125.125  0.00  0.00    -0.251 OA
ENDBRANCH  18  19
ENDBRANCH   7  18
BRANCH   9  22
ATOM     22  O   LIG A   1      -8.551   0.522 129.879  0.00  0.00    -0.434 OA
BRANCH  22  23
ATOM     23  C   LIG A   1      -8.585   0.555 131.235  0.00  0.00    +0.306 C 
ATOM     24  C   LIG A   1      -7.342   1.202 131.753  0.00  0.00    +0.136 C 
ATOM     25  O   LIG A   1      -9.479   0.116 131.955  0.00  0.00    -0.251 OA
ENDBRANCH  22  23
ENDBRANCH   9  22
BRANCH  11  26
ATOM     26  O   LIG A   1      -8.031  -3.495 126.018  0.00  0.00    -0.457 OA
BRANCH  26  27
ATOM     27  C   LIG A   1      -8.457  -3.301 124.731  0.00  0.00    +0.310 C 
ATOM     28  O   LIG A   1      -9.634  -3.275 124.368  0.00  0.00    -0.251 OA
BRANCH  27  29
ATOM     29  C   LIG A   1      -7.280  -3.083 123.782  0.00  0.00    +0.092 C 
ATOM     30  C   LIG A   1      -7.522  -1.836 122.945  0.00  0.00    +0.019 C 
ATOM     31  C   LIG A   1      -5.954  -2.964 124.550  0.00  0.00    +0.019 C 
ENDBRANCH  27  29
ENDBRANCH  26  27
ENDBRANCH  11  26
BRANCH  14  32
ATOM     32  C   LIG A   1      -7.096  -2.844 131.851  0.00  0.00    +0.034 C 
BRANCH  32  33
ATOM     33  C   LIG A   1      -6.594  -3.887 132.839  0.00  0.00    -0.023 C 
ATOM     34  C   LIG A   1      -7.094  -4.263 134.041  0.00  0.00    -0.055 C 
ATOM     35  C   LIG A   1      -6.406  -5.358 134.831  0.00  0.00    +0.043 C 
BRANCH  34  36
ATOM     36  C   LIG A   1      -8.310  -3.725 134.638  0.00  0.00    -0.005 C 
ATOM     37  C   LIG A   1      -8.488  -3.509 135.953  0.00  0.00    +0.008 C 
ENDBRANCH  34  36
ENDBRANCH  32  33
ENDBRANCH  14  32
TORSDOF 11
ENDMDL
MODEL 5
REMARK VINA RESULT:      -7.3      4.083      7.333
REMARK  Name = NuBBE_237
REMARK  18 active torsions:
REMARK  status: ('A' for Active; 'I' for Inactive)
REMARK    1  A    between atoms: C_1  and  C_2
REMARK    2  A    between atoms: C_7  and  O_9
REMARK    3  A    between atoms: C_12  and  O_14
REMARK    4  A    between atoms: O_14  and  C_15
REMARK    5  A    between atoms: C_15  and  C_16
REMARK    6  A    between atoms: C_19  and  O_21
REMARK    7  A    between atoms: O_21  and  C_22
REMARK    8  A    between atoms: C_22  and  C_23
REMARK    9  A    between atoms: C_26  and  O_28
REMARK   10  A    between atoms: O_28  and  C_29
REMARK   11  A    between atoms: C_29  and  C_30
REMARK   12  A    between atoms: C_30  and  C_31
REMARK   13  A    between atoms: C_30  and  C_32
REMARK   14  A    between atoms: C_37  and  C_38
REMARK   15  A    between atoms: C_37  and  C_39
REMARK   16  A    between atoms: C_39  and  C_40
REMARK   17  A    between atoms: C_41  and  C_42
REMARK   18  A    between atoms: C_41  and  C_44
REMARK                            x       y       z     vdW  Elec       q    Type
REMARK                         _______ _______ _______ _____ _____    ______ ____
ROOT
ATOM      1  C   LIG A   1      -4.604   3.398 129.184  0.00  0.00    +0.008 C 
ATOM      2  C   LIG A   1      -4.448   1.926 128.805  0.00  0.00    -0.005 C 
ATOM      3  C   LIG A   1      -4.339   1.720 127.291  0.00  0.00    +0.036 C 
ATOM      4  C   LIG A   1      -5.637   1.910 126.517  0.00  0.00    +0.131 C 
ATOM      5  C   LIG A   1      -6.968   1.570 127.270  0.00  0.00    +0.089 C 
ATOM      6  C   LIG A   1      -7.936   0.985 126.256  0.00  0.00    +0.012 C 
ATOM      7  C   LIG A   1      -8.472   2.106 125.406  0.00  0.00    +0.343 C 
ATOM      8  O   LIG A   1      -8.401   3.259 126.247  0.00  0.00    -0.297 OA
ATOM      9  C   LIG A   1      -7.847   2.860 127.516  0.00  0.00    +0.327 C 
ATOM     10  C   LIG A   1      -8.342  -0.288 126.203  0.00  0.00    +0.023 C 
ATOM     11  C   LIG A   1      -7.859  -1.378 127.068  0.00  0.00    +0.200 C 
ATOM     12  C   LIG A   1      -7.212  -0.871 128.367  0.00  0.00    +0.054 C 
ATOM     13  C   LIG A   1      -6.766   0.640 128.538  0.00  0.00    +0.018 C 
ATOM     14  C   LIG A   1      -5.440   0.878 129.444  0.00  0.00    -0.022 C 
ATOM     15  C   LIG A   1      -4.551  -0.401 129.588  0.00  0.00    +0.012 C 
ENDROOT
BRANCH   4  16
ATOM     16  O   LIG A   1      -5.639   3.253 126.028  0.00  0.00    -0.391 OA
ATOM     17  H   LIG A   1      -6.530   3.627 126.147  0.00  0.00    +0.210 HD
ENDBRANCH   4  16
BRANCH   7  18
ATOM     18  O   LIG A   1      -9.823   1.884 125.005  0.00  0.00    -0.431 OA
BRANCH  18  19
ATOM     19  C   LIG A   1      -9.968   1.567 123.685  0.00  0.00    +0.306 C 
ATOM     20  C   LIG A   1      -8.998   2.349 122.847  0.00  0.00    +0.136 C 
ATOM     21  O   LIG A   1     -10.770   0.791 123.223  0.00  0.00    -0.251 OA
ENDBRANCH  18  19
ENDBRANCH   7  18
BRANCH   9  22
ATOM     22  O   LIG A   1      -8.931   2.600 128.425  0.00  0.00    -0.434 OA
BRANCH  22  23
ATOM     23  C   LIG A   1      -9.224   3.611 129.281  0.00  0.00    +0.306 C 
ATOM     24  C   LIG A   1      -8.051   4.529 129.395  0.00  0.00    +0.136 C 
ATOM     25  O   LIG A   1     -10.277   3.768 129.895  0.00  0.00    -0.251 OA
ENDBRANCH  22  23
ENDBRANCH   9  22
BRANCH  11  26
ATOM     26  O   LIG A   1      -6.970  -2.163 126.239  0.00  0.00    -0.457 OA
BRANCH  26  27
ATOM     27  C   LIG A   1      -7.601  -3.036 125.393  0.00  0.00    +0.310 C 
ATOM     28  O   LIG A   1      -8.585  -3.719 125.681  0.00  0.00    -0.251 OA
BRANCH  27  29
ATOM     29  C   LIG A   1      -6.949  -3.043 124.011  0.00  0.00    +0.092 C 
ATOM     30  C   LIG A   1      -7.713  -2.113 123.081  0.00  0.00    +0.019 C 
ATOM     31  C   LIG A   1      -5.471  -2.628 124.086  0.00  0.00    +0.019 C 
ENDBRANCH  27  29
ENDBRANCH  26  27
ENDBRANCH  11  26
BRANCH  14  32
ATOM     32  C   LIG A   1      -5.859   1.318 130.927  0.00  0.00    +0.034 C 
BRANCH  32  33
ATOM     33  C   LIG A   1      -7.349   1.443 131.210  0.00  0.00    -0.023 C 
ATOM     34  C   LIG A   1      -8.185   0.603 131.865  0.00  0.00    -0.055 C 
ATOM     35  C   LIG A   1      -9.646   0.976 132.029  0.00  0.00    +0.043 C 
BRANCH  34  36
ATOM     36  C   LIG A   1      -7.781  -0.647 132.496  0.00  0.00    -0.005 C 
ATOM     37  C   LIG A   1      -7.577  -1.805 131.844  0.00  0.00    +0.008 C 
ENDBRANCH  34  36
ENDBRANCH  32  33
ENDBRANCH  14  32
TORSDOF 11
ENDMDL
MODEL 6
REMARK VINA RESULT:      -7.3      3.494      6.889
REMARK  Name = NuBBE_237
REMARK  18 active torsions:
REMARK  status: ('A' for Active; 'I' for Inactive)
REMARK    1  A    between atoms: C_1  and  C_2
REMARK    2  A    between atoms: C_7  and  O_9
REMARK    3  A    between atoms: C_12  and  O_14
REMARK    4  A    between atoms: O_14  and  C_15
REMARK    5  A    between atoms: C_15  and  C_16
REMARK    6  A    between atoms: C_19  and  O_21
REMARK    7  A    between atoms: O_21  and  C_22
REMARK    8  A    between atoms: C_22  and  C_23
REMARK    9  A    between atoms: C_26  and  O_28
REMARK   10  A    between atoms: O_28  and  C_29
REMARK   11  A    between atoms: C_29  and  C_30
REMARK   12  A    between atoms: C_30  and  C_31
REMARK   13  A    between atoms: C_30  and  C_32
REMARK   14  A    between atoms: C_37  and  C_38
REMARK   15  A    between atoms: C_37  and  C_39
REMARK   16  A    between atoms: C_39  and  C_40
REMARK   17  A    between atoms: C_41  and  C_42
REMARK   18  A    between atoms: C_41  and  C_44
REMARK                            x       y       z     vdW  Elec       q    Type
REMARK                         _______ _______ _______ _____ _____    ______ ____
ROOT
ATOM      1  C   LIG A   1      -4.446   5.953 127.438  0.00  0.00    +0.008 C 
ATOM      2  C   LIG A   1      -3.910   4.522 127.382  0.00  0.00    -0.005 C 
ATOM      3  C   LIG A   1      -4.011   3.914 125.979  0.00  0.00    +0.036 C 
ATOM      4  C   LIG A   1      -5.419   3.535 125.538  0.00  0.00    +0.131 C 
ATOM      5  C   LIG A   1      -6.424   3.110 126.662  0.00  0.00    +0.089 C 
ATOM      6  C   LIG A   1      -7.325   2.028 126.091  0.00  0.00    +0.012 C 
ATOM      7  C   LIG A   1      -8.323   2.677 125.170  0.00  0.00    +0.343 C 
ATOM      8  O   LIG A   1      -8.467   4.006 125.676  0.00  0.00    -0.297 OA
ATOM      9  C   LIG A   1      -7.602   4.151 126.818  0.00  0.00    +0.327 C 
ATOM     10  C   LIG A   1      -7.318   0.737 126.438  0.00  0.00    +0.023 C 
ATOM     11  C   LIG A   1      -6.376   0.108 127.379  0.00  0.00    +0.200 C 
ATOM     12  C   LIG A   1      -5.701   1.120 128.318  0.00  0.00    +0.054 C 
ATOM     13  C   LIG A   1      -5.724   2.677 128.016  0.00  0.00    +0.018 C 
ATOM     14  C   LIG A   1      -4.399   3.495 128.476  0.00  0.00    -0.022 C 
ATOM     15  C   LIG A   1      -3.146   2.582 128.681  0.00  0.00    +0.012 C 
ENDROOT
BRANCH   4  16
ATOM     16  O   LIG A   1      -5.924   4.630 124.769  0.00  0.00    -0.391 OA
ATOM     17  H   LIG A   1      -5.429   5.433 125.009  0.00  0.00    +0.210 HD
ENDBRANCH   4  16
BRANCH   7  18
ATOM     18  O   LIG A   1      -9.588   2.015 125.188  0.00  0.00    -0.431 OA
BRANCH  18  19
ATOM     19  C   LIG A   1     -10.046   1.656 123.952  0.00  0.00    +0.306 C 
ATOM     20  C   LIG A   1      -9.074   2.076 122.888  0.00  0.00    +0.136 C 
ATOM     21  O   LIG A   1     -11.092   1.100 123.715  0.00  0.00    -0.251 OA
ENDBRANCH  18  19
ENDBRANCH   7  18
BRANCH   9  22
ATOM     22  O   LIG A   1      -8.374   3.907 128.008  0.00  0.00    -0.434 OA
BRANCH  22  23
ATOM     23  C   LIG A   1      -8.739   5.016 128.699  0.00  0.00    +0.306 C 
ATOM     24  C   LIG A   1      -8.243   4.919 130.105  0.00  0.00    +0.136 C 
ATOM     25  O   LIG A   1      -9.391   5.965 128.268  0.00  0.00    -0.251 OA
ENDBRANCH  22  23
ENDBRANCH   9  22
BRANCH  11  26
ATOM     26  O   LIG A   1      -5.448  -0.637 126.556  0.00  0.00    -0.457 OA
BRANCH  26  27
ATOM     27  C   LIG A   1      -5.534  -1.998 126.687  0.00  0.00    +0.310 C 
ATOM     28  O   LIG A   1      -5.275  -2.630 127.713  0.00  0.00    -0.251 OA
BRANCH  27  29
ATOM     29  C   LIG A   1      -6.030  -2.651 125.399  0.00  0.00    +0.092 C 
ATOM     30  C   LIG A   1      -7.520  -2.934 125.510  0.00  0.00    +0.019 C 
ATOM     31  C   LIG A   1      -5.743  -1.767 124.175  0.00  0.00    +0.019 C 
ENDBRANCH  27  29
ENDBRANCH  26  27
ENDBRANCH  11  26
BRANCH  14  32
ATOM     32  C   LIG A   1      -4.665   4.233 129.873  0.00  0.00    +0.034 C 
BRANCH  32  33
ATOM     33  C   LIG A   1      -3.561   4.143 130.917  0.00  0.00    -0.023 C 
ATOM     34  C   LIG A   1      -2.626   5.053 131.279  0.00  0.00    -0.055 C 
ATOM     35  C   LIG A   1      -1.638   4.717 132.378  0.00  0.00    +0.043 C 
BRANCH  34  36
ATOM     36  C   LIG A   1      -2.515   6.395 130.722  0.00  0.00    -0.005 C 
ATOM     37  C   LIG A   1      -3.233   7.457 131.127  0.00  0.00    +0.008 C 
ENDBRANCH  34  36
ENDBRANCH  32  33
ENDBRANCH  14  32
TORSDOF 11
ENDMDL
MODEL 7
REMARK VINA RESULT:      -7.3      4.086      6.338
REMARK  Name = NuBBE_237
REMARK  18 active torsions:
REMARK  status: ('A' for Active; 'I' for Inactive)
REMARK    1  A    between atoms: C_1  and  C_2
REMARK    2  A    between atoms: C_7  and  O_9
REMARK    3  A    between atoms: C_12  and  O_14
REMARK    4  A    between atoms: O_14  and  C_15
REMARK    5  A    between atoms: C_15  and  C_16
REMARK    6  A    between atoms: C_19  and  O_21
REMARK    7  A    between atoms: O_21  and  C_22
REMARK    8  A    between atoms: C_22  and  C_23
REMARK    9  A    between atoms: C_26  and  O_28
REMARK   10  A    between atoms: O_28  and  C_29
REMARK   11  A    between atoms: C_29  and  C_30
REMARK   12  A    between atoms: C_30  and  C_31
REMARK   13  A    between atoms: C_30  and  C_32
REMARK   14  A    between atoms: C_37  and  C_38
REMARK   15  A    between atoms: C_37  and  C_39
REMARK   16  A    between atoms: C_39  and  C_40
REMARK   17  A    between atoms: C_41  and  C_42
REMARK   18  A    between atoms: C_41  and  C_44
REMARK                            x       y       z     vdW  Elec       q    Type
REMARK                         _______ _______ _______ _____ _____    ______ ____
ROOT
ATOM      1  C   LIG A   1      -5.952   1.844 132.348  0.00  0.00    +0.008 C 
ATOM      2  C   LIG A   1      -6.642   2.633 131.235  0.00  0.00    -0.005 C 
ATOM      3  C   LIG A   1      -8.067   2.141 130.965  0.00  0.00    +0.036 C 
ATOM      4  C   LIG A   1      -8.163   0.803 130.244  0.00  0.00    +0.131 C 
ATOM      5  C   LIG A   1      -6.999   0.441 129.261  0.00  0.00    +0.089 C 
ATOM      6  C   LIG A   1      -7.599  -0.332 128.099  0.00  0.00    +0.012 C 
ATOM      7  C   LIG A   1      -7.904  -1.730 128.564  0.00  0.00    +0.343 C 
ATOM      8  O   LIG A   1      -6.965  -1.972 129.614  0.00  0.00    -0.297 OA
ATOM      9  C   LIG A   1      -6.157  -0.791 129.778  0.00  0.00    +0.327 C 
ATOM     10  C   LIG A   1      -7.722   0.109 126.843  0.00  0.00    +0.023 C 
ATOM     11  C   LIG A   1      -7.375   1.461 126.372  0.00  0.00    +0.200 C 
ATOM     12  C   LIG A   1      -6.402   2.192 127.310  0.00  0.00    +0.054 C 
ATOM     13  C   LIG A   1      -6.145   1.692 128.793  0.00  0.00    +0.018 C 
ATOM     14  C   LIG A   1      -5.860   2.861 129.883  0.00  0.00    -0.022 C 
ATOM     15  C   LIG A   1      -6.360   4.270 129.425  0.00  0.00    +0.012 C 
ENDROOT
BRANCH   4  16
ATOM     16  O   LIG A   1      -8.333  -0.201 131.248  0.00  0.00    -0.391 OA
ATOM     17  H   LIG A   1      -8.266   0.220 132.124  0.00  0.00    +0.210 HD
ENDBRANCH   4  16
BRANCH   7  18
ATOM     18  O   LIG A   1      -7.728  -2.697 127.529  0.00  0.00    -0.431 OA
BRANCH  18  19
ATOM     19  C   LIG A   1      -8.845  -3.437 127.261  0.00  0.00    +0.306 C 
ATOM     20  C   LIG A   1      -9.409  -3.070 125.919  0.00  0.00    +0.136 C 
ATOM     21  O   LIG A   1      -9.346  -4.259 127.991  0.00  0.00    -0.251 OA
ENDBRANCH  18  19
ENDBRANCH   7  18
BRANCH   9  22
ATOM     22  O   LIG A   1      -4.943  -0.961 129.024  0.00  0.00    -0.434 OA
BRANCH  22  23
ATOM     23  C   LIG A   1      -4.163  -2.003 129.408  0.00  0.00    +0.306 C 
ATOM     24  C   LIG A   1      -3.489  -1.675 130.701  0.00  0.00    +0.136 C 
ATOM     25  O   LIG A   1      -4.004  -3.060 128.802  0.00  0.00    -0.251 OA
ENDBRANCH  22  23
ENDBRANCH   9  22
BRANCH  11  26
ATOM     26  O   LIG A   1      -8.639   2.143 126.192  0.00  0.00    -0.457 OA
BRANCH  26  27
ATOM     27  C   LIG A   1      -8.707   2.933 125.075  0.00  0.00    +0.310 C 
ATOM     28  O   LIG A   1      -8.697   4.165 125.074  0.00  0.00    -0.251 OA
BRANCH  27  29
ATOM     29  C   LIG A   1      -8.765   2.092 123.801  0.00  0.00    +0.092 C 
ATOM     30  C   LIG A   1     -10.115   1.397 123.707  0.00  0.00    +0.019 C 
ATOM     31  C   LIG A   1      -8.517   2.951 122.550  0.00  0.00    +0.019 C 
ENDBRANCH  27  29
ENDBRANCH  26  27
ENDBRANCH  11  26
BRANCH  14  32
ATOM     32  C   LIG A   1      -4.286   2.994 130.149  0.00  0.00    +0.034 C 
BRANCH  32  33
ATOM     33  C   LIG A   1      -3.628   4.302 129.735  0.00  0.00    -0.023 C 
ATOM     34  C   LIG A   1      -2.854   4.588 128.661  0.00  0.00    -0.055 C 
ATOM     35  C   LIG A   1      -2.332   5.998 128.467  0.00  0.00    +0.043 C 
BRANCH  34  36
ATOM     36  C   LIG A   1      -2.510   3.640 127.609  0.00  0.00    -0.005 C 
ATOM     37  C   LIG A   1      -3.062   3.620 126.383  0.00  0.00    +0.008 C 
ENDBRANCH  34  36
ENDBRANCH  32  33
ENDBRANCH  14  32
TORSDOF 11
ENDMDL
MODEL 8
REMARK VINA RESULT:      -7.3      4.365      7.423
REMARK  Name = NuBBE_237
REMARK  18 active torsions:
REMARK  status: ('A' for Active; 'I' for Inactive)
REMARK    1  A    between atoms: C_1  and  C_2
REMARK    2  A    between atoms: C_7  and  O_9
REMARK    3  A    between atoms: C_12  and  O_14
REMARK    4  A    between atoms: O_14  and  C_15
REMARK    5  A    between atoms: C_15  and  C_16
REMARK    6  A    between atoms: C_19  and  O_21
REMARK    7  A    between atoms: O_21  and  C_22
REMARK    8  A    between atoms: C_22  and  C_23
REMARK    9  A    between atoms: C_26  and  O_28
REMARK   10  A    between atoms: O_28  and  C_29
REMARK   11  A    between atoms: C_29  and  C_30
REMARK   12  A    between atoms: C_30  and  C_31
REMARK   13  A    between atoms: C_30  and  C_32
REMARK   14  A    between atoms: C_37  and  C_38
REMARK   15  A    between atoms: C_37  and  C_39
REMARK   16  A    between atoms: C_39  and  C_40
REMARK   17  A    between atoms: C_41  and  C_42
REMARK   18  A    between atoms: C_41  and  C_44
REMARK                            x       y       z     vdW  Elec       q    Type
REMARK                         _______ _______ _______ _____ _____    ______ ____
ROOT
ATOM      1  C   LIG A   1      -5.139   0.113 129.205  0.00  0.00    +0.008 C 
ATOM      2  C   LIG A   1      -5.931  -0.790 128.259  0.00  0.00    -0.005 C 
ATOM      3  C   LIG A   1      -5.260  -0.936 126.890  0.00  0.00    +0.036 C 
ATOM      4  C   LIG A   1      -5.350   0.291 125.992  0.00  0.00    +0.131 C 
ATOM      5  C   LIG A   1      -6.610   1.206 126.165  0.00  0.00    +0.089 C 
ATOM      6  C   LIG A   1      -6.978   1.749 124.795  0.00  0.00    +0.012 C 
ATOM      7  C   LIG A   1      -5.998   2.832 124.432  0.00  0.00    +0.343 C 
ATOM      8  O   LIG A   1      -5.561   3.356 125.687  0.00  0.00    -0.297 OA
ATOM      9  C   LIG A   1      -6.226   2.628 126.738  0.00  0.00    +0.327 C 
ATOM     10  C   LIG A   1      -8.059   1.415 124.083  0.00  0.00    +0.023 C 
ATOM     11  C   LIG A   1      -9.051   0.393 124.460  0.00  0.00    +0.200 C 
ATOM     12  C   LIG A   1      -9.036   0.069 125.963  0.00  0.00    +0.054 C 
ATOM     13  C   LIG A   1      -7.824   0.492 126.892  0.00  0.00    +0.018 C 
ATOM     14  C   LIG A   1      -7.481  -0.535 128.102  0.00  0.00    -0.022 C 
ATOM     15  C   LIG A   1      -8.049  -1.974 127.872  0.00  0.00    +0.012 C 
ENDROOT
BRANCH   4  16
ATOM     16  O   LIG A   1      -4.138   1.028 126.168  0.00  0.00    -0.391 OA
ATOM     17  H   LIG A   1      -3.779   1.251 125.291  0.00  0.00    +0.210 HD
ENDBRANCH   4  16
BRANCH   7  18
ATOM     18  O   LIG A   1      -6.598   3.870 123.659  0.00  0.00    -0.431 OA
BRANCH  18  19
ATOM     19  C   LIG A   1      -5.926   4.168 122.507  0.00  0.00    +0.306 C 
ATOM     20  C   LIG A   1      -6.570   3.490 121.333  0.00  0.00    +0.136 C 
ATOM     21  O   LIG A   1      -4.937   4.855 122.418  0.00  0.00    -0.251 OA
ENDBRANCH  18  19
ENDBRANCH   7  18
BRANCH   9  22
ATOM     22  O   LIG A   1      -7.391   3.371 127.141  0.00  0.00    -0.434 OA
BRANCH  22  23
ATOM     23  C   LIG A   1      -7.271   4.042 128.314  0.00  0.00    +0.306 C 
ATOM     24  C   LIG A   1      -6.199   3.415 129.145  0.00  0.00    +0.136 C 
ATOM     25  O   LIG A   1      -7.936   5.011 128.674  0.00  0.00    -0.251 OA
ENDBRANCH  22  23
ENDBRANCH   9  22
BRANCH  11  26
ATOM     26  O   LIG A   1      -8.772  -0.747 123.613  0.00  0.00    -0.457 OA
BRANCH  26  27
ATOM     27  C   LIG A   1      -8.780  -1.954 124.259  0.00  0.00    +0.310 C 
ATOM     28  O   LIG A   1      -9.789  -2.540 124.657  0.00  0.00    -0.251 OA
BRANCH  27  29
ATOM     29  C   LIG A   1      -7.369  -2.519 124.402  0.00  0.00    +0.092 C 
ATOM     30  C   LIG A   1      -7.434  -4.033 124.531  0.00  0.00    +0.019 C 
ATOM     31  C   LIG A   1      -6.481  -2.121 123.212  0.00  0.00    +0.019 C 
ENDBRANCH  27  29
ENDBRANCH  26  27
ENDBRANCH  11  26
BRANCH  14  32
ATOM     32  C   LIG A   1      -8.114  -0.002 129.473  0.00  0.00    +0.034 C 
BRANCH  32  33
ATOM     33  C   LIG A   1      -8.035  -0.935 130.673  0.00  0.00    -0.023 C 
ATOM     34  C   LIG A   1      -7.918  -0.651 131.992  0.00  0.00    -0.055 C 
ATOM     35  C   LIG A   1      -7.879  -1.781 133.002  0.00  0.00    +0.043 C 
BRANCH  34  36
ATOM     36  C   LIG A   1      -7.878   0.693 132.552  0.00  0.00    -0.005 C 
ATOM     37  C   LIG A   1      -6.767   1.309 132.992  0.00  0.00    +0.008 C 
ENDBRANCH  34  36
ENDBRANCH  32  33
ENDBRANCH  14  32
TORSDOF 11
ENDMDL
MODEL 9
REMARK VINA RESULT:      -7.2      4.607      7.737
REMARK  Name = NuBBE_237
REMARK  18 active torsions:
REMARK  status: ('A' for Active; 'I' for Inactive)
REMARK    1  A    between atoms: C_1  and  C_2
REMARK    2  A    between atoms: C_7  and  O_9
REMARK    3  A    between atoms: C_12  and  O_14
REMARK    4  A    between atoms: O_14  and  C_15
REMARK    5  A    between atoms: C_15  and  C_16
REMARK    6  A    between atoms: C_19  and  O_21
REMARK    7  A    between atoms: O_21  and  C_22
REMARK    8  A    between atoms: C_22  and  C_23
REMARK    9  A    between atoms: C_26  and  O_28
REMARK   10  A    between atoms: O_28  and  C_29
REMARK   11  A    between atoms: C_29  and  C_30
REMARK   12  A    between atoms: C_30  and  C_31
REMARK   13  A    between atoms: C_30  and  C_32
REMARK   14  A    between atoms: C_37  and  C_38
REMARK   15  A    between atoms: C_37  and  C_39
REMARK   16  A    between atoms: C_39  and  C_40
REMARK   17  A    between atoms: C_41  and  C_42
REMARK   18  A    between atoms: C_41  and  C_44
REMARK                            x       y       z     vdW  Elec       q    Type
REMARK                         _______ _______ _______ _____ _____    ______ ____
ROOT
ATOM      1  C   LIG A   1      -8.190  -1.986 127.560  0.00  0.00    +0.008 C 
ATOM      2  C   LIG A   1      -7.485  -0.792 128.205  0.00  0.00    -0.005 C 
ATOM      3  C   LIG A   1      -8.234   0.524 127.976  0.00  0.00    +0.036 C 
ATOM      4  C   LIG A   1      -8.147   1.080 126.561  0.00  0.00    +0.131 C 
ATOM      5  C   LIG A   1      -6.847   0.755 125.749  0.00  0.00    +0.089 C 
ATOM      6  C   LIG A   1      -6.534   1.960 124.878  0.00  0.00    +0.012 C 
ATOM      7  C   LIG A   1      -7.492   1.970 123.717  0.00  0.00    +0.343 C 
ATOM      8  O   LIG A   1      -7.840   0.597 123.526  0.00  0.00    -0.297 OA
ATOM      9  C   LIG A   1      -7.146  -0.187 124.516  0.00  0.00    +0.327 C 
ATOM     10  C   LIG A   1      -5.506   2.799 125.040  0.00  0.00    +0.023 C 
ATOM     11  C   LIG A   1      -4.534   2.760 126.146  0.00  0.00    +0.200 C 
ATOM     12  C   LIG A   1      -4.479   1.393 126.848  0.00  0.00    +0.054 C 
ATOM     13  C   LIG A   1      -5.623   0.313 126.653  0.00  0.00    +0.018 C 
ATOM     14  C   LIG A   1      -5.938  -0.610 127.951  0.00  0.00    -0.022 C 
ATOM     15  C   LIG A   1      -5.437   0.016 129.294  0.00  0.00    +0.012 C 
ENDROOT
BRANCH   4  16
ATOM     16  O   LIG A   1      -9.320   0.645 125.868  0.00  0.00    -0.391 OA
ATOM     17  H   LIG A   1     -10.060   1.228 126.112  0.00  0.00    +0.210 HD
ENDBRANCH   4  16
BRANCH   7  18
ATOM     18  O   LIG A   1      -6.896   2.486 122.527  0.00  0.00    -0.431 OA
BRANCH  18  19
ATOM     19  C   LIG A   1      -7.736   3.253 121.770  0.00  0.00    +0.306 C 
ATOM     20  C   LIG A   1      -6.978   3.925 120.662  0.00  0.00    +0.136 C 
ATOM     21  O   LIG A   1      -8.919   3.408 121.956  0.00  0.00    -0.251 OA
ENDBRANCH  18  19
ENDBRANCH   7  18
BRANCH   9  22
ATOM     22  O   LIG A   1      -5.935  -0.695 123.929  0.00  0.00    -0.434 OA
BRANCH  22  23
ATOM     23  C   LIG A   1      -6.050  -1.901 123.318  0.00  0.00    +0.306 C 
ATOM     24  C   LIG A   1      -5.280  -2.927 124.085  0.00  0.00    +0.136 C 
ATOM     25  O   LIG A   1      -6.671  -2.143 122.286  0.00  0.00    -0.251 OA
ENDBRANCH  22  23
ENDBRANCH   9  22
BRANCH  11  26
ATOM     26  O   LIG A   1      -4.901   3.853 127.021  0.00  0.00    -0.457 OA
BRANCH  26  27
ATOM     27  C   LIG A   1      -4.023   4.082 128.047  0.00  0.00    +0.310 C 
ATOM     28  O   LIG A   1      -2.810   4.254 127.920  0.00  0.00    -0.251 OA
BRANCH  27  29
ATOM     29  C   LIG A   1      -4.743   4.132 129.394  0.00  0.00    +0.092 C 
ATOM     30  C   LIG A   1      -6.178   3.657 129.226  0.00  0.00    +0.019 C 
ATOM     31  C   LIG A   1      -4.017   3.280 130.449  0.00  0.00    +0.019 C 
ENDBRANCH  27  29
ENDBRANCH  26  27
ENDBRANCH  11  26
BRANCH  14  32
ATOM     32  C   LIG A   1      -5.212  -2.031 127.806  0.00  0.00    +0.034 C 
BRANCH  32  33
ATOM     33  C   LIG A   1      -4.484  -2.558 129.034  0.00  0.00    -0.023 C 
ATOM     34  C   LIG A   1      -4.954  -3.265 130.090  0.00  0.00    -0.055 C 
ATOM     35  C   LIG A   1      -4.002  -3.691 131.190  0.00  0.00    +0.043 C 
BRANCH  34  36
ATOM     36  C   LIG A   1      -6.331  -3.714 130.241  0.00  0.00    -0.005 C 
ATOM     37  C   LIG A   1      -7.228  -3.171 131.082  0.00  0.00    +0.008 C 
ENDBRANCH  34  36
ENDBRANCH  32  33
ENDBRANCH  14  32
TORSDOF 11
ENDMDL
