MODEL 1
REMARK VINA RESULT:      -7.0      0.000      0.000
REMARK  Name = NuBBE_2183
REMARK  10 active torsions:
REMARK  status: ('A' for Active; 'I' for Inactive)
REMARK    1  A    between atoms: C_1  and  C_3
REMARK    2  A    between atoms: C_1  and  C_13
REMARK    3  A    between atoms: C_1  and  C_14
REMARK    4  A    between atoms: C_3  and  C_4
REMARK    5  A    between atoms: C_14  and  O_15
REMARK    6  A    between atoms: O_15  and  C_16
REMARK    7  A    between atoms: C_17  and  O_26
REMARK    8  A    between atoms: C_21  and  C_23
REMARK    9  A    between atoms: C_23  and  C_24
REMARK   10  A    between atoms: O_26  and  C_27
REMARK                            x       y       z     vdW  Elec       q    Type
REMARK                         _______ _______ _______ _____ _____    ______ ____
ROOT
ATOM      1  C   LIG A   1      -6.454   4.413 131.034  0.00  0.00    +0.147 C 
ATOM      2  C   LIG A   1      -6.557   4.519 129.501  0.00  0.00    +0.137 C 
ATOM      3  C   LIG A   1      -7.523   3.909 128.806  0.00  0.00    +0.095 C 
ATOM      4  C   LIG A   1      -8.566   3.086 129.458  0.00  0.00    +0.185 C 
ATOM      5  O   LIG A   1      -9.479   2.606 128.776  0.00  0.00    -0.287 OA
ATOM      6  C   LIG A   1      -8.460   2.852 130.924  0.00  0.00    +0.002 C 
ATOM      7  C   LIG A   1      -7.474   3.448 131.612  0.00  0.00    +0.023 C 
ENDROOT
BRANCH   1   8
ATOM      8  C   LIG A   1      -6.626   5.840 131.704  0.00  0.00    +0.034 C 
ATOM      9  C   LIG A   1      -5.442   6.176 132.637  0.00  0.00    +0.011 C 
BRANCH   8  10
ATOM     10  C   LIG A   1      -7.974   6.018 132.454  0.00  0.00    +0.042 C 
BRANCH  10  11
ATOM     11  C   LIG A   1      -9.155   6.441 131.596  0.00  0.00    -0.043 A 
ATOM     12  C   LIG A   1      -8.947   7.156 130.403  0.00  0.00    +0.053 A 
ATOM     13  C   LIG A   1     -10.050   7.561 129.676  0.00  0.00    +0.167 A 
ATOM     14  C   LIG A   1     -11.331   7.297 130.096  0.00  0.00    +0.166 A 
ATOM     15  C   LIG A   1     -11.579   6.601 131.259  0.00  0.00    +0.050 A 
ATOM     16  C   LIG A   1     -10.479   6.165 132.009  0.00  0.00    +0.007 A 
ATOM     17  O   LIG A   1     -12.272   7.791 129.248  0.00  0.00    -0.453 OA
ATOM     18  C   LIG A   1     -11.437   8.386 128.233  0.00  0.00    +0.466 C 
ATOM     19  O   LIG A   1     -10.025   8.245 128.499  0.00  0.00    -0.453 OA
ENDBRANCH  10  11
ENDBRANCH   8  10
ENDBRANCH   1   8
BRANCH   1  20
ATOM     20  O   LIG A   1      -5.130   3.973 131.405  0.00  0.00    -0.364 OA
ATOM     21  C   LIG A   1      -4.804   2.610 131.170  0.00  0.00    +0.195 C 
ENDBRANCH   1  20
BRANCH   2  22
ATOM     22  O   LIG A   1      -5.537   5.273 128.936  0.00  0.00    -0.496 OA
ATOM     23  C   LIG A   1      -4.734   4.656 127.938  0.00  0.00    +0.277 C 
ENDBRANCH   2  22
BRANCH   6  24
ATOM     24  C   LIG A   1      -9.530   2.013 131.569  0.00  0.00    +0.065 C 
BRANCH  24  25
ATOM     25  C   LIG A   1      -9.093   0.598 131.822  0.00  0.00    -0.030 C 
ATOM     26  C   LIG A   1      -8.392  -0.129 130.941  0.00  0.00    +0.004 C 
ENDBRANCH  24  25
ENDBRANCH   6  24
TORSDOF 7
ENDMDL
MODEL 2
REMARK VINA RESULT:      -6.9      5.563      9.436
REMARK  Name = NuBBE_2183
REMARK  10 active torsions:
REMARK  status: ('A' for Active; 'I' for Inactive)
REMARK    1  A    between atoms: C_1  and  C_3
REMARK    2  A    between atoms: C_1  and  C_13
REMARK    3  A    between atoms: C_1  and  C_14
REMARK    4  A    between atoms: C_3  and  C_4
REMARK    5  A    between atoms: C_14  and  O_15
REMARK    6  A    between atoms: O_15  and  C_16
REMARK    7  A    between atoms: C_17  and  O_26
REMARK    8  A    between atoms: C_21  and  C_23
REMARK    9  A    between atoms: C_23  and  C_24
REMARK   10  A    between atoms: O_26  and  C_27
REMARK                            x       y       z     vdW  Elec       q    Type
REMARK                         _______ _______ _______ _____ _____    ______ ____
ROOT
ATOM      1  C   LIG A   1      -8.691  -0.984 124.336  0.00  0.00    +0.147 C 
ATOM      2  C   LIG A   1      -7.342  -0.586 123.709  0.00  0.00    +0.137 C 
ATOM      3  C   LIG A   1      -6.550   0.345 124.251  0.00  0.00    +0.095 C 
ATOM      4  C   LIG A   1      -6.909   1.062 125.495  0.00  0.00    +0.185 C 
ATOM      5  O   LIG A   1      -6.106   1.858 125.994  0.00  0.00    -0.287 OA
ATOM      6  C   LIG A   1      -8.248   0.804 126.091  0.00  0.00    +0.002 C 
ATOM      7  C   LIG A   1      -9.048  -0.115 125.528  0.00  0.00    +0.023 C 
ENDROOT
BRANCH   1   8
ATOM      8  C   LIG A   1      -8.673  -2.510 124.770  0.00  0.00    +0.034 C 
ATOM      9  C   LIG A   1      -9.493  -3.386 123.798  0.00  0.00    +0.011 C 
BRANCH   8  10
ATOM     10  C   LIG A   1      -9.136  -2.747 126.234  0.00  0.00    +0.042 C 
BRANCH  10  11
ATOM     11  C   LIG A   1      -8.032  -2.771 127.278  0.00  0.00    -0.043 A 
ATOM     12  C   LIG A   1      -8.325  -3.099 128.615  0.00  0.00    +0.053 A 
ATOM     13  C   LIG A   1      -7.300  -3.066 129.541  0.00  0.00    +0.167 A 
ATOM     14  C   LIG A   1      -6.020  -2.708 129.193  0.00  0.00    +0.166 A 
ATOM     15  C   LIG A   1      -5.692  -2.379 127.896  0.00  0.00    +0.050 A 
ATOM     16  C   LIG A   1      -6.707  -2.419 126.932  0.00  0.00    +0.007 A 
ATOM     17  O   LIG A   1      -5.166  -2.725 130.251  0.00  0.00    -0.453 OA
ATOM     18  C   LIG A   1      -6.052  -3.150 131.307  0.00  0.00    +0.466 C 
ATOM     19  O   LIG A   1      -7.409  -3.366 130.865  0.00  0.00    -0.453 OA
ENDBRANCH  10  11
ENDBRANCH   8  10
ENDBRANCH   1   8
BRANCH   1  20
ATOM     20  O   LIG A   1      -9.738  -0.880 123.348  0.00  0.00    -0.364 OA
ATOM     21  C   LIG A   1     -10.012   0.411 122.820  0.00  0.00    +0.195 C 
ENDBRANCH   1  20
BRANCH   2  22
ATOM     22  O   LIG A   1      -7.068  -1.262 122.527  0.00  0.00    -0.496 OA
ATOM     23  C   LIG A   1      -5.921  -2.102 122.497  0.00  0.00    +0.277 C 
ENDBRANCH   2  22
BRANCH   6  24
ATOM     24  C   LIG A   1      -8.596   1.541 127.356  0.00  0.00    +0.065 C 
BRANCH  24  25
ATOM     25  C   LIG A   1      -8.236   0.776 128.598  0.00  0.00    -0.030 C 
ATOM     26  C   LIG A   1      -7.053   0.884 129.218  0.00  0.00    +0.004 C 
ENDBRANCH  24  25
ENDBRANCH   6  24
TORSDOF 7
ENDMDL
MODEL 3
REMARK VINA RESULT:      -6.8      5.948      8.177
REMARK  Name = NuBBE_2183
REMARK  10 active torsions:
REMARK  status: ('A' for Active; 'I' for Inactive)
REMARK    1  A    between atoms: C_1  and  C_3
REMARK    2  A    between atoms: C_1  and  C_13
REMARK    3  A    between atoms: C_1  and  C_14
REMARK    4  A    between atoms: C_3  and  C_4
REMARK    5  A    between atoms: C_14  and  O_15
REMARK    6  A    between atoms: O_15  and  C_16
REMARK    7  A    between atoms: C_17  and  O_26
REMARK    8  A    between atoms: C_21  and  C_23
REMARK    9  A    between atoms: C_23  and  C_24
REMARK   10  A    between atoms: O_26  and  C_27
REMARK                            x       y       z     vdW  Elec       q    Type
REMARK                         _______ _______ _______ _____ _____    ______ ____
ROOT
ATOM      1  C   LIG A   1      -7.547  -1.460 127.324  0.00  0.00    +0.147 C 
ATOM      2  C   LIG A   1      -6.042  -1.718 127.119  0.00  0.00    +0.137 C 
ATOM      3  C   LIG A   1      -5.573  -2.429 126.088  0.00  0.00    +0.095 C 
ATOM      4  C   LIG A   1      -6.465  -3.020 125.066  0.00  0.00    +0.185 C 
ATOM      5  O   LIG A   1      -5.975  -3.604 124.092  0.00  0.00    -0.287 OA
ATOM      6  C   LIG A   1      -7.935  -2.902 125.264  0.00  0.00    +0.002 C 
ATOM      7  C   LIG A   1      -8.399  -2.206 126.315  0.00  0.00    +0.023 C 
ENDROOT
BRANCH   1   8
ATOM      8  C   LIG A   1      -7.859   0.093 127.246  0.00  0.00    +0.034 C 
ATOM      9  C   LIG A   1      -8.058   0.703 128.651  0.00  0.00    +0.011 C 
BRANCH   8  10
ATOM     10  C   LIG A   1      -9.064   0.441 126.329  0.00  0.00    +0.042 C 
BRANCH  10  11
ATOM     11  C   LIG A   1      -8.724   1.182 125.046  0.00  0.00    -0.043 A 
ATOM     12  C   LIG A   1      -7.448   1.749 124.871  0.00  0.00    +0.053 A 
ATOM     13  C   LIG A   1      -7.195   2.453 123.708  0.00  0.00    +0.167 A 
ATOM     14  C   LIG A   1      -8.155   2.622 122.740  0.00  0.00    +0.166 A 
ATOM     15  C   LIG A   1      -9.416   2.084 122.874  0.00  0.00    +0.050 A 
ATOM     16  C   LIG A   1      -9.697   1.352 124.035  0.00  0.00    +0.007 A 
ATOM     17  O   LIG A   1      -7.709   3.355 121.685  0.00  0.00    -0.453 OA
ATOM     18  C   LIG A   1      -6.350   3.617 122.091  0.00  0.00    +0.466 C 
ATOM     19  O   LIG A   1      -6.017   3.049 123.376  0.00  0.00    -0.453 OA
ENDBRANCH  10  11
ENDBRANCH   8  10
ENDBRANCH   1   8
BRANCH   1  20
ATOM     20  O   LIG A   1      -7.934  -1.862 128.655  0.00  0.00    -0.364 OA
ATOM     21  C   LIG A   1      -8.201  -3.241 128.869  0.00  0.00    +0.195 C 
ENDBRANCH   1  20
BRANCH   2  22
ATOM     22  O   LIG A   1      -5.252  -1.172 128.123  0.00  0.00    -0.496 OA
ATOM     23  C   LIG A   1      -4.538  -2.070 128.963  0.00  0.00    +0.277 C 
ENDBRANCH   2  22
BRANCH   6  24
ATOM     24  C   LIG A   1      -8.827  -3.508 124.214  0.00  0.00    +0.065 C 
BRANCH  24  25
ATOM     25  C   LIG A   1      -9.359  -2.495 123.241  0.00  0.00    -0.030 C 
ATOM     26  C   LIG A   1      -8.577  -1.692 122.506  0.00  0.00    +0.004 C 
ENDBRANCH  24  25
ENDBRANCH   6  24
TORSDOF 7
ENDMDL
MODEL 4
REMARK VINA RESULT:      -6.7      6.562      8.782
REMARK  Name = NuBBE_2183
REMARK  10 active torsions:
REMARK  status: ('A' for Active; 'I' for Inactive)
REMARK    1  A    between atoms: C_1  and  C_3
REMARK    2  A    between atoms: C_1  and  C_13
REMARK    3  A    between atoms: C_1  and  C_14
REMARK    4  A    between atoms: C_3  and  C_4
REMARK    5  A    between atoms: C_14  and  O_15
REMARK    6  A    between atoms: O_15  and  C_16
REMARK    7  A    between atoms: C_17  and  O_26
REMARK    8  A    between atoms: C_21  and  C_23
REMARK    9  A    between atoms: C_23  and  C_24
REMARK   10  A    between atoms: O_26  and  C_27
REMARK                            x       y       z     vdW  Elec       q    Type
REMARK                         _______ _______ _______ _____ _____    ______ ____
ROOT
ATOM      1  C   LIG A   1      -7.343  -2.309 129.235  0.00  0.00    +0.147 C 
ATOM      2  C   LIG A   1      -6.097  -1.550 128.742  0.00  0.00    +0.137 C 
ATOM      3  C   LIG A   1      -4.858  -2.015 128.927  0.00  0.00    +0.095 C 
ATOM      4  C   LIG A   1      -4.589  -3.296 129.617  0.00  0.00    +0.185 C 
ATOM      5  O   LIG A   1      -3.430  -3.717 129.694  0.00  0.00    -0.287 OA
ATOM      6  C   LIG A   1      -5.741  -4.025 130.215  0.00  0.00    +0.002 C 
ATOM      7  C   LIG A   1      -6.981  -3.540 130.046  0.00  0.00    +0.023 C 
ENDROOT
BRANCH   1   8
ATOM      8  C   LIG A   1      -8.261  -2.725 128.010  0.00  0.00    +0.034 C 
ATOM      9  C   LIG A   1      -9.083  -3.995 128.322  0.00  0.00    +0.011 C 
BRANCH   8  10
ATOM     10  C   LIG A   1      -7.482  -2.898 126.678  0.00  0.00    +0.042 C 
BRANCH  10  11
ATOM     11  C   LIG A   1      -8.147  -2.307 125.445  0.00  0.00    -0.043 A 
ATOM     12  C   LIG A   1      -8.439  -0.932 125.385  0.00  0.00    +0.053 A 
ATOM     13  C   LIG A   1      -9.085  -0.444 124.264  0.00  0.00    +0.167 A 
ATOM     14  C   LIG A   1      -9.457  -1.266 123.228  0.00  0.00    +0.166 A 
ATOM     15  C   LIG A   1      -9.191  -2.617 123.248  0.00  0.00    +0.050 A 
ATOM     16  C   LIG A   1      -8.524  -3.138 124.364  0.00  0.00    +0.007 A 
ATOM     17  O   LIG A   1     -10.091  -0.594 122.230  0.00  0.00    -0.453 OA
ATOM     18  C   LIG A   1     -10.062   0.752 122.749  0.00  0.00    +0.466 C 
ATOM     19  O   LIG A   1      -9.427   0.854 124.041  0.00  0.00    -0.453 OA
ENDBRANCH  10  11
ENDBRANCH   8  10
ENDBRANCH   1   8
BRANCH   1  20
ATOM     20  O   LIG A   1      -8.158  -1.435 130.046  0.00  0.00    -0.364 OA
ATOM     21  C   LIG A   1      -7.662  -1.083 131.329  0.00  0.00    +0.195 C 
ENDBRANCH   1  20
BRANCH   2  22
ATOM     22  O   LIG A   1      -6.401  -0.339 128.132  0.00  0.00    -0.496 OA
ATOM     23  C   LIG A   1      -5.431   0.220 127.255  0.00  0.00    +0.277 C 
ENDBRANCH   2  22
BRANCH   6  24
ATOM     24  C   LIG A   1      -5.449  -5.327 130.913  0.00  0.00    +0.065 C 
BRANCH  24  25
ATOM     25  C   LIG A   1      -5.359  -5.184 132.405  0.00  0.00    -0.030 C 
ATOM     26  C   LIG A   1      -4.207  -4.985 133.062  0.00  0.00    +0.004 C 
ENDBRANCH  24  25
ENDBRANCH   6  24
TORSDOF 7
ENDMDL
MODEL 5
REMARK VINA RESULT:      -6.7      7.244     10.212
REMARK  Name = NuBBE_2183
REMARK  10 active torsions:
REMARK  status: ('A' for Active; 'I' for Inactive)
REMARK    1  A    between atoms: C_1  and  C_3
REMARK    2  A    between atoms: C_1  and  C_13
REMARK    3  A    between atoms: C_1  and  C_14
REMARK    4  A    between atoms: C_3  and  C_4
REMARK    5  A    between atoms: C_14  and  O_15
REMARK    6  A    between atoms: O_15  and  C_16
REMARK    7  A    between atoms: C_17  and  O_26
REMARK    8  A    between atoms: C_21  and  C_23
REMARK    9  A    between atoms: C_23  and  C_24
REMARK   10  A    between atoms: O_26  and  C_27
REMARK                            x       y       z     vdW  Elec       q    Type
REMARK                         _______ _______ _______ _____ _____    ______ ____
ROOT
ATOM      1  C   LIG A   1      -8.025  -2.543 125.381  0.00  0.00    +0.147 C 
ATOM      2  C   LIG A   1      -6.633  -2.229 124.802  0.00  0.00    +0.137 C 
ATOM      3  C   LIG A   1      -6.260  -0.988 124.473  0.00  0.00    +0.095 C 
ATOM      4  C   LIG A   1      -7.156   0.177 124.642  0.00  0.00    +0.185 C 
ATOM      5  O   LIG A   1      -6.735   1.313 124.393  0.00  0.00    -0.287 OA
ATOM      6  C   LIG A   1      -8.553  -0.071 125.093  0.00  0.00    +0.002 C 
ATOM      7  C   LIG A   1      -8.928  -1.324 125.399  0.00  0.00    +0.023 C 
ENDROOT
BRANCH   1   8
ATOM      8  C   LIG A   1      -7.897  -3.137 126.846  0.00  0.00    +0.034 C 
ATOM      9  C   LIG A   1      -9.228  -3.756 127.327  0.00  0.00    +0.011 C 
BRANCH   8  10
ATOM     10  C   LIG A   1      -7.368  -2.114 127.889  0.00  0.00    +0.042 C 
BRANCH  10  11
ATOM     11  C   LIG A   1      -6.251  -2.611 128.792  0.00  0.00    -0.043 A 
ATOM     12  C   LIG A   1      -6.551  -3.221 130.024  0.00  0.00    +0.053 A 
ATOM     13  C   LIG A   1      -5.504  -3.618 130.834  0.00  0.00    +0.167 A 
ATOM     14  C   LIG A   1      -4.194  -3.417 130.476  0.00  0.00    +0.166 A 
ATOM     15  C   LIG A   1      -3.857  -2.822 129.280  0.00  0.00    +0.050 A 
ATOM     16  C   LIG A   1      -4.897  -2.423 128.430  0.00  0.00    +0.007 A 
ATOM     17  O   LIG A   1      -3.320  -3.866 131.416  0.00  0.00    -0.453 OA
ATOM     18  C   LIG A   1      -4.230  -4.388 132.405  0.00  0.00    +0.466 C 
ATOM     19  O   LIG A   1      -5.619  -4.232 132.044  0.00  0.00    -0.453 OA
ENDBRANCH  10  11
ENDBRANCH   8  10
ENDBRANCH   1   8
BRANCH   1  20
ATOM     20  O   LIG A   1      -8.655  -3.583 124.601  0.00  0.00    -0.364 OA
ATOM     21  C   LIG A   1      -9.395  -3.182 123.457  0.00  0.00    +0.195 C 
ENDBRANCH   1  20
BRANCH   2  22
ATOM     22  O   LIG A   1      -5.844  -3.359 124.632  0.00  0.00    -0.496 OA
ATOM     23  C   LIG A   1      -4.898  -3.351 123.570  0.00  0.00    +0.277 C 
ENDBRANCH   2  22
BRANCH   6  24
ATOM     24  C   LIG A   1      -9.450   1.125 125.259  0.00  0.00    +0.065 C 
BRANCH  24  25
ATOM     25  C   LIG A   1     -10.390   1.319 124.104  0.00  0.00    -0.030 C 
ATOM     26  C   LIG A   1     -10.066   1.046 122.832  0.00  0.00    +0.004 C 
ENDBRANCH  24  25
ENDBRANCH   6  24
TORSDOF 7
ENDMDL
MODEL 6
REMARK VINA RESULT:      -6.5      5.565      9.080
REMARK  Name = NuBBE_2183
REMARK  10 active torsions:
REMARK  status: ('A' for Active; 'I' for Inactive)
REMARK    1  A    between atoms: C_1  and  C_3
REMARK    2  A    between atoms: C_1  and  C_13
REMARK    3  A    between atoms: C_1  and  C_14
REMARK    4  A    between atoms: C_3  and  C_4
REMARK    5  A    between atoms: C_14  and  O_15
REMARK    6  A    between atoms: O_15  and  C_16
REMARK    7  A    between atoms: C_17  and  O_26
REMARK    8  A    between atoms: C_21  and  C_23
REMARK    9  A    between atoms: C_23  and  C_24
REMARK   10  A    between atoms: O_26  and  C_27
REMARK                            x       y       z     vdW  Elec       q    Type
REMARK                         _______ _______ _______ _____ _____    ______ ____
ROOT
ATOM      1  C   LIG A   1      -6.948   1.166 125.162  0.00  0.00    +0.147 C 
ATOM      2  C   LIG A   1      -8.380   1.042 125.714  0.00  0.00    +0.137 C 
ATOM      3  C   LIG A   1      -9.218   0.079 125.317  0.00  0.00    +0.095 C 
ATOM      4  C   LIG A   1      -8.831  -0.942 124.317  0.00  0.00    +0.185 C 
ATOM      5  O   LIG A   1      -9.617  -1.855 124.042  0.00  0.00    -0.287 OA
ATOM      6  C   LIG A   1      -7.500  -0.814 123.664  0.00  0.00    +0.002 C 
ATOM      7  C   LIG A   1      -6.673   0.170 124.050  0.00  0.00    +0.023 C 
ENDROOT
BRANCH   1   8
ATOM      8  C   LIG A   1      -5.886   0.978 126.325  0.00  0.00    +0.034 C 
ATOM      9  C   LIG A   1      -4.804   2.080 126.289  0.00  0.00    +0.011 C 
BRANCH   8  10
ATOM     10  C   LIG A   1      -5.227  -0.428 126.346  0.00  0.00    +0.042 C 
BRANCH  10  11
ATOM     11  C   LIG A   1      -5.704  -1.363 127.445  0.00  0.00    -0.043 A 
ATOM     12  C   LIG A   1      -4.837  -1.734 128.489  0.00  0.00    +0.053 A 
ATOM     13  C   LIG A   1      -5.297  -2.621 129.444  0.00  0.00    +0.167 A 
ATOM     14  C   LIG A   1      -6.562  -3.155 129.387  0.00  0.00    +0.166 A 
ATOM     15  C   LIG A   1      -7.441  -2.820 128.381  0.00  0.00    +0.050 A 
ATOM     16  C   LIG A   1      -7.008  -1.910 127.408  0.00  0.00    +0.007 A 
ATOM     17  O   LIG A   1      -6.812  -4.016 130.409  0.00  0.00    -0.453 OA
ATOM     18  C   LIG A   1      -5.564  -3.953 131.129  0.00  0.00    +0.466 C 
ATOM     19  O   LIG A   1      -4.596  -3.071 130.521  0.00  0.00    -0.453 OA
ENDBRANCH  10  11
ENDBRANCH   8  10
ENDBRANCH   1   8
BRANCH   1  20
ATOM     20  O   LIG A   1      -6.733   2.502 124.659  0.00  0.00    -0.364 OA
ATOM     21  C   LIG A   1      -6.901   2.710 123.264  0.00  0.00    +0.195 C 
ENDBRANCH   1  20
BRANCH   2  22
ATOM     22  O   LIG A   1      -8.705   2.043 126.621  0.00  0.00    -0.496 OA
ATOM     23  C   LIG A   1      -8.655   1.721 128.006  0.00  0.00    +0.277 C 
ENDBRANCH   2  22
BRANCH   6  24
ATOM     24  C   LIG A   1      -7.123  -1.862 122.651  0.00  0.00    +0.065 C 
BRANCH  24  25
ATOM     25  C   LIG A   1      -5.810  -2.525 122.954  0.00  0.00    -0.030 C 
ATOM     26  C   LIG A   1      -5.621  -3.356 123.988  0.00  0.00    +0.004 C 
ENDBRANCH  24  25
ENDBRANCH   6  24
TORSDOF 7
ENDMDL
MODEL 7
REMARK VINA RESULT:      -6.5      5.972      9.914
REMARK  Name = NuBBE_2183
REMARK  10 active torsions:
REMARK  status: ('A' for Active; 'I' for Inactive)
REMARK    1  A    between atoms: C_1  and  C_3
REMARK    2  A    between atoms: C_1  and  C_13
REMARK    3  A    between atoms: C_1  and  C_14
REMARK    4  A    between atoms: C_3  and  C_4
REMARK    5  A    between atoms: C_14  and  O_15
REMARK    6  A    between atoms: O_15  and  C_16
REMARK    7  A    between atoms: C_17  and  O_26
REMARK    8  A    between atoms: C_21  and  C_23
REMARK    9  A    between atoms: C_23  and  C_24
REMARK   10  A    between atoms: O_26  and  C_27
REMARK                            x       y       z     vdW  Elec       q    Type
REMARK                         _______ _______ _______ _____ _____    ______ ____
ROOT
ATOM      1  C   LIG A   1      -6.769  -1.541 126.993  0.00  0.00    +0.147 C 
ATOM      2  C   LIG A   1      -7.827  -0.612 126.370  0.00  0.00    +0.137 C 
ATOM      3  C   LIG A   1      -7.960  -0.466 125.047  0.00  0.00    +0.095 C 
ATOM      4  C   LIG A   1      -7.099  -1.187 124.083  0.00  0.00    +0.185 C 
ATOM      5  O   LIG A   1      -7.314  -1.074 122.871  0.00  0.00    -0.287 OA
ATOM      6  C   LIG A   1      -5.985  -2.015 124.620  0.00  0.00    +0.002 C 
ATOM      7  C   LIG A   1      -5.843  -2.138 125.949  0.00  0.00    +0.023 C 
ENDROOT
BRANCH   1   8
ATOM      8  C   LIG A   1      -7.465  -2.701 127.820  0.00  0.00    +0.034 C 
ATOM      9  C   LIG A   1      -8.728  -3.229 127.104  0.00  0.00    +0.011 C 
BRANCH   8  10
ATOM     10  C   LIG A   1      -7.797  -2.309 129.286  0.00  0.00    +0.042 C 
BRANCH  10  11
ATOM     11  C   LIG A   1      -7.099  -3.126 130.361  0.00  0.00    -0.043 A 
ATOM     12  C   LIG A   1      -7.326  -2.852 131.722  0.00  0.00    +0.053 A 
ATOM     13  C   LIG A   1      -6.637  -3.589 132.666  0.00  0.00    +0.167 A 
ATOM     14  C   LIG A   1      -5.733  -4.559 132.309  0.00  0.00    +0.166 A 
ATOM     15  C   LIG A   1      -5.480  -4.857 130.988  0.00  0.00    +0.050 A 
ATOM     16  C   LIG A   1      -6.176  -4.138 130.009  0.00  0.00    +0.007 A 
ATOM     17  O   LIG A   1      -5.153  -5.155 133.385  0.00  0.00    -0.453 OA
ATOM     18  C   LIG A   1      -5.808  -4.459 134.466  0.00  0.00    +0.466 C 
ATOM     19  O   LIG A   1      -6.749  -3.461 134.017  0.00  0.00    -0.453 OA
ENDBRANCH  10  11
ENDBRANCH   8  10
ENDBRANCH   1   8
BRANCH   1  20
ATOM     20  O   LIG A   1      -5.980  -0.806 127.954  0.00  0.00    -0.364 OA
ATOM     21  C   LIG A   1      -5.256   0.321 127.480  0.00  0.00    +0.195 C 
ENDBRANCH   1  20
BRANCH   2  22
ATOM     22  O   LIG A   1      -8.585   0.066 127.316  0.00  0.00    -0.496 OA
ATOM     23  C   LIG A   1      -8.736   1.472 127.159  0.00  0.00    +0.277 C 
ENDBRANCH   2  22
BRANCH   6  24
ATOM     24  C   LIG A   1      -5.121  -2.741 123.625  0.00  0.00    +0.065 C 
BRANCH  24  25
ATOM     25  C   LIG A   1      -4.669  -4.088 124.113  0.00  0.00    -0.030 C 
ATOM     26  C   LIG A   1      -4.218  -5.056 123.304  0.00  0.00    +0.004 C 
ENDBRANCH  24  25
ENDBRANCH   6  24
TORSDOF 7
ENDMDL
MODEL 8
REMARK VINA RESULT:      -6.4      4.418      6.582
REMARK  Name = NuBBE_2183
REMARK  10 active torsions:
REMARK  status: ('A' for Active; 'I' for Inactive)
REMARK    1  A    between atoms: C_1  and  C_3
REMARK    2  A    between atoms: C_1  and  C_13
REMARK    3  A    between atoms: C_1  and  C_14
REMARK    4  A    between atoms: C_3  and  C_4
REMARK    5  A    between atoms: C_14  and  O_15
REMARK    6  A    between atoms: O_15  and  C_16
REMARK    7  A    between atoms: C_17  and  O_26
REMARK    8  A    between atoms: C_21  and  C_23
REMARK    9  A    between atoms: C_23  and  C_24
REMARK   10  A    between atoms: O_26  and  C_27
REMARK                            x       y       z     vdW  Elec       q    Type
REMARK                         _______ _______ _______ _____ _____    ______ ____
ROOT
ATOM      1  C   LIG A   1      -6.568  -0.827 125.838  0.00  0.00    +0.147 C 
ATOM      2  C   LIG A   1      -7.678  -0.553 124.806  0.00  0.00    +0.137 C 
ATOM      3  C   LIG A   1      -8.840  -1.213 124.814  0.00  0.00    +0.095 C 
ATOM      4  C   LIG A   1      -9.149  -2.257 125.816  0.00  0.00    +0.185 C 
ATOM      5  O   LIG A   1     -10.268  -2.783 125.825  0.00  0.00    -0.287 OA
ATOM      6  C   LIG A   1      -8.079  -2.648 126.774  0.00  0.00    +0.002 C 
ATOM      7  C   LIG A   1      -6.905  -1.997 126.745  0.00  0.00    +0.023 C 
ENDROOT
BRANCH   1   8
ATOM      8  C   LIG A   1      -6.290   0.466 126.713  0.00  0.00    +0.034 C 
ATOM      9  C   LIG A   1      -5.040   1.227 126.220  0.00  0.00    +0.011 C 
BRANCH   8  10
ATOM     10  C   LIG A   1      -6.184   0.178 128.236  0.00  0.00    +0.042 C 
BRANCH  10  11
ATOM     11  C   LIG A   1      -7.283   0.776 129.098  0.00  0.00    -0.043 A 
ATOM     12  C   LIG A   1      -7.928   1.963 128.705  0.00  0.00    +0.053 A 
ATOM     13  C   LIG A   1      -8.891   2.498 129.540  0.00  0.00    +0.167 A 
ATOM     14  C   LIG A   1      -9.216   1.911 130.739  0.00  0.00    +0.166 A 
ATOM     15  C   LIG A   1      -8.607   0.750 131.162  0.00  0.00    +0.050 A 
ATOM     16  C   LIG A   1      -7.638   0.177 130.328  0.00  0.00    +0.007 A 
ATOM     17  O   LIG A   1     -10.174   2.600 131.415  0.00  0.00    -0.453 OA
ATOM     18  C   LIG A   1     -10.428   3.683 130.497  0.00  0.00    +0.466 C 
ATOM     19  O   LIG A   1      -9.616   3.626 129.305  0.00  0.00    -0.453 OA
ENDBRANCH  10  11
ENDBRANCH   8  10
ENDBRANCH   1   8
BRANCH   1  20
ATOM     20  O   LIG A   1      -5.326  -1.103 125.157  0.00  0.00    -0.364 OA
ATOM     21  C   LIG A   1      -5.251  -2.299 124.394  0.00  0.00    +0.195 C 
ENDBRANCH   1  20
BRANCH   2  22
ATOM     22  O   LIG A   1      -7.326   0.410 123.868  0.00  0.00    -0.496 OA
ATOM     23  C   LIG A   1      -8.260   1.450 123.606  0.00  0.00    +0.277 C 
ENDBRANCH   2  22
BRANCH   6  24
ATOM     24  C   LIG A   1      -8.411  -3.711 127.787  0.00  0.00    +0.065 C 
BRANCH  24  25
ATOM     25  C   LIG A   1      -8.357  -3.209 129.202  0.00  0.00    -0.030 C 
ATOM     26  C   LIG A   1      -7.348  -3.474 130.043  0.00  0.00    +0.004 C 
ENDBRANCH  24  25
ENDBRANCH   6  24
TORSDOF 7
ENDMDL
MODEL 9
REMARK VINA RESULT:      -6.3      4.916      8.443
REMARK  Name = NuBBE_2183
REMARK  10 active torsions:
REMARK  status: ('A' for Active; 'I' for Inactive)
REMARK    1  A    between atoms: C_1  and  C_3
REMARK    2  A    between atoms: C_1  and  C_13
REMARK    3  A    between atoms: C_1  and  C_14
REMARK    4  A    between atoms: C_3  and  C_4
REMARK    5  A    between atoms: C_14  and  O_15
REMARK    6  A    between atoms: O_15  and  C_16
REMARK    7  A    between atoms: C_17  and  O_26
REMARK    8  A    between atoms: C_21  and  C_23
REMARK    9  A    between atoms: C_23  and  C_24
REMARK   10  A    between atoms: O_26  and  C_27
REMARK                            x       y       z     vdW  Elec       q    Type
REMARK                         _______ _______ _______ _____ _____    ______ ____
ROOT
ATOM      1  C   LIG A   1      -7.466   2.664 127.061  0.00  0.00    +0.147 C 
ATOM      2  C   LIG A   1      -7.962   2.827 125.612  0.00  0.00    +0.137 C 
ATOM      3  C   LIG A   1      -7.196   3.349 124.649  0.00  0.00    +0.095 C 
ATOM      4  C   LIG A   1      -5.813   3.810 124.903  0.00  0.00    +0.185 C 
ATOM      5  O   LIG A   1      -5.122   4.215 123.961  0.00  0.00    -0.287 OA
ATOM      6  C   LIG A   1      -5.311   3.783 126.304  0.00  0.00    +0.002 C 
ATOM      7  C   LIG A   1      -6.095   3.278 127.270  0.00  0.00    +0.023 C 
ENDROOT
BRANCH   1   8
ATOM      8  C   LIG A   1      -7.436   1.131 127.469  0.00  0.00    +0.034 C 
ATOM      9  C   LIG A   1      -7.155   0.951 128.977  0.00  0.00    +0.011 C 
BRANCH   8  10
ATOM     10  C   LIG A   1      -6.443   0.282 126.628  0.00  0.00    +0.042 C 
BRANCH  10  11
ATOM     11  C   LIG A   1      -7.059  -0.524 125.496  0.00  0.00    -0.043 A 
ATOM     12  C   LIG A   1      -8.150  -1.378 125.744  0.00  0.00    +0.053 A 
ATOM     13  C   LIG A   1      -8.652  -2.126 124.696  0.00  0.00    +0.167 A 
ATOM     14  C   LIG A   1      -8.105  -2.068 123.437  0.00  0.00    +0.166 A 
ATOM     15  C   LIG A   1      -7.037  -1.246 123.153  0.00  0.00    +0.050 A 
ATOM     16  C   LIG A   1      -6.517  -0.463 124.192  0.00  0.00    +0.007 A 
ATOM     17  O   LIG A   1      -8.734  -2.890 122.555  0.00  0.00    -0.453 OA
ATOM     18  C   LIG A   1      -9.752  -3.465 123.400  0.00  0.00    +0.466 C 
ATOM     19  O   LIG A   1      -9.705  -2.987 124.761  0.00  0.00    -0.453 OA
ENDBRANCH  10  11
ENDBRANCH   8  10
ENDBRANCH   1   8
BRANCH   1  20
ATOM     20  O   LIG A   1      -8.402   3.283 127.969  0.00  0.00    -0.364 OA
ATOM     21  C   LIG A   1      -7.939   4.389 128.731  0.00  0.00    +0.195 C 
ENDBRANCH   1  20
BRANCH   2  22
ATOM     22  O   LIG A   1      -9.276   2.412 125.434  0.00  0.00    -0.496 OA
ATOM     23  C   LIG A   1      -9.601   1.749 124.218  0.00  0.00    +0.277 C 
ENDBRANCH   2  22
BRANCH   6  24
ATOM     24  C   LIG A   1      -3.902   4.254 126.543  0.00  0.00    +0.065 C 
BRANCH  24  25
ATOM     25  C   LIG A   1      -3.031   3.204 127.173  0.00  0.00    -0.030 C 
ATOM     26  C   LIG A   1      -1.737   3.036 126.869  0.00  0.00    +0.004 C 
ENDBRANCH  24  25
ENDBRANCH   6  24
TORSDOF 7
ENDMDL
