MODEL 1
REMARK VINA RESULT:      -7.3      0.000      0.000
REMARK  Name = NuBBE_2151
REMARK  14 active torsions:
REMARK  status: ('A' for Active; 'I' for Inactive)
REMARK    1  A    between atoms: C_1  and  O_2
REMARK    2  A    between atoms: O_2  and  C_3
REMARK    3  A    between atoms: C_10  and  C_11
REMARK    4  A    between atoms: C_13  and  C_15
REMARK    5  A    between atoms: C_16  and  C_17
REMARK    6  A    between atoms: C_17  and  C_18
REMARK    7  A    between atoms: C_20  and  O_21
REMARK    8  A    between atoms: C_24  and  O_26
REMARK    9  A    between atoms: O_26  and  C_27
REMARK   10  A    between atoms: C_28  and  O_30
REMARK   11  A    between atoms: O_30  and  C_31
REMARK   12  A    between atoms: C_31  and  C_32
REMARK   13  A    between atoms: C_34  and  O_35
REMARK   14  A    between atoms: O_35  and  C_36
REMARK                            x       y       z     vdW  Elec       q    Type
REMARK                         _______ _______ _______ _____ _____    ______ ____
ROOT
ATOM      1  C   LIG A   1      -9.534   5.032 129.174  0.00  0.00    +0.061 C 
ATOM      2  C   LIG A   1      -9.364   4.560 130.649  0.00  0.00    +0.005 C 
ATOM      3  C   LIG A   1     -10.301   3.389 130.996  0.00  0.00    +0.009 C 
ATOM      4  C   LIG A   1      -9.488   5.845 131.547  0.00  0.00    +0.009 C 
ATOM      5  C   LIG A   1      -9.353   7.050 130.586  0.00  0.00    +0.157 C 
ATOM      6  C   LIG A   1     -10.873   6.027 132.156  0.00  0.00    +0.045 C 
ATOM      7  C   LIG A   1     -12.019   6.187 131.147  0.00  0.00    +0.162 C 
ATOM      8  C   LIG A   1     -11.621   6.691 129.720  0.00  0.00    +0.240 C 
ATOM      9  C   LIG A   1     -10.081   6.511 129.315  0.00  0.00    +0.141 C 
ENDROOT
BRANCH   1  17
ATOM     10  C   LIG A   1      -5.767   4.204 128.393  0.00  0.00    +0.166 A 
ATOM     11  C   LIG A   1      -5.825   4.116 127.025  0.00  0.00    +0.207 A 
ATOM     12  O   LIG A   1      -4.793   3.832 126.187  0.00  0.00    -0.449 OA
ATOM     13  C   LIG A   1      -5.462   3.751 124.930  0.00  0.00    +0.467 C 
ATOM     14  O   LIG A   1      -6.839   4.178 124.998  0.00  0.00    -0.453 OA
ATOM     15  C   LIG A   1      -7.003   4.328 126.347  0.00  0.00    +0.170 A 
ATOM     16  C   LIG A   1      -8.193   4.650 126.997  0.00  0.00    +0.053 A 
ATOM     17  C   LIG A   1      -8.200   4.754 128.406  0.00  0.00    -0.034 A 
ATOM     18  C   LIG A   1      -6.962   4.526 129.056  0.00  0.00    +0.053 A 
BRANCH  10  20
ATOM     19  C   LIG A   1      -4.090   5.190 129.735  0.00  0.00    +0.277 C 
ATOM     20  O   LIG A   1      -4.664   4.007 129.181  0.00  0.00    -0.491 OA
ENDBRANCH  10  20
ENDBRANCH   1  17
BRANCH   5  21
ATOM     21  O   LIG A   1      -8.019   7.488 130.445  0.00  0.00    -0.388 OA
ATOM     22  H   LIG A   1      -7.860   8.105 131.187  0.00  0.00    +0.210 HD
ENDBRANCH   5  21
BRANCH   7  23
ATOM     23  O   LIG A   1     -12.992   7.077 131.745  0.00  0.00    -0.376 OA
ATOM     24  C   LIG A   1     -12.919   8.409 131.233  0.00  0.00    +0.194 C 
ENDBRANCH   7  23
BRANCH   9  25
ATOM     25  O   LIG A   1      -9.755   7.332 128.174  0.00  0.00    -0.370 OA
ATOM     26  C   LIG A   1     -10.237   8.673 128.214  0.00  0.00    +0.195 C 
ENDBRANCH   9  25
BRANCH   4  27
ATOM     27  C   LIG A   1      -8.413   5.853 132.670  0.00  0.00    +0.036 C 
BRANCH  27  28
ATOM     28  C   LIG A   1      -8.760   5.023 133.882  0.00  0.00    -0.034 C 
ATOM     29  C   LIG A   1      -8.267   3.801 134.119  0.00  0.00    +0.004 C 
ENDBRANCH  27  28
ENDBRANCH   4  27
BRANCH   8  30
ATOM     30  O   LIG A   1     -12.524   6.042 128.780  0.00  0.00    -0.456 OA
BRANCH  30  31
ATOM     31  C   LIG A   1     -12.827   6.758 127.658  0.00  0.00    +0.304 C 
ATOM     32  C   LIG A   1     -13.886   7.795 127.962  0.00  0.00    +0.136 C 
ATOM     33  O   LIG A   1     -12.394   6.574 126.537  0.00  0.00    -0.251 OA
ENDBRANCH  30  31
ENDBRANCH   8  30
TORSDOF 9
ENDMDL
MODEL 2
REMARK VINA RESULT:      -7.2      4.456      8.746
REMARK  Name = NuBBE_2151
REMARK  14 active torsions:
REMARK  status: ('A' for Active; 'I' for Inactive)
REMARK    1  A    between atoms: C_1  and  O_2
REMARK    2  A    between atoms: O_2  and  C_3
REMARK    3  A    between atoms: C_10  and  C_11
REMARK    4  A    between atoms: C_13  and  C_15
REMARK    5  A    between atoms: C_16  and  C_17
REMARK    6  A    between atoms: C_17  and  C_18
REMARK    7  A    between atoms: C_20  and  O_21
REMARK    8  A    between atoms: C_24  and  O_26
REMARK    9  A    between atoms: O_26  and  C_27
REMARK   10  A    between atoms: C_28  and  O_30
REMARK   11  A    between atoms: O_30  and  C_31
REMARK   12  A    between atoms: C_31  and  C_32
REMARK   13  A    between atoms: C_34  and  O_35
REMARK   14  A    between atoms: O_35  and  C_36
REMARK                            x       y       z     vdW  Elec       q    Type
REMARK                         _______ _______ _______ _____ _____    ______ ____
ROOT
ATOM      1  C   LIG A   1      -8.283   0.986 126.599  0.00  0.00    +0.061 C 
ATOM      2  C   LIG A   1      -8.253   1.923 125.353  0.00  0.00    +0.005 C 
ATOM      3  C   LIG A   1      -9.589   1.913 124.587  0.00  0.00    +0.009 C 
ATOM      4  C   LIG A   1      -6.972   1.531 124.531  0.00  0.00    +0.009 C 
ATOM      5  C   LIG A   1      -6.108   0.665 125.476  0.00  0.00    +0.157 C 
ATOM      6  C   LIG A   1      -7.264   0.600 123.361  0.00  0.00    +0.045 C 
ATOM      7  C   LIG A   1      -7.873  -0.758 123.737  0.00  0.00    +0.162 C 
ATOM      8  C   LIG A   1      -7.616  -1.251 125.200  0.00  0.00    +0.240 C 
ATOM      9  C   LIG A   1      -7.204  -0.121 126.261  0.00  0.00    +0.141 C 
ENDROOT
BRANCH   1  17
ATOM     10  C   LIG A   1      -8.216   2.130 130.364  0.00  0.00    +0.166 A 
ATOM     11  C   LIG A   1      -7.734   3.406 130.213  0.00  0.00    +0.207 A 
ATOM     12  O   LIG A   1      -7.487   4.302 131.206  0.00  0.00    -0.449 OA
ATOM     13  C   LIG A   1      -6.893   5.375 130.477  0.00  0.00    +0.467 C 
ATOM     14  O   LIG A   1      -6.972   5.195 129.048  0.00  0.00    -0.453 OA
ATOM     15  C   LIG A   1      -7.451   3.917 128.967  0.00  0.00    +0.170 A 
ATOM     16  C   LIG A   1      -7.642   3.186 127.797  0.00  0.00    +0.053 A 
ATOM     17  C   LIG A   1      -8.135   1.865 127.885  0.00  0.00    -0.034 A 
ATOM     18  C   LIG A   1      -8.410   1.385 129.190  0.00  0.00    +0.053 A 
BRANCH  10  20
ATOM     19  C   LIG A   1      -9.872   1.668 131.985  0.00  0.00    +0.277 C 
ATOM     20  O   LIG A   1      -8.526   1.505 131.543  0.00  0.00    -0.491 OA
ENDBRANCH  10  20
ENDBRANCH   1  17
BRANCH   5  21
ATOM     21  O   LIG A   1      -5.183   1.427 126.223  0.00  0.00    -0.388 OA
ATOM     22  H   LIG A   1      -5.265   2.344 125.892  0.00  0.00    +0.210 HD
ENDBRANCH   5  21
BRANCH   7  23
ATOM     23  O   LIG A   1      -7.377  -1.727 122.783  0.00  0.00    -0.376 OA
ATOM     24  C   LIG A   1      -6.056  -2.183 123.085  0.00  0.00    +0.194 C 
ENDBRANCH   7  23
BRANCH   9  25
ATOM     25  O   LIG A   1      -6.634  -0.717 127.444  0.00  0.00    -0.370 OA
ATOM     26  C   LIG A   1      -5.651  -1.725 127.222  0.00  0.00    +0.195 C 
ENDBRANCH   9  25
BRANCH   4  27
ATOM     27  C   LIG A   1      -6.220   2.794 124.024  0.00  0.00    +0.036 C 
BRANCH  27  28
ATOM     28  C   LIG A   1      -6.643   3.274 122.656  0.00  0.00    -0.034 C 
ATOM     29  C   LIG A   1      -5.798   3.763 121.741  0.00  0.00    +0.004 C 
ENDBRANCH  27  28
ENDBRANCH   4  27
BRANCH   8  30
ATOM     30  O   LIG A   1      -8.803  -1.990 125.607  0.00  0.00    -0.456 OA
BRANCH  30  31
ATOM     31  C   LIG A   1      -8.628  -3.328 125.811  0.00  0.00    +0.304 C 
ATOM     32  C   LIG A   1      -8.865  -3.678 127.263  0.00  0.00    +0.136 C 
ATOM     33  O   LIG A   1      -8.257  -4.147 124.993  0.00  0.00    -0.251 OA
ENDBRANCH  30  31
ENDBRANCH   8  30
TORSDOF 9
ENDMDL
MODEL 3
REMARK VINA RESULT:      -7.1      4.699      7.374
REMARK  Name = NuBBE_2151
REMARK  14 active torsions:
REMARK  status: ('A' for Active; 'I' for Inactive)
REMARK    1  A    between atoms: C_1  and  O_2
REMARK    2  A    between atoms: O_2  and  C_3
REMARK    3  A    between atoms: C_10  and  C_11
REMARK    4  A    between atoms: C_13  and  C_15
REMARK    5  A    between atoms: C_16  and  C_17
REMARK    6  A    between atoms: C_17  and  C_18
REMARK    7  A    between atoms: C_20  and  O_21
REMARK    8  A    between atoms: C_24  and  O_26
REMARK    9  A    between atoms: O_26  and  C_27
REMARK   10  A    between atoms: C_28  and  O_30
REMARK   11  A    between atoms: O_30  and  C_31
REMARK   12  A    between atoms: C_31  and  C_32
REMARK   13  A    between atoms: C_34  and  O_35
REMARK   14  A    between atoms: O_35  and  C_36
REMARK                            x       y       z     vdW  Elec       q    Type
REMARK                         _______ _______ _______ _____ _____    ______ ____
ROOT
ATOM      1  C   LIG A   1      -5.809   3.885 126.571  0.00  0.00    +0.061 C 
ATOM      2  C   LIG A   1      -6.944   3.121 127.318  0.00  0.00    +0.005 C 
ATOM      3  C   LIG A   1      -7.883   4.075 128.078  0.00  0.00    +0.009 C 
ATOM      4  C   LIG A   1      -6.244   2.001 128.170  0.00  0.00    +0.009 C 
ATOM      5  C   LIG A   1      -4.799   1.895 127.628  0.00  0.00    +0.157 C 
ATOM      6  C   LIG A   1      -6.049   2.384 129.631  0.00  0.00    +0.045 C 
ATOM      7  C   LIG A   1      -5.170   3.619 129.876  0.00  0.00    +0.162 C 
ATOM      8  C   LIG A   1      -4.164   3.989 128.736  0.00  0.00    +0.240 C 
ATOM      9  C   LIG A   1      -4.488   3.386 127.287  0.00  0.00    +0.141 C 
ENDROOT
BRANCH   1  17
ATOM     10  C   LIG A   1      -7.187   2.630 123.104  0.00  0.00    +0.166 A 
ATOM     11  C   LIG A   1      -6.434   3.407 122.259  0.00  0.00    +0.207 A 
ATOM     12  O   LIG A   1      -6.490   3.413 120.900  0.00  0.00    -0.449 OA
ATOM     13  C   LIG A   1      -5.601   4.483 120.585  0.00  0.00    +0.467 C 
ATOM     14  O   LIG A   1      -4.878   4.970 121.735  0.00  0.00    -0.453 OA
ATOM     15  C   LIG A   1      -5.501   4.292 122.746  0.00  0.00    +0.170 A 
ATOM     16  C   LIG A   1      -5.256   4.447 124.109  0.00  0.00    +0.053 A 
ATOM     17  C   LIG A   1      -5.998   3.677 125.032  0.00  0.00    -0.034 A 
ATOM     18  C   LIG A   1      -6.948   2.781 124.480  0.00  0.00    +0.053 A 
BRANCH  10  20
ATOM     19  C   LIG A   1      -9.432   1.931 123.331  0.00  0.00    +0.277 C 
ATOM     20  O   LIG A   1      -8.148   1.723 122.746  0.00  0.00    -0.491 OA
ENDBRANCH  10  20
ENDBRANCH   1  17
BRANCH   5  21
ATOM     21  O   LIG A   1      -4.674   0.943 126.592  0.00  0.00    -0.388 OA
ATOM     22  H   LIG A   1      -5.581   0.629 126.407  0.00  0.00    +0.210 HD
ENDBRANCH   5  21
BRANCH   7  23
ATOM     23  O   LIG A   1      -4.465   3.400 131.121  0.00  0.00    -0.376 OA
ATOM     24  C   LIG A   1      -4.125   2.029 131.338  0.00  0.00    +0.194 C 
ENDBRANCH   7  23
BRANCH   9  25
ATOM     25  O   LIG A   1      -3.331   3.466 126.431  0.00  0.00    -0.370 OA
ATOM     26  C   LIG A   1      -2.085   3.126 127.034  0.00  0.00    +0.195 C 
ENDBRANCH   9  25
BRANCH   4  27
ATOM     27  C   LIG A   1      -7.018   0.655 128.076  0.00  0.00    +0.036 C 
BRANCH  27  28
ATOM     28  C   LIG A   1      -8.215   0.679 127.157  0.00  0.00    -0.034 C 
ATOM     29  C   LIG A   1      -8.447  -0.235 126.207  0.00  0.00    +0.004 C 
ENDBRANCH  27  28
ENDBRANCH   4  27
BRANCH   8  30
ATOM     30  O   LIG A   1      -4.062   5.442 128.724  0.00  0.00    -0.456 OA
BRANCH  30  31
ATOM     31  C   LIG A   1      -2.882   5.958 129.177  0.00  0.00    +0.304 C 
ATOM     32  C   LIG A   1      -2.268   6.869 128.137  0.00  0.00    +0.136 C 
ATOM     33  O   LIG A   1      -2.325   5.692 130.224  0.00  0.00    -0.251 OA
ENDBRANCH  30  31
ENDBRANCH   8  30
TORSDOF 9
ENDMDL
MODEL 4
REMARK VINA RESULT:      -6.9      5.484      8.056
REMARK  Name = NuBBE_2151
REMARK  14 active torsions:
REMARK  status: ('A' for Active; 'I' for Inactive)
REMARK    1  A    between atoms: C_1  and  O_2
REMARK    2  A    between atoms: O_2  and  C_3
REMARK    3  A    between atoms: C_10  and  C_11
REMARK    4  A    between atoms: C_13  and  C_15
REMARK    5  A    between atoms: C_16  and  C_17
REMARK    6  A    between atoms: C_17  and  C_18
REMARK    7  A    between atoms: C_20  and  O_21
REMARK    8  A    between atoms: C_24  and  O_26
REMARK    9  A    between atoms: O_26  and  C_27
REMARK   10  A    between atoms: C_28  and  O_30
REMARK   11  A    between atoms: O_30  and  C_31
REMARK   12  A    between atoms: C_31  and  C_32
REMARK   13  A    between atoms: C_34  and  O_35
REMARK   14  A    between atoms: O_35  and  C_36
REMARK                            x       y       z     vdW  Elec       q    Type
REMARK                         _______ _______ _______ _____ _____    ______ ____
ROOT
ATOM      1  C   LIG A   1      -7.916  -0.764 128.443  0.00  0.00    +0.061 C 
ATOM      2  C   LIG A   1      -7.313  -2.201 128.478  0.00  0.00    +0.005 C 
ATOM      3  C   LIG A   1      -8.308  -3.234 129.038  0.00  0.00    +0.009 C 
ATOM      4  C   LIG A   1      -5.931  -2.087 129.219  0.00  0.00    +0.009 C 
ATOM      5  C   LIG A   1      -5.594  -0.579 129.263  0.00  0.00    +0.157 C 
ATOM      6  C   LIG A   1      -5.998  -2.481 130.689  0.00  0.00    +0.045 C 
ATOM      7  C   LIG A   1      -6.936  -1.629 131.556  0.00  0.00    +0.162 C 
ATOM      8  C   LIG A   1      -7.260  -0.194 131.022  0.00  0.00    +0.240 C 
ATOM      9  C   LIG A   1      -7.010   0.047 129.457  0.00  0.00    +0.141 C 
ENDROOT
BRANCH   1  17
ATOM     10  C   LIG A   1      -7.630  -0.695 124.518  0.00  0.00    +0.166 A 
ATOM     11  C   LIG A   1      -8.356   0.439 124.251  0.00  0.00    +0.207 A 
ATOM     12  O   LIG A   1      -8.613   0.965 123.024  0.00  0.00    -0.449 OA
ATOM     13  C   LIG A   1      -9.497   2.036 123.354  0.00  0.00    +0.467 C 
ATOM     14  O   LIG A   1      -9.600   2.260 124.776  0.00  0.00    -0.453 OA
ATOM     15  C   LIG A   1      -8.911   1.185 125.265  0.00  0.00    +0.170 A 
ATOM     16  C   LIG A   1      -8.765   0.848 126.608  0.00  0.00    +0.053 A 
ATOM     17  C   LIG A   1      -8.030  -0.309 126.951  0.00  0.00    -0.034 A 
ATOM     18  C   LIG A   1      -7.479  -1.043 125.870  0.00  0.00    +0.053 A 
BRANCH  10  20
ATOM     19  C   LIG A   1      -6.901  -2.884 124.009  0.00  0.00    +0.277 C 
ATOM     20  O   LIG A   1      -7.038  -1.523 123.603  0.00  0.00    -0.491 OA
ENDBRANCH  10  20
ENDBRANCH   1  17
BRANCH   5  21
ATOM     21  O   LIG A   1      -4.835  -0.157 128.149  0.00  0.00    -0.388 OA
ATOM     22  H   LIG A   1      -5.328  -0.459 127.361  0.00  0.00    +0.210 HD
ENDBRANCH   5  21
BRANCH   7  23
ATOM     23  O   LIG A   1      -6.347  -1.555 132.877  0.00  0.00    -0.376 OA
ATOM     24  C   LIG A   1      -5.240  -0.655 132.946  0.00  0.00    +0.194 C 
ENDBRANCH   7  23
BRANCH   9  25
ATOM     25  O   LIG A   1      -6.973   1.457 129.159  0.00  0.00    -0.370 OA
ATOM     26  C   LIG A   1      -6.195   2.261 130.044  0.00  0.00    +0.195 C 
ENDBRANCH   9  25
BRANCH   4  27
ATOM     27  C   LIG A   1      -4.836  -2.924 128.499  0.00  0.00    +0.036 C 
BRANCH  27  28
ATOM     28  C   LIG A   1      -3.703  -3.378 129.387  0.00  0.00    -0.034 C 
ATOM     29  C   LIG A   1      -2.659  -4.098 128.958  0.00  0.00    +0.004 C 
ENDBRANCH  27  28
ENDBRANCH   4  27
BRANCH   8  30
ATOM     30  O   LIG A   1      -8.631   0.100 131.419  0.00  0.00    -0.456 OA
BRANCH  30  31
ATOM     31  C   LIG A   1      -8.787   1.152 132.274  0.00  0.00    +0.304 C 
ATOM     32  C   LIG A   1      -9.986   1.984 131.874  0.00  0.00    +0.136 C 
ATOM     33  O   LIG A   1      -8.051   1.464 133.189  0.00  0.00    -0.251 OA
ENDBRANCH  30  31
ENDBRANCH   8  30
TORSDOF 9
ENDMDL
MODEL 5
REMARK VINA RESULT:      -6.8      4.909      7.945
REMARK  Name = NuBBE_2151
REMARK  14 active torsions:
REMARK  status: ('A' for Active; 'I' for Inactive)
REMARK    1  A    between atoms: C_1  and  O_2
REMARK    2  A    between atoms: O_2  and  C_3
REMARK    3  A    between atoms: C_10  and  C_11
REMARK    4  A    between atoms: C_13  and  C_15
REMARK    5  A    between atoms: C_16  and  C_17
REMARK    6  A    between atoms: C_17  and  C_18
REMARK    7  A    between atoms: C_20  and  O_21
REMARK    8  A    between atoms: C_24  and  O_26
REMARK    9  A    between atoms: O_26  and  C_27
REMARK   10  A    between atoms: C_28  and  O_30
REMARK   11  A    between atoms: O_30  and  C_31
REMARK   12  A    between atoms: C_31  and  C_32
REMARK   13  A    between atoms: C_34  and  O_35
REMARK   14  A    between atoms: O_35  and  C_36
REMARK                            x       y       z     vdW  Elec       q    Type
REMARK                         _______ _______ _______ _____ _____    ______ ____
ROOT
ATOM      1  C   LIG A   1      -7.275   1.012 127.663  0.00  0.00    +0.061 C 
ATOM      2  C   LIG A   1      -6.336   2.074 128.312  0.00  0.00    +0.005 C 
ATOM      3  C   LIG A   1      -7.124   3.230 128.954  0.00  0.00    +0.009 C 
ATOM      4  C   LIG A   1      -5.282   2.469 127.214  0.00  0.00    +0.009 C 
ATOM      5  C   LIG A   1      -5.391   1.391 126.111  0.00  0.00    +0.157 C 
ATOM      6  C   LIG A   1      -5.625   3.762 126.484  0.00  0.00    +0.045 C 
ATOM      7  C   LIG A   1      -6.953   3.751 125.714  0.00  0.00    +0.162 C 
ATOM      8  C   LIG A   1      -7.501   2.345 125.301  0.00  0.00    +0.240 C 
ATOM      9  C   LIG A   1      -6.924   1.095 126.121  0.00  0.00    +0.141 C 
ENDROOT
BRANCH   1  17
ATOM     10  C   LIG A   1      -7.703  -2.735 128.787  0.00  0.00    +0.166 A 
ATOM     11  C   LIG A   1      -6.718  -2.807 129.740  0.00  0.00    +0.207 A 
ATOM     12  O   LIG A   1      -6.386  -3.899 130.480  0.00  0.00    -0.449 OA
ATOM     13  C   LIG A   1      -5.239  -3.425 131.185  0.00  0.00    +0.467 C 
ATOM     14  O   LIG A   1      -5.019  -2.010 131.011  0.00  0.00    -0.453 OA
ATOM     15  C   LIG A   1      -5.944  -1.713 130.048  0.00  0.00    +0.170 A 
ATOM     16  C   LIG A   1      -6.114  -0.477 129.428  0.00  0.00    +0.053 A 
ATOM     17  C   LIG A   1      -7.111  -0.337 128.437  0.00  0.00    -0.034 A 
ATOM     18  C   LIG A   1      -7.880  -1.494 128.156  0.00  0.00    +0.053 A 
BRANCH  10  20
ATOM     19  C   LIG A   1      -8.973  -3.678 127.031  0.00  0.00    +0.277 C 
ATOM     20  O   LIG A   1      -8.531  -3.750 128.385  0.00  0.00    -0.491 OA
ENDBRANCH  10  20
ENDBRANCH   1  17
BRANCH   5  21
ATOM     21  O   LIG A   1      -4.510   0.307 126.319  0.00  0.00    -0.388 OA
ATOM     22  H   LIG A   1      -4.815  -0.131 127.138  0.00  0.00    +0.210 HD
ENDBRANCH   5  21
BRANCH   7  23
ATOM     23  O   LIG A   1      -6.775   4.587 124.546  0.00  0.00    -0.376 OA
ATOM     24  C   LIG A   1      -5.731   4.129 123.684  0.00  0.00    +0.194 C 
ENDBRANCH   7  23
BRANCH   9  25
ATOM     25  O   LIG A   1      -7.193  -0.140 125.426  0.00  0.00    -0.370 OA
ATOM     26  C   LIG A   1      -6.774  -0.191 124.064  0.00  0.00    +0.195 C 
ENDBRANCH   9  25
BRANCH   4  27
ATOM     27  C   LIG A   1      -3.852   2.567 127.816  0.00  0.00    +0.036 C 
BRANCH  27  28
ATOM     28  C   LIG A   1      -2.894   3.429 127.030  0.00  0.00    -0.034 C 
ATOM     29  C   LIG A   1      -1.709   3.006 126.573  0.00  0.00    +0.004 C 
ENDBRANCH  27  28
ENDBRANCH   4  27
BRANCH   8  30
ATOM     30  O   LIG A   1      -8.954   2.428 125.363  0.00  0.00    -0.456 OA
BRANCH  30  31
ATOM     31  C   LIG A   1      -9.626   1.873 124.313  0.00  0.00    +0.304 C 
ATOM     32  C   LIG A   1      -9.079   2.392 123.001  0.00  0.00    +0.136 C 
ATOM     33  O   LIG A   1     -10.583   1.127 124.372  0.00  0.00    -0.251 OA
ENDBRANCH  30  31
ENDBRANCH   8  30
TORSDOF 9
ENDMDL
MODEL 6
REMARK VINA RESULT:      -6.8      5.270      8.105
REMARK  Name = NuBBE_2151
REMARK  14 active torsions:
REMARK  status: ('A' for Active; 'I' for Inactive)
REMARK    1  A    between atoms: C_1  and  O_2
REMARK    2  A    between atoms: O_2  and  C_3
REMARK    3  A    between atoms: C_10  and  C_11
REMARK    4  A    between atoms: C_13  and  C_15
REMARK    5  A    between atoms: C_16  and  C_17
REMARK    6  A    between atoms: C_17  and  C_18
REMARK    7  A    between atoms: C_20  and  O_21
REMARK    8  A    between atoms: C_24  and  O_26
REMARK    9  A    between atoms: O_26  and  C_27
REMARK   10  A    between atoms: C_28  and  O_30
REMARK   11  A    between atoms: O_30  and  C_31
REMARK   12  A    between atoms: C_31  and  C_32
REMARK   13  A    between atoms: C_34  and  O_35
REMARK   14  A    between atoms: O_35  and  C_36
REMARK                            x       y       z     vdW  Elec       q    Type
REMARK                         _______ _______ _______ _____ _____    ______ ____
ROOT
ATOM      1  C   LIG A   1      -7.522   0.849 126.670  0.00  0.00    +0.061 C 
ATOM      2  C   LIG A   1      -7.994  -0.314 125.746  0.00  0.00    +0.005 C 
ATOM      3  C   LIG A   1      -9.509  -0.566 125.857  0.00  0.00    +0.009 C 
ATOM      4  C   LIG A   1      -7.056  -1.538 126.054  0.00  0.00    +0.009 C 
ATOM      5  C   LIG A   1      -5.859  -0.967 126.848  0.00  0.00    +0.157 C 
ATOM      6  C   LIG A   1      -7.673  -2.547 127.015  0.00  0.00    +0.045 C 
ATOM      7  C   LIG A   1      -8.017  -2.002 128.409  0.00  0.00    +0.162 C 
ATOM      8  C   LIG A   1      -7.232  -0.729 128.868  0.00  0.00    +0.240 C 
ATOM      9  C   LIG A   1      -6.555   0.138 127.702  0.00  0.00    +0.141 C 
ENDROOT
BRANCH   1  17
ATOM     10  C   LIG A   1      -5.940   4.262 125.512  0.00  0.00    +0.166 A 
ATOM     11  C   LIG A   1      -5.918   4.060 124.154  0.00  0.00    +0.207 A 
ATOM     12  O   LIG A   1      -5.453   4.927 123.215  0.00  0.00    -0.449 OA
ATOM     13  C   LIG A   1      -5.563   4.143 122.028  0.00  0.00    +0.467 C 
ATOM     14  O   LIG A   1      -6.271   2.903 122.237  0.00  0.00    -0.453 OA
ATOM     15  C   LIG A   1      -6.402   2.899 123.598  0.00  0.00    +0.170 A 
ATOM     16  C   LIG A   1      -6.945   1.872 124.366  0.00  0.00    +0.053 A 
ATOM     17  C   LIG A   1      -6.995   2.016 125.771  0.00  0.00    -0.034 A 
ATOM     18  C   LIG A   1      -6.484   3.230 126.294  0.00  0.00    +0.053 A 
BRANCH  10  20
ATOM     19  C   LIG A   1      -4.477   5.110 127.162  0.00  0.00    +0.277 C 
ATOM     20  O   LIG A   1      -5.484   5.364 126.185  0.00  0.00    -0.491 OA
ENDBRANCH  10  20
ENDBRANCH   1  17
BRANCH   5  21
ATOM     21  O   LIG A   1      -4.787  -0.578 126.015  0.00  0.00    -0.388 OA
ATOM     22  H   LIG A   1      -4.955  -1.000 125.149  0.00  0.00    +0.210 HD
ENDBRANCH   5  21
BRANCH   7  23
ATOM     23  O   LIG A   1      -7.819  -3.085 129.350  0.00  0.00    -0.376 OA
ATOM     24  C   LIG A   1      -6.440  -3.377 129.584  0.00  0.00    +0.194 C 
ENDBRANCH   7  23
BRANCH   9  25
ATOM     25  O   LIG A   1      -5.568   1.039 128.245  0.00  0.00    -0.370 OA
ATOM     26  C   LIG A   1      -4.757   0.515 129.293  0.00  0.00    +0.195 C 
ENDBRANCH   9  25
BRANCH   4  27
ATOM     27  C   LIG A   1      -6.619  -2.255 124.746  0.00  0.00    +0.036 C 
BRANCH  27  28
ATOM     28  C   LIG A   1      -7.270  -1.729 123.490  0.00  0.00    -0.034 C 
ATOM     29  C   LIG A   1      -8.246  -2.365 122.830  0.00  0.00    +0.004 C 
ENDBRANCH  27  28
ENDBRANCH   4  27
BRANCH   8  30
ATOM     30  O   LIG A   1      -8.148   0.055 129.685  0.00  0.00    -0.456 OA
BRANCH  30  31
ATOM     31  C   LIG A   1      -8.021  -0.101 131.035  0.00  0.00    +0.304 C 
ATOM     32  C   LIG A   1      -9.175   0.560 131.755  0.00  0.00    +0.136 C 
ATOM     33  O   LIG A   1      -7.092  -0.618 131.624  0.00  0.00    -0.251 OA
ENDBRANCH  30  31
ENDBRANCH   8  30
TORSDOF 9
ENDMDL
MODEL 7
REMARK VINA RESULT:      -6.8      3.692      7.568
REMARK  Name = NuBBE_2151
REMARK  14 active torsions:
REMARK  status: ('A' for Active; 'I' for Inactive)
REMARK    1  A    between atoms: C_1  and  O_2
REMARK    2  A    between atoms: O_2  and  C_3
REMARK    3  A    between atoms: C_10  and  C_11
REMARK    4  A    between atoms: C_13  and  C_15
REMARK    5  A    between atoms: C_16  and  C_17
REMARK    6  A    between atoms: C_17  and  C_18
REMARK    7  A    between atoms: C_20  and  O_21
REMARK    8  A    between atoms: C_24  and  O_26
REMARK    9  A    between atoms: O_26  and  C_27
REMARK   10  A    between atoms: C_28  and  O_30
REMARK   11  A    between atoms: O_30  and  C_31
REMARK   12  A    between atoms: C_31  and  C_32
REMARK   13  A    between atoms: C_34  and  O_35
REMARK   14  A    between atoms: O_35  and  C_36
REMARK                            x       y       z     vdW  Elec       q    Type
REMARK                         _______ _______ _______ _____ _____    ______ ____
ROOT
ATOM      1  C   LIG A   1      -6.417   1.994 127.385  0.00  0.00    +0.061 C 
ATOM      2  C   LIG A   1      -5.605   2.534 126.169  0.00  0.00    +0.005 C 
ATOM      3  C   LIG A   1      -4.102   2.221 126.288  0.00  0.00    +0.009 C 
ATOM      4  C   LIG A   1      -5.993   4.050 126.010  0.00  0.00    +0.009 C 
ATOM      5  C   LIG A   1      -7.263   4.255 126.869  0.00  0.00    +0.157 C 
ATOM      6  C   LIG A   1      -4.982   5.003 126.635  0.00  0.00    +0.045 C 
ATOM      7  C   LIG A   1      -4.777   4.845 128.149  0.00  0.00    +0.162 C 
ATOM      8  C   LIG A   1      -5.950   4.177 128.940  0.00  0.00    +0.240 C 
ATOM      9  C   LIG A   1      -6.977   3.304 128.073  0.00  0.00    +0.141 C 
ENDROOT
BRANCH   1  17
ATOM     10  C   LIG A   1      -9.187   0.113 125.316  0.00  0.00    +0.166 A 
ATOM     11  C   LIG A   1      -9.074  -1.142 125.861  0.00  0.00    +0.207 A 
ATOM     12  O   LIG A   1      -9.796  -2.242 125.517  0.00  0.00    -0.449 OA
ATOM     13  C   LIG A   1      -9.167  -3.251 126.306  0.00  0.00    +0.467 C 
ATOM     14  O   LIG A   1      -8.217  -2.715 127.250  0.00  0.00    -0.453 OA
ATOM     15  C   LIG A   1      -8.172  -1.403 126.866  0.00  0.00    +0.170 A 
ATOM     16  C   LIG A   1      -7.334  -0.423 127.393  0.00  0.00    +0.053 A 
ATOM     17  C   LIG A   1      -7.400   0.889 126.874  0.00  0.00    -0.034 A 
ATOM     18  C   LIG A   1      -8.345   1.106 125.840  0.00  0.00    +0.053 A 
BRANCH  10  20
ATOM     19  C   LIG A   1      -9.670   1.695 123.629  0.00  0.00    +0.277 C 
ATOM     20  O   LIG A   1     -10.034   0.497 124.311  0.00  0.00    -0.491 OA
ENDBRANCH  10  20
ENDBRANCH   1  17
BRANCH   5  21
ATOM     21  O   LIG A   1      -8.454   4.053 126.139  0.00  0.00    -0.388 OA
ATOM     22  H   LIG A   1      -9.181   4.114 126.790  0.00  0.00    +0.210 HD
ENDBRANCH   5  21
BRANCH   7  23
ATOM     23  O   LIG A   1      -4.493   6.161 128.680  0.00  0.00    -0.376 OA
ATOM     24  C   LIG A   1      -3.306   6.740 128.135  0.00  0.00    +0.194 C 
ENDBRANCH   7  23
BRANCH   9  25
ATOM     25  O   LIG A   1      -8.192   3.064 128.812  0.00  0.00    -0.370 OA
ATOM     26  C   LIG A   1      -8.691   4.166 129.566  0.00  0.00    +0.195 C 
ENDBRANCH   9  25
BRANCH   4  27
ATOM     27  C   LIG A   1      -6.215   4.421 124.517  0.00  0.00    +0.036 C 
BRANCH  27  28
ATOM     28  C   LIG A   1      -6.239   3.245 123.571  0.00  0.00    -0.034 C 
ATOM     29  C   LIG A   1      -6.256   3.357 122.237  0.00  0.00    +0.004 C 
ENDBRANCH  27  28
ENDBRANCH   4  27
BRANCH   8  30
ATOM     30  O   LIG A   1      -5.343   3.412 130.021  0.00  0.00    -0.456 OA
BRANCH  30  31
ATOM     31  C   LIG A   1      -5.157   4.086 131.193  0.00  0.00    +0.304 C 
ATOM     32  C   LIG A   1      -3.718   3.974 131.645  0.00  0.00    +0.136 C 
ATOM     33  O   LIG A   1      -6.010   4.642 131.857  0.00  0.00    -0.251 OA
ENDBRANCH  30  31
ENDBRANCH   8  30
TORSDOF 9
ENDMDL
MODEL 8
REMARK VINA RESULT:      -6.6      5.726      7.933
REMARK  Name = NuBBE_2151
REMARK  14 active torsions:
REMARK  status: ('A' for Active; 'I' for Inactive)
REMARK    1  A    between atoms: C_1  and  O_2
REMARK    2  A    between atoms: O_2  and  C_3
REMARK    3  A    between atoms: C_10  and  C_11
REMARK    4  A    between atoms: C_13  and  C_15
REMARK    5  A    between atoms: C_16  and  C_17
REMARK    6  A    between atoms: C_17  and  C_18
REMARK    7  A    between atoms: C_20  and  O_21
REMARK    8  A    between atoms: C_24  and  O_26
REMARK    9  A    between atoms: O_26  and  C_27
REMARK   10  A    between atoms: C_28  and  O_30
REMARK   11  A    between atoms: O_30  and  C_31
REMARK   12  A    between atoms: C_31  and  C_32
REMARK   13  A    between atoms: C_34  and  O_35
REMARK   14  A    between atoms: O_35  and  C_36
REMARK                            x       y       z     vdW  Elec       q    Type
REMARK                         _______ _______ _______ _____ _____    ______ ____
ROOT
ATOM      1  C   LIG A   1      -7.894  -1.126 128.486  0.00  0.00    +0.061 C 
ATOM      2  C   LIG A   1      -7.309  -2.455 129.054  0.00  0.00    +0.005 C 
ATOM      3  C   LIG A   1      -8.365  -3.274 129.818  0.00  0.00    +0.009 C 
ATOM      4  C   LIG A   1      -6.011  -2.067 129.851  0.00  0.00    +0.009 C 
ATOM      5  C   LIG A   1      -5.670  -0.619 129.429  0.00  0.00    +0.157 C 
ATOM      6  C   LIG A   1      -6.234  -1.957 131.354  0.00  0.00    +0.045 C 
ATOM      7  C   LIG A   1      -7.252  -0.894 131.793  0.00  0.00    +0.162 C 
ATOM      8  C   LIG A   1      -7.508   0.276 130.786  0.00  0.00    +0.240 C 
ATOM      9  C   LIG A   1      -7.094  -0.003 129.263  0.00  0.00    +0.141 C 
ENDROOT
BRANCH   1  17
ATOM     10  C   LIG A   1      -8.728  -0.516 124.688  0.00  0.00    +0.166 A 
ATOM     11  C   LIG A   1      -7.683  -1.191 124.108  0.00  0.00    +0.207 A 
ATOM     12  O   LIG A   1      -7.440  -1.315 122.776  0.00  0.00    -0.449 OA
ATOM     13  C   LIG A   1      -6.184  -1.992 122.780  0.00  0.00    +0.467 C 
ATOM     14  O   LIG A   1      -5.789  -2.436 124.095  0.00  0.00    -0.453 OA
ATOM     15  C   LIG A   1      -6.745  -1.844 124.873  0.00  0.00    +0.170 A 
ATOM     16  C   LIG A   1      -6.799  -1.867 126.265  0.00  0.00    +0.053 A 
ATOM     17  C   LIG A   1      -7.849  -1.190 126.924  0.00  0.00    -0.034 A 
ATOM     18  C   LIG A   1      -8.789  -0.533 126.091  0.00  0.00    +0.053 A 
BRANCH  10  20
ATOM     19  C   LIG A   1      -9.842   1.549 124.407  0.00  0.00    +0.277 C 
ATOM     20  O   LIG A   1      -9.717   0.176 124.041  0.00  0.00    -0.491 OA
ENDBRANCH  10  20
ENDBRANCH   1  17
BRANCH   5  21
ATOM     21  O   LIG A   1      -4.796  -0.565 128.322  0.00  0.00    -0.388 OA
ATOM     22  H   LIG A   1      -3.915  -0.346 128.686  0.00  0.00    +0.210 HD
ENDBRANCH   5  21
BRANCH   7  23
ATOM     23  O   LIG A   1      -6.803  -0.375 133.068  0.00  0.00    -0.376 OA
ATOM     24  C   LIG A   1      -5.740   0.572 132.943  0.00  0.00    +0.194 C 
ENDBRANCH   7  23
BRANCH   9  25
ATOM     25  O   LIG A   1      -7.015   1.232 128.522  0.00  0.00    -0.370 OA
ATOM     26  C   LIG A   1      -6.319   2.299 129.162  0.00  0.00    +0.195 C 
ENDBRANCH   9  25
BRANCH   4  27
ATOM     27  C   LIG A   1      -4.853  -3.063 129.561  0.00  0.00    +0.036 C 
BRANCH  27  28
ATOM     28  C   LIG A   1      -4.648  -4.117 130.622  0.00  0.00    -0.034 C 
ATOM     29  C   LIG A   1      -5.414  -5.207 130.752  0.00  0.00    +0.004 C 
ENDBRANCH  27  28
ENDBRANCH   4  27
BRANCH   8  30
ATOM     30  O   LIG A   1      -8.910   0.646 130.923  0.00  0.00    -0.456 OA
BRANCH  30  31
ATOM     31  C   LIG A   1      -9.156   1.782 131.640  0.00  0.00    +0.304 C 
ATOM     32  C   LIG A   1      -9.567   2.910 130.719  0.00  0.00    +0.136 C 
ATOM     33  O   LIG A   1      -9.003   1.936 132.836  0.00  0.00    -0.251 OA
ENDBRANCH  30  31
ENDBRANCH   8  30
TORSDOF 9
ENDMDL
MODEL 9
REMARK VINA RESULT:      -6.5      5.853      9.122
REMARK  Name = NuBBE_2151
REMARK  14 active torsions:
REMARK  status: ('A' for Active; 'I' for Inactive)
REMARK    1  A    between atoms: C_1  and  O_2
REMARK    2  A    between atoms: O_2  and  C_3
REMARK    3  A    between atoms: C_10  and  C_11
REMARK    4  A    between atoms: C_13  and  C_15
REMARK    5  A    between atoms: C_16  and  C_17
REMARK    6  A    between atoms: C_17  and  C_18
REMARK    7  A    between atoms: C_20  and  O_21
REMARK    8  A    between atoms: C_24  and  O_26
REMARK    9  A    between atoms: O_26  and  C_27
REMARK   10  A    between atoms: C_28  and  O_30
REMARK   11  A    between atoms: O_30  and  C_31
REMARK   12  A    between atoms: C_31  and  C_32
REMARK   13  A    between atoms: C_34  and  O_35
REMARK   14  A    between atoms: O_35  and  C_36
REMARK                            x       y       z     vdW  Elec       q    Type
REMARK                         _______ _______ _______ _____ _____    ______ ____
ROOT
ATOM      1  C   LIG A   1      -6.077  -0.714 128.246  0.00  0.00    +0.061 C 
ATOM      2  C   LIG A   1      -6.274   0.784 128.630  0.00  0.00    +0.005 C 
ATOM      3  C   LIG A   1      -5.052   1.644 128.260  0.00  0.00    +0.009 C 
ATOM      4  C   LIG A   1      -6.715   0.804 130.139  0.00  0.00    +0.009 C 
ATOM      5  C   LIG A   1      -7.119  -0.648 130.484  0.00  0.00    +0.157 C 
ATOM      6  C   LIG A   1      -5.569   1.094 131.100  0.00  0.00    +0.045 C 
ATOM      7  C   LIG A   1      -4.419   0.077 131.079  0.00  0.00    +0.162 C 
ATOM      8  C   LIG A   1      -4.769  -1.352 130.546  0.00  0.00    +0.240 C 
ATOM      9  C   LIG A   1      -6.088  -1.462 129.641  0.00  0.00    +0.141 C 
ENDROOT
BRANCH   1  17
ATOM     10  C   LIG A   1      -9.129  -0.535 125.768  0.00  0.00    +0.166 A 
ATOM     11  C   LIG A   1      -8.925  -1.694 125.061  0.00  0.00    +0.207 A 
ATOM     12  O   LIG A   1      -9.686  -2.163 124.036  0.00  0.00    -0.449 OA
ATOM     13  C   LIG A   1      -8.935  -3.304 123.624  0.00  0.00    +0.467 C 
ATOM     14  O   LIG A   1      -7.851  -3.617 124.523  0.00  0.00    -0.453 OA
ATOM     15  C   LIG A   1      -7.874  -2.532 125.355  0.00  0.00    +0.170 A 
ATOM     16  C   LIG A   1      -6.969  -2.265 126.379  0.00  0.00    +0.053 A 
ATOM     17  C   LIG A   1      -7.122  -1.087 127.144  0.00  0.00    -0.034 A 
ATOM     18  C   LIG A   1      -8.220  -0.258 126.801  0.00  0.00    +0.053 A 
BRANCH  10  20
ATOM     19  C   LIG A   1      -9.857   1.374 124.581  0.00  0.00    +0.277 C 
ATOM     20  O   LIG A   1     -10.128   0.381 125.568  0.00  0.00    -0.491 OA
ENDBRANCH  10  20
ENDBRANCH   1  17
BRANCH   5  21
ATOM     21  O   LIG A   1      -8.491  -0.899 130.267  0.00  0.00    -0.388 OA
ATOM     22  H   LIG A   1      -8.811  -1.348 131.075  0.00  0.00    +0.210 HD
ENDBRANCH   5  21
BRANCH   7  23
ATOM     23  O   LIG A   1      -3.895  -0.001 132.426  0.00  0.00    -0.376 OA
ATOM     24  C   LIG A   1      -4.549  -0.989 133.225  0.00  0.00    +0.194 C 
ENDBRANCH   7  23
BRANCH   9  25
ATOM     25  O   LIG A   1      -6.516  -2.835 129.529  0.00  0.00    -0.370 OA
ATOM     26  C   LIG A   1      -6.624  -3.555 130.754  0.00  0.00    +0.195 C 
ENDBRANCH   9  25
BRANCH   4  27
ATOM     27  C   LIG A   1      -7.870   1.818 130.374  0.00  0.00    +0.036 C 
BRANCH  27  28
ATOM     28  C   LIG A   1      -8.348   2.530 129.132  0.00  0.00    -0.034 C 
ATOM     29  C   LIG A   1      -8.254   3.852 128.944  0.00  0.00    +0.004 C 
ENDBRANCH  27  28
ENDBRANCH   4  27
BRANCH   8  30
ATOM     30  O   LIG A   1      -3.582  -1.844 129.860  0.00  0.00    -0.456 OA
BRANCH  30  31
ATOM     31  C   LIG A   1      -3.206  -3.120 130.169  0.00  0.00    +0.304 C 
ATOM     32  C   LIG A   1      -2.984  -3.926 128.908  0.00  0.00    +0.136 C 
ATOM     33  O   LIG A   1      -3.125  -3.608 131.279  0.00  0.00    -0.251 OA
ENDBRANCH  30  31
ENDBRANCH   8  30
TORSDOF 9
ENDMDL
