MODEL 1
REMARK VINA RESULT:      -6.2      0.000      0.000
REMARK  Name = NuBBE_1686
REMARK  13 active torsions:
REMARK  status: ('A' for Active; 'I' for Inactive)
REMARK    1  A    between atoms: C_2  and  C_3
REMARK    2  A    between atoms: C_3  and  C_4
REMARK    3  A    between atoms: C_5  and  C_6
REMARK    4  A    between atoms: C_6  and  C_7
REMARK    5  A    between atoms: C_8  and  C_9
REMARK    6  A    between atoms: C_9  and  C_10
REMARK    7  A    between atoms: C_10  and  C_11
REMARK    8  A    between atoms: C_11  and  C_12
REMARK    9  A    between atoms: C_12  and  C_13
REMARK   10  A    between atoms: C_13  and  C_14
REMARK   11  A    between atoms: C_14  and  C_15
REMARK   12  A    between atoms: C_15  and  C_16
REMARK   13  A    between atoms: C_20  and  O_21
REMARK                            x       y       z     vdW  Elec       q    Type
REMARK                         _______ _______ _______ _____ _____    ______ ____
ROOT
ATOM      1  C   LIG A   1      -9.405  -3.220 126.187  0.00  0.00    +0.000 C 
ENDROOT
BRANCH   1   2
ATOM      2  C   LIG A   1      -8.759  -3.736 124.894  0.00  0.00    +0.000 C 
BRANCH   2   3
ATOM      3  C   LIG A   1      -9.287  -3.152 123.558  0.00  0.00    +0.004 C 
BRANCH   3   4
ATOM      4  C   LIG A   1      -8.543  -1.977 122.858  0.00  0.00    +0.027 C 
BRANCH   4   6
ATOM      5  C   LIG A   1      -8.750   0.118 124.449  0.00  0.00    -0.027 C 
ATOM      6  C   LIG A   1      -9.036  -0.633 123.366  0.00  0.00    -0.031 C 
BRANCH   5   7
ATOM      7  C   LIG A   1      -7.793  -0.020 125.595  0.00  0.00    +0.054 C 
BRANCH   7   9
ATOM      8  C   LIG A   1      -5.462  -1.001 125.177  0.00  0.00    -0.027 C 
ATOM      9  C   LIG A   1      -6.338   0.043 125.223  0.00  0.00    -0.027 C 
BRANCH   8  10
ATOM     10  C   LIG A   1      -5.643  -2.463 125.471  0.00  0.00    +0.053 C 
BRANCH  10  12
ATOM     11  C   LIG A   1      -4.953  -2.935 123.162  0.00  0.00    +0.004 C 
ATOM     12  C   LIG A   1      -5.276  -3.396 124.399  0.00  0.00    -0.031 C 
ENDBRANCH  10  12
ENDBRANCH   8  10
ENDBRANCH   7   9
ENDBRANCH   5   7
ENDBRANCH   4   6
ENDBRANCH   3   4
ENDBRANCH   2   3
ENDBRANCH   1   2
BRANCH   1  13
ATOM     13  C   LIG A   1      -8.817  -3.746 127.498  0.00  0.00    +0.000 C 
BRANCH  13  14
ATOM     14  C   LIG A   1      -8.183  -2.699 128.423  0.00  0.00    +0.005 C 
BRANCH  14  15
ATOM     15  C   LIG A   1      -6.748  -3.066 128.838  0.00  0.00    +0.035 C 
BRANCH  15  16
ATOM     16  C   LIG A   1      -6.583  -3.555 130.250  0.00  0.00    -0.044 A 
ATOM     17  C   LIG A   1      -5.659  -4.569 130.533  0.00  0.00    +0.004 A 
ATOM     18  C   LIG A   1      -5.420  -4.945 131.846  0.00  0.00    +0.004 A 
ATOM     19  C   LIG A   1      -6.082  -4.285 132.879  0.00  0.00    +0.045 A 
ATOM     20  C   LIG A   1      -7.035  -3.314 132.604  0.00  0.00    +0.117 A 
ATOM     21  C   LIG A   1      -7.285  -2.942 131.296  0.00  0.00    +0.049 A 
BRANCH  20  22
ATOM     22  O   LIG A   1      -7.731  -2.679 133.587  0.00  0.00    -0.507 OA
ATOM     23  H   LIG A   1      -7.954  -1.787 133.282  0.00  0.00    +0.292 HD
ENDBRANCH  20  22
ENDBRANCH  15  16
ENDBRANCH  14  15
ENDBRANCH  13  14
ENDBRANCH   1  13
TORSDOF 13
ENDMDL
MODEL 2
REMARK VINA RESULT:      -6.1      3.544      6.299
REMARK  Name = NuBBE_1686
REMARK  13 active torsions:
REMARK  status: ('A' for Active; 'I' for Inactive)
REMARK    1  A    between atoms: C_2  and  C_3
REMARK    2  A    between atoms: C_3  and  C_4
REMARK    3  A    between atoms: C_5  and  C_6
REMARK    4  A    between atoms: C_6  and  C_7
REMARK    5  A    between atoms: C_8  and  C_9
REMARK    6  A    between atoms: C_9  and  C_10
REMARK    7  A    between atoms: C_10  and  C_11
REMARK    8  A    between atoms: C_11  and  C_12
REMARK    9  A    between atoms: C_12  and  C_13
REMARK   10  A    between atoms: C_13  and  C_14
REMARK   11  A    between atoms: C_14  and  C_15
REMARK   12  A    between atoms: C_15  and  C_16
REMARK   13  A    between atoms: C_20  and  O_21
REMARK                            x       y       z     vdW  Elec       q    Type
REMARK                         _______ _______ _______ _____ _____    ______ ____
ROOT
ATOM      1  C   LIG A   1      -6.716  -2.610 127.648  0.00  0.00    +0.000 C 
ENDROOT
BRANCH   1   2
ATOM      2  C   LIG A   1      -8.203  -2.846 127.944  0.00  0.00    +0.000 C 
BRANCH   2   3
ATOM      3  C   LIG A   1      -9.062  -3.460 126.808  0.00  0.00    +0.004 C 
BRANCH   3   4
ATOM      4  C   LIG A   1      -8.410  -3.866 125.454  0.00  0.00    +0.027 C 
BRANCH   4   6
ATOM      5  C   LIG A   1      -8.983  -2.224 123.469  0.00  0.00    -0.027 C 
ATOM      6  C   LIG A   1      -9.177  -3.285 124.277  0.00  0.00    -0.031 C 
BRANCH   5   7
ATOM      7  C   LIG A   1      -7.908  -1.185 123.344  0.00  0.00    +0.054 C 
BRANCH   7   9
ATOM      8  C   LIG A   1      -5.629  -2.243 122.837  0.00  0.00    -0.027 C 
ATOM      9  C   LIG A   1      -6.752  -1.566 122.463  0.00  0.00    -0.027 C 
BRANCH   8  10
ATOM     10  C   LIG A   1      -5.198  -2.790 124.169  0.00  0.00    +0.053 C 
BRANCH  10  12
ATOM     11  C   LIG A   1      -4.141  -4.866 123.391  0.00  0.00    +0.004 C 
ATOM     12  C   LIG A   1      -4.996  -4.242 124.244  0.00  0.00    -0.031 C 
ENDBRANCH  10  12
ENDBRANCH   8  10
ENDBRANCH   7   9
ENDBRANCH   5   7
ENDBRANCH   4   6
ENDBRANCH   3   4
ENDBRANCH   2   3
ENDBRANCH   1   2
BRANCH   1  13
ATOM     13  C   LIG A   1      -6.235  -1.158 127.693  0.00  0.00    +0.000 C 
BRANCH  13  14
ATOM     14  C   LIG A   1      -6.702  -0.255 126.544  0.00  0.00    +0.005 C 
BRANCH  14  15
ATOM     15  C   LIG A   1      -5.540   0.493 125.868  0.00  0.00    +0.035 C 
BRANCH  15  16
ATOM     16  C   LIG A   1      -5.825   1.914 125.471  0.00  0.00    -0.044 A 
ATOM     17  C   LIG A   1      -4.934   2.932 125.837  0.00  0.00    +0.004 A 
ATOM     18  C   LIG A   1      -5.130   4.226 125.377  0.00  0.00    +0.004 A 
ATOM     19  C   LIG A   1      -6.198   4.496 124.524  0.00  0.00    +0.045 A 
ATOM     20  C   LIG A   1      -7.112   3.503 124.198  0.00  0.00    +0.117 A 
ATOM     21  C   LIG A   1      -6.928   2.214 124.660  0.00  0.00    +0.049 A 
BRANCH  20  22
ATOM     22  O   LIG A   1      -8.191   3.742 123.402  0.00  0.00    -0.507 OA
ATOM     23  H   LIG A   1      -8.125   3.182 122.614  0.00  0.00    +0.292 HD
ENDBRANCH  20  22
ENDBRANCH  15  16
ENDBRANCH  14  15
ENDBRANCH  13  14
ENDBRANCH   1  13
TORSDOF 13
ENDMDL
MODEL 3
REMARK VINA RESULT:      -6.1      3.394      7.056
REMARK  Name = NuBBE_1686
REMARK  13 active torsions:
REMARK  status: ('A' for Active; 'I' for Inactive)
REMARK    1  A    between atoms: C_2  and  C_3
REMARK    2  A    between atoms: C_3  and  C_4
REMARK    3  A    between atoms: C_5  and  C_6
REMARK    4  A    between atoms: C_6  and  C_7
REMARK    5  A    between atoms: C_8  and  C_9
REMARK    6  A    between atoms: C_9  and  C_10
REMARK    7  A    between atoms: C_10  and  C_11
REMARK    8  A    between atoms: C_11  and  C_12
REMARK    9  A    between atoms: C_12  and  C_13
REMARK   10  A    between atoms: C_13  and  C_14
REMARK   11  A    between atoms: C_14  and  C_15
REMARK   12  A    between atoms: C_15  and  C_16
REMARK   13  A    between atoms: C_20  and  O_21
REMARK                            x       y       z     vdW  Elec       q    Type
REMARK                         _______ _______ _______ _____ _____    ______ ____
ROOT
ATOM      1  C   LIG A   1      -5.179  -1.056 125.455  0.00  0.00    +0.000 C 
ENDROOT
BRANCH   1   2
ATOM      2  C   LIG A   1      -5.485  -2.533 125.174  0.00  0.00    +0.000 C 
BRANCH   2   3
ATOM      3  C   LIG A   1      -5.982  -2.894 123.750  0.00  0.00    +0.004 C 
BRANCH   3   4
ATOM      4  C   LIG A   1      -6.646  -1.814 122.846  0.00  0.00    +0.027 C 
BRANCH   4   6
ATOM      5  C   LIG A   1      -9.086  -2.763 123.171  0.00  0.00    -0.027 C 
ATOM      6  C   LIG A   1      -8.072  -2.197 122.487  0.00  0.00    -0.031 C 
BRANCH   5   7
ATOM      7  C   LIG A   1      -9.269  -3.216 124.589  0.00  0.00    +0.054 C 
BRANCH   7   9
ATOM      8  C   LIG A   1      -8.765  -2.288 126.925  0.00  0.00    -0.027 C 
ATOM      9  C   LIG A   1      -9.148  -2.134 125.625  0.00  0.00    -0.027 C 
BRANCH   8  10
ATOM     10  C   LIG A   1      -8.372  -3.511 127.706  0.00  0.00    +0.053 C 
BRANCH  10  12
ATOM     11  C   LIG A   1      -7.899  -2.614 129.943  0.00  0.00    +0.004 C 
ATOM     12  C   LIG A   1      -7.474  -3.296 128.847  0.00  0.00    -0.031 C 
ENDBRANCH  10  12
ENDBRANCH   8  10
ENDBRANCH   7   9
ENDBRANCH   5   7
ENDBRANCH   4   6
ENDBRANCH   3   4
ENDBRANCH   2   3
ENDBRANCH   1   2
BRANCH   1  13
ATOM     13  C   LIG A   1      -5.635  -0.512 126.811  0.00  0.00    +0.000 C 
BRANCH  13  14
ATOM     14  C   LIG A   1      -6.362   0.839 126.788  0.00  0.00    +0.005 C 
BRANCH  14  15
ATOM     15  C   LIG A   1      -6.031   1.669 125.536  0.00  0.00    +0.035 C 
BRANCH  15  16
ATOM     16  C   LIG A   1      -7.124   1.763 124.508  0.00  0.00    -0.044 A 
ATOM     17  C   LIG A   1      -8.283   0.988 124.651  0.00  0.00    +0.004 A 
ATOM     18  C   LIG A   1      -9.342   1.154 123.771  0.00  0.00    +0.004 A 
ATOM     19  C   LIG A   1      -9.255   2.116 122.768  0.00  0.00    +0.045 A 
ATOM     20  C   LIG A   1      -8.091   2.851 122.589  0.00  0.00    +0.117 A 
ATOM     21  C   LIG A   1      -7.028   2.685 123.457  0.00  0.00    +0.049 A 
BRANCH  20  22
ATOM     22  O   LIG A   1      -7.956   3.770 121.593  0.00  0.00    -0.507 OA
ATOM     23  H   LIG A   1      -8.829   4.138 121.392  0.00  0.00    +0.292 HD
ENDBRANCH  20  22
ENDBRANCH  15  16
ENDBRANCH  14  15
ENDBRANCH  13  14
ENDBRANCH   1  13
TORSDOF 13
ENDMDL
MODEL 4
REMARK VINA RESULT:      -6.1      2.790      6.064
REMARK  Name = NuBBE_1686
REMARK  13 active torsions:
REMARK  status: ('A' for Active; 'I' for Inactive)
REMARK    1  A    between atoms: C_2  and  C_3
REMARK    2  A    between atoms: C_3  and  C_4
REMARK    3  A    between atoms: C_5  and  C_6
REMARK    4  A    between atoms: C_6  and  C_7
REMARK    5  A    between atoms: C_8  and  C_9
REMARK    6  A    between atoms: C_9  and  C_10
REMARK    7  A    between atoms: C_10  and  C_11
REMARK    8  A    between atoms: C_11  and  C_12
REMARK    9  A    between atoms: C_12  and  C_13
REMARK   10  A    between atoms: C_13  and  C_14
REMARK   11  A    between atoms: C_14  and  C_15
REMARK   12  A    between atoms: C_15  and  C_16
REMARK   13  A    between atoms: C_20  and  O_21
REMARK                            x       y       z     vdW  Elec       q    Type
REMARK                         _______ _______ _______ _____ _____    ______ ____
ROOT
ATOM      1  C   LIG A   1      -8.661  -3.638 124.631  0.00  0.00    +0.000 C 
ENDROOT
BRANCH   1   2
ATOM      2  C   LIG A   1      -9.237  -2.951 125.877  0.00  0.00    +0.000 C 
BRANCH   2   3
ATOM      3  C   LIG A   1      -9.085  -3.696 127.229  0.00  0.00    +0.004 C 
BRANCH   3   4
ATOM      4  C   LIG A   1      -7.959  -3.299 128.229  0.00  0.00    +0.027 C 
BRANCH   4   6
ATOM      5  C   LIG A   1      -6.850  -0.909 128.081  0.00  0.00    -0.027 C 
ATOM      6  C   LIG A   1      -7.836  -1.789 128.349  0.00  0.00    -0.031 C 
BRANCH   5   7
ATOM      7  C   LIG A   1      -5.470  -1.026 127.506  0.00  0.00    +0.054 C 
BRANCH   7   9
ATOM      8  C   LIG A   1      -5.287  -1.384 124.974  0.00  0.00    -0.027 C 
ATOM      9  C   LIG A   1      -5.334  -0.583 126.076  0.00  0.00    -0.027 C 
BRANCH   8  10
ATOM     10  C   LIG A   1      -5.341  -2.880 124.832  0.00  0.00    +0.053 C 
BRANCH  10  12
ATOM     11  C   LIG A   1      -4.276  -4.645 123.498  0.00  0.00    +0.004 C 
ATOM     12  C   LIG A   1      -4.883  -3.430 123.551  0.00  0.00    -0.031 C 
ENDBRANCH  10  12
ENDBRANCH   8  10
ENDBRANCH   7   9
ENDBRANCH   5   7
ENDBRANCH   4   6
ENDBRANCH   3   4
ENDBRANCH   2   3
ENDBRANCH   1   2
BRANCH   1  13
ATOM     13  C   LIG A   1      -9.258  -3.221 123.286  0.00  0.00    +0.000 C 
BRANCH  13  14
ATOM     14  C   LIG A   1      -9.485  -1.717 123.085  0.00  0.00    +0.005 C 
BRANCH  14  15
ATOM     15  C   LIG A   1      -8.174  -0.913 123.089  0.00  0.00    +0.035 C 
BRANCH  15  16
ATOM     16  C   LIG A   1      -8.231   0.422 123.777  0.00  0.00    -0.044 A 
ATOM     17  C   LIG A   1      -8.040   1.596 123.038  0.00  0.00    +0.004 A 
ATOM     18  C   LIG A   1      -8.204   2.833 123.643  0.00  0.00    +0.004 A 
ATOM     19  C   LIG A   1      -8.591   2.896 124.980  0.00  0.00    +0.045 A 
ATOM     20  C   LIG A   1      -8.733   1.738 125.732  0.00  0.00    +0.117 A 
ATOM     21  C   LIG A   1      -8.561   0.502 125.137  0.00  0.00    +0.049 A 
BRANCH  20  22
ATOM     22  O   LIG A   1      -9.068   1.764 127.052  0.00  0.00    -0.507 OA
ATOM     23  H   LIG A   1      -9.471   0.915 127.285  0.00  0.00    +0.292 HD
ENDBRANCH  20  22
ENDBRANCH  15  16
ENDBRANCH  14  15
ENDBRANCH  13  14
ENDBRANCH   1  13
TORSDOF 13
ENDMDL
MODEL 5
REMARK VINA RESULT:      -6.1      2.689      6.627
REMARK  Name = NuBBE_1686
REMARK  13 active torsions:
REMARK  status: ('A' for Active; 'I' for Inactive)
REMARK    1  A    between atoms: C_2  and  C_3
REMARK    2  A    between atoms: C_3  and  C_4
REMARK    3  A    between atoms: C_5  and  C_6
REMARK    4  A    between atoms: C_6  and  C_7
REMARK    5  A    between atoms: C_8  and  C_9
REMARK    6  A    between atoms: C_9  and  C_10
REMARK    7  A    between atoms: C_10  and  C_11
REMARK    8  A    between atoms: C_11  and  C_12
REMARK    9  A    between atoms: C_12  and  C_13
REMARK   10  A    between atoms: C_13  and  C_14
REMARK   11  A    between atoms: C_14  and  C_15
REMARK   12  A    between atoms: C_15  and  C_16
REMARK   13  A    between atoms: C_20  and  O_21
REMARK                            x       y       z     vdW  Elec       q    Type
REMARK                         _______ _______ _______ _____ _____    ______ ____
ROOT
ATOM      1  C   LIG A   1      -5.296  -1.478 125.142  0.00  0.00    +0.000 C 
ENDROOT
BRANCH   1   2
ATOM      2  C   LIG A   1      -5.419  -2.912 124.610  0.00  0.00    +0.000 C 
BRANCH   2   3
ATOM      3  C   LIG A   1      -6.720  -3.274 123.847  0.00  0.00    +0.004 C 
BRANCH   3   4
ATOM      4  C   LIG A   1      -7.905  -2.266 123.781  0.00  0.00    +0.027 C 
BRANCH   4   6
ATOM      5  C   LIG A   1      -9.242  -3.305 125.804  0.00  0.00    -0.027 C 
ATOM      6  C   LIG A   1      -9.099  -2.766 124.577  0.00  0.00    -0.031 C 
BRANCH   5   7
ATOM      7  C   LIG A   1      -8.301  -3.601 126.934  0.00  0.00    +0.054 C 
BRANCH   7   9
ATOM      8  C   LIG A   1      -8.205  -3.252 129.472  0.00  0.00    -0.027 C 
ATOM      9  C   LIG A   1      -8.889  -3.455 128.310  0.00  0.00    -0.027 C 
BRANCH   8  10
ATOM     10  C   LIG A   1      -6.734  -3.124 129.748  0.00  0.00    +0.053 C 
BRANCH  10  12
ATOM     11  C   LIG A   1      -5.299  -4.392 131.287  0.00  0.00    +0.004 C 
ATOM     12  C   LIG A   1      -6.035  -4.353 130.145  0.00  0.00    -0.031 C 
ENDBRANCH  10  12
ENDBRANCH   8  10
ENDBRANCH   7   9
ENDBRANCH   5   7
ENDBRANCH   4   6
ENDBRANCH   3   4
ENDBRANCH   2   3
ENDBRANCH   1   2
BRANCH   1  13
ATOM     13  C   LIG A   1      -5.686  -1.260 126.606  0.00  0.00    +0.000 C 
BRANCH  13  14
ATOM     14  C   LIG A   1      -6.293   0.106 126.947  0.00  0.00    +0.005 C 
BRANCH  14  15
ATOM     15  C   LIG A   1      -7.827   0.120 126.828  0.00  0.00    +0.035 C 
BRANCH  15  16
ATOM     16  C   LIG A   1      -8.379   0.809 125.611  0.00  0.00    -0.044 A 
ATOM     17  C   LIG A   1      -7.506   1.375 124.674  0.00  0.00    +0.004 A 
ATOM     18  C   LIG A   1      -8.004   1.910 123.495  0.00  0.00    +0.004 A 
ATOM     19  C   LIG A   1      -9.372   1.849 123.239  0.00  0.00    +0.045 A 
ATOM     20  C   LIG A   1     -10.248   1.335 124.185  0.00  0.00    +0.117 A 
ATOM     21  C   LIG A   1      -9.759   0.809 125.366  0.00  0.00    +0.049 A 
BRANCH  20  22
ATOM     22  O   LIG A   1     -11.595   1.300 123.986  0.00  0.00    -0.507 OA
ATOM     23  H   LIG A   1     -11.906   2.201 123.815  0.00  0.00    +0.292 HD
ENDBRANCH  20  22
ENDBRANCH  15  16
ENDBRANCH  14  15
ENDBRANCH  13  14
ENDBRANCH   1  13
TORSDOF 13
ENDMDL
MODEL 6
REMARK VINA RESULT:      -6.0      1.857      2.109
REMARK  Name = NuBBE_1686
REMARK  13 active torsions:
REMARK  status: ('A' for Active; 'I' for Inactive)
REMARK    1  A    between atoms: C_2  and  C_3
REMARK    2  A    between atoms: C_3  and  C_4
REMARK    3  A    between atoms: C_5  and  C_6
REMARK    4  A    between atoms: C_6  and  C_7
REMARK    5  A    between atoms: C_8  and  C_9
REMARK    6  A    between atoms: C_9  and  C_10
REMARK    7  A    between atoms: C_10  and  C_11
REMARK    8  A    between atoms: C_11  and  C_12
REMARK    9  A    between atoms: C_12  and  C_13
REMARK   10  A    between atoms: C_13  and  C_14
REMARK   11  A    between atoms: C_14  and  C_15
REMARK   12  A    between atoms: C_15  and  C_16
REMARK   13  A    between atoms: C_20  and  O_21
REMARK                            x       y       z     vdW  Elec       q    Type
REMARK                         _______ _______ _______ _____ _____    ______ ____
ROOT
ATOM      1  C   LIG A   1      -9.298  -3.036 126.231  0.00  0.00    +0.000 C 
ENDROOT
BRANCH   1   2
ATOM      2  C   LIG A   1      -8.867  -3.772 124.955  0.00  0.00    +0.000 C 
BRANCH   2   3
ATOM      3  C   LIG A   1      -9.381  -3.207 123.605  0.00  0.00    +0.004 C 
BRANCH   3   4
ATOM      4  C   LIG A   1      -8.558  -2.135 122.832  0.00  0.00    +0.027 C 
BRANCH   4   6
ATOM      5  C   LIG A   1      -8.706   0.085 124.250  0.00  0.00    -0.027 C 
ATOM      6  C   LIG A   1      -8.990  -0.729 123.213  0.00  0.00    -0.031 C 
BRANCH   5   7
ATOM      7  C   LIG A   1      -7.809  -0.019 125.448  0.00  0.00    +0.054 C 
BRANCH   7   9
ATOM      8  C   LIG A   1      -5.461  -1.011 125.176  0.00  0.00    -0.027 C 
ATOM      9  C   LIG A   1      -6.337   0.034 125.150  0.00  0.00    -0.027 C 
BRANCH   8  10
ATOM     10  C   LIG A   1      -5.661  -2.465 125.500  0.00  0.00    +0.053 C 
BRANCH  10  12
ATOM     11  C   LIG A   1      -5.048  -3.058 123.197  0.00  0.00    +0.004 C 
ATOM     12  C   LIG A   1      -5.190  -3.428 124.498  0.00  0.00    -0.031 C 
ENDBRANCH  10  12
ENDBRANCH   8  10
ENDBRANCH   7   9
ENDBRANCH   5   7
ENDBRANCH   4   6
ENDBRANCH   3   4
ENDBRANCH   2   3
ENDBRANCH   1   2
BRANCH   1  13
ATOM     13  C   LIG A   1      -8.865  -3.664 127.558  0.00  0.00    +0.000 C 
BRANCH  13  14
ATOM     14  C   LIG A   1      -7.870  -2.851 128.396  0.00  0.00    +0.005 C 
BRANCH  14  15
ATOM     15  C   LIG A   1      -7.188  -3.692 129.488  0.00  0.00    +0.035 C 
BRANCH  15  16
ATOM     16  C   LIG A   1      -6.022  -3.042 130.179  0.00  0.00    -0.044 A 
ATOM     17  C   LIG A   1      -6.153  -2.601 131.502  0.00  0.00    +0.004 A 
ATOM     18  C   LIG A   1      -5.050  -2.105 132.182  0.00  0.00    +0.004 A 
ATOM     19  C   LIG A   1      -3.810  -2.080 131.549  0.00  0.00    +0.045 A 
ATOM     20  C   LIG A   1      -3.683  -2.468 130.222  0.00  0.00    +0.117 A 
ATOM     21  C   LIG A   1      -4.780  -2.954 129.536  0.00  0.00    +0.049 A 
BRANCH  20  22
ATOM     22  O   LIG A   1      -2.494  -2.416 129.560  0.00  0.00    -0.507 OA
ATOM     23  H   LIG A   1      -2.313  -3.289 129.180  0.00  0.00    +0.292 HD
ENDBRANCH  20  22
ENDBRANCH  15  16
ENDBRANCH  14  15
ENDBRANCH  13  14
ENDBRANCH   1  13
TORSDOF 13
ENDMDL
MODEL 7
REMARK VINA RESULT:      -5.9      1.024      2.315
REMARK  Name = NuBBE_1686
REMARK  13 active torsions:
REMARK  status: ('A' for Active; 'I' for Inactive)
REMARK    1  A    between atoms: C_2  and  C_3
REMARK    2  A    between atoms: C_3  and  C_4
REMARK    3  A    between atoms: C_5  and  C_6
REMARK    4  A    between atoms: C_6  and  C_7
REMARK    5  A    between atoms: C_8  and  C_9
REMARK    6  A    between atoms: C_9  and  C_10
REMARK    7  A    between atoms: C_10  and  C_11
REMARK    8  A    between atoms: C_11  and  C_12
REMARK    9  A    between atoms: C_12  and  C_13
REMARK   10  A    between atoms: C_13  and  C_14
REMARK   11  A    between atoms: C_14  and  C_15
REMARK   12  A    between atoms: C_15  and  C_16
REMARK   13  A    between atoms: C_20  and  O_21
REMARK                            x       y       z     vdW  Elec       q    Type
REMARK                         _______ _______ _______ _____ _____    ______ ____
ROOT
ATOM      1  C   LIG A   1      -9.170  -3.922 127.941  0.00  0.00    +0.000 C 
ENDROOT
BRANCH   1   2
ATOM      2  C   LIG A   1      -8.577  -3.729 126.539  0.00  0.00    +0.000 C 
BRANCH   2   3
ATOM      3  C   LIG A   1      -9.485  -3.064 125.472  0.00  0.00    +0.004 C 
BRANCH   3   4
ATOM      4  C   LIG A   1      -9.229  -3.304 123.955  0.00  0.00    +0.027 C 
BRANCH   4   6
ATOM      5  C   LIG A   1      -7.500  -1.620 122.889  0.00  0.00    -0.027 C 
ATOM      6  C   LIG A   1      -8.720  -2.044 123.275  0.00  0.00    -0.031 C 
BRANCH   5   7
ATOM      7  C   LIG A   1      -6.126  -2.221 122.915  0.00  0.00    +0.054 C 
BRANCH   7   9
ATOM      8  C   LIG A   1      -5.559  -2.296 125.413  0.00  0.00    -0.027 C 
ATOM      9  C   LIG A   1      -5.749  -2.895 124.204  0.00  0.00    -0.027 C 
BRANCH   8  10
ATOM     10  C   LIG A   1      -5.649  -0.855 125.832  0.00  0.00    +0.053 C 
BRANCH  10  12
ATOM     11  C   LIG A   1      -7.846   0.022 126.492  0.00  0.00    +0.004 C 
ATOM     12  C   LIG A   1      -6.657  -0.532 126.849  0.00  0.00    -0.031 C 
ENDBRANCH  10  12
ENDBRANCH   8  10
ENDBRANCH   7   9
ENDBRANCH   5   7
ENDBRANCH   4   6
ENDBRANCH   3   4
ENDBRANCH   2   3
ENDBRANCH   1   2
BRANCH   1  13
ATOM     13  C   LIG A   1      -8.435  -3.235 129.093  0.00  0.00    +0.000 C 
BRANCH  13  14
ATOM     14  C   LIG A   1      -6.911  -3.404 129.118  0.00  0.00    +0.005 C 
BRANCH  14  15
ATOM     15  C   LIG A   1      -6.257  -2.715 130.328  0.00  0.00    +0.035 C 
BRANCH  15  16
ATOM     16  C   LIG A   1      -6.466  -3.393 131.654  0.00  0.00    -0.044 A 
ATOM     17  C   LIG A   1      -5.676  -4.494 132.006  0.00  0.00    +0.004 A 
ATOM     18  C   LIG A   1      -5.784  -5.052 133.272  0.00  0.00    +0.004 A 
ATOM     19  C   LIG A   1      -6.661  -4.487 134.196  0.00  0.00    +0.045 A 
ATOM     20  C   LIG A   1      -7.483  -3.428 133.838  0.00  0.00    +0.117 A 
ATOM     21  C   LIG A   1      -7.386  -2.874 132.575  0.00  0.00    +0.049 A 
BRANCH  20  22
ATOM     22  O   LIG A   1      -8.381  -2.879 134.703  0.00  0.00    -0.507 OA
ATOM     23  H   LIG A   1      -9.275  -3.068 134.381  0.00  0.00    +0.292 HD
ENDBRANCH  20  22
ENDBRANCH  15  16
ENDBRANCH  14  15
ENDBRANCH  13  14
ENDBRANCH   1  13
TORSDOF 13
ENDMDL
MODEL 8
REMARK VINA RESULT:      -5.9      3.596      6.068
REMARK  Name = NuBBE_1686
REMARK  13 active torsions:
REMARK  status: ('A' for Active; 'I' for Inactive)
REMARK    1  A    between atoms: C_2  and  C_3
REMARK    2  A    between atoms: C_3  and  C_4
REMARK    3  A    between atoms: C_5  and  C_6
REMARK    4  A    between atoms: C_6  and  C_7
REMARK    5  A    between atoms: C_8  and  C_9
REMARK    6  A    between atoms: C_9  and  C_10
REMARK    7  A    between atoms: C_10  and  C_11
REMARK    8  A    between atoms: C_11  and  C_12
REMARK    9  A    between atoms: C_12  and  C_13
REMARK   10  A    between atoms: C_13  and  C_14
REMARK   11  A    between atoms: C_14  and  C_15
REMARK   12  A    between atoms: C_15  and  C_16
REMARK   13  A    between atoms: C_20  and  O_21
REMARK                            x       y       z     vdW  Elec       q    Type
REMARK                         _______ _______ _______ _____ _____    ______ ____
ROOT
ATOM      1  C   LIG A   1      -6.821  -1.966 127.212  0.00  0.00    +0.000 C 
ENDROOT
BRANCH   1   2
ATOM      2  C   LIG A   1      -8.114  -2.591 127.752  0.00  0.00    +0.000 C 
BRANCH   2   3
ATOM      3  C   LIG A   1      -8.966  -3.424 126.758  0.00  0.00    +0.004 C 
BRANCH   3   4
ATOM      4  C   LIG A   1      -8.379  -3.856 125.382  0.00  0.00    +0.027 C 
BRANCH   4   6
ATOM      5  C   LIG A   1      -9.001  -2.252 123.381  0.00  0.00    -0.027 C 
ATOM      6  C   LIG A   1      -9.189  -3.280 124.232  0.00  0.00    -0.031 C 
BRANCH   5   7
ATOM      7  C   LIG A   1      -7.896  -1.260 123.165  0.00  0.00    +0.054 C 
BRANCH   7   9
ATOM      8  C   LIG A   1      -5.616  -2.342 122.718  0.00  0.00    -0.027 C 
ATOM      9  C   LIG A   1      -6.766  -1.741 122.299  0.00  0.00    -0.027 C 
BRANCH   8  10
ATOM     10  C   LIG A   1      -5.123  -2.692 124.093  0.00  0.00    +0.053 C 
BRANCH  10  12
ATOM     11  C   LIG A   1      -4.279  -4.888 123.388  0.00  0.00    +0.004 C 
ATOM     12  C   LIG A   1      -4.849  -4.112 124.347  0.00  0.00    -0.031 C 
ENDBRANCH  10  12
ENDBRANCH   8  10
ENDBRANCH   7   9
ENDBRANCH   5   7
ENDBRANCH   4   6
ENDBRANCH   3   4
ENDBRANCH   2   3
ENDBRANCH   1   2
BRANCH   1  13
ATOM     13  C   LIG A   1      -6.947  -0.579 126.579  0.00  0.00    +0.000 C 
BRANCH  13  14
ATOM     14  C   LIG A   1      -5.964   0.486 127.082  0.00  0.00    +0.005 C 
BRANCH  14  15
ATOM     15  C   LIG A   1      -5.842   1.681 126.122  0.00  0.00    +0.035 C 
BRANCH  15  16
ATOM     16  C   LIG A   1      -4.728   2.645 126.421  0.00  0.00    -0.044 A 
ATOM     17  C   LIG A   1      -5.028   3.967 126.777  0.00  0.00    +0.004 A 
ATOM     18  C   LIG A   1      -4.012   4.829 127.165  0.00  0.00    +0.004 A 
ATOM     19  C   LIG A   1      -2.702   4.360 127.228  0.00  0.00    +0.045 A 
ATOM     20  C   LIG A   1      -2.392   3.067 126.828  0.00  0.00    +0.117 A 
ATOM     21  C   LIG A   1      -3.398   2.206 126.432  0.00  0.00    +0.049 A 
BRANCH  20  22
ATOM     22  O   LIG A   1      -1.116   2.590 126.836  0.00  0.00    -0.507 OA
ATOM     23  H   LIG A   1      -0.561   3.199 127.345  0.00  0.00    +0.292 HD
ENDBRANCH  20  22
ENDBRANCH  15  16
ENDBRANCH  14  15
ENDBRANCH  13  14
ENDBRANCH   1  13
TORSDOF 13
ENDMDL
MODEL 9
REMARK VINA RESULT:      -5.8      5.541      9.762
REMARK  Name = NuBBE_1686
REMARK  13 active torsions:
REMARK  status: ('A' for Active; 'I' for Inactive)
REMARK    1  A    between atoms: C_2  and  C_3
REMARK    2  A    between atoms: C_3  and  C_4
REMARK    3  A    between atoms: C_5  and  C_6
REMARK    4  A    between atoms: C_6  and  C_7
REMARK    5  A    between atoms: C_8  and  C_9
REMARK    6  A    between atoms: C_9  and  C_10
REMARK    7  A    between atoms: C_10  and  C_11
REMARK    8  A    between atoms: C_11  and  C_12
REMARK    9  A    between atoms: C_12  and  C_13
REMARK   10  A    between atoms: C_13  and  C_14
REMARK   11  A    between atoms: C_14  and  C_15
REMARK   12  A    between atoms: C_15  and  C_16
REMARK   13  A    between atoms: C_20  and  O_21
REMARK                            x       y       z     vdW  Elec       q    Type
REMARK                         _______ _______ _______ _____ _____    ______ ____
ROOT
ATOM      1  C   LIG A   1      -6.738   3.377 125.442  0.00  0.00    +0.000 C 
ENDROOT
BRANCH   1   2
ATOM      2  C   LIG A   1      -7.284   2.058 124.879  0.00  0.00    +0.000 C 
BRANCH   2   3
ATOM      3  C   LIG A   1      -6.328   0.837 124.886  0.00  0.00    +0.004 C 
BRANCH   3   4
ATOM      4  C   LIG A   1      -6.710  -0.464 125.653  0.00  0.00    +0.027 C 
BRANCH   4   6
ATOM      5  C   LIG A   1      -5.379  -2.394 124.443  0.00  0.00    -0.027 C 
ATOM      6  C   LIG A   1      -5.665  -1.549 125.454  0.00  0.00    -0.031 C 
BRANCH   5   7
ATOM      7  C   LIG A   1      -5.931  -2.603 123.064  0.00  0.00    +0.054 C 
BRANCH   7   9
ATOM      8  C   LIG A   1      -8.452  -2.146 123.114  0.00  0.00    -0.027 C 
ATOM      9  C   LIG A   1      -7.178  -1.825 122.751  0.00  0.00    -0.027 C 
BRANCH   8  10
ATOM     10  C   LIG A   1      -9.000  -3.312 123.889  0.00  0.00    +0.053 C 
BRANCH  10  12
ATOM     11  C   LIG A   1      -8.681  -3.572 126.310  0.00  0.00    +0.004 C 
ATOM     12  C   LIG A   1      -9.393  -3.046 125.278  0.00  0.00    -0.031 C 
ENDBRANCH  10  12
ENDBRANCH   8  10
ENDBRANCH   7   9
ENDBRANCH   5   7
ENDBRANCH   4   6
ENDBRANCH   3   4
ENDBRANCH   2   3
ENDBRANCH   1   2
BRANCH   1  13
ATOM     13  C   LIG A   1      -5.406   3.863 124.868  0.00  0.00    +0.000 C 
BRANCH  13  14
ATOM     14  C   LIG A   1      -5.494   4.835 123.685  0.00  0.00    +0.005 C 
BRANCH  14  15
ATOM     15  C   LIG A   1      -4.856   4.271 122.405  0.00  0.00    +0.035 C 
BRANCH  15  16
ATOM     16  C   LIG A   1      -5.716   4.320 121.172  0.00  0.00    -0.044 A 
ATOM     17  C   LIG A   1      -6.984   3.726 121.184  0.00  0.00    +0.004 A 
ATOM     18  C   LIG A   1      -7.827   3.866 120.091  0.00  0.00    +0.004 A 
ATOM     19  C   LIG A   1      -7.414   4.627 119.000  0.00  0.00    +0.045 A 
ATOM     20  C   LIG A   1      -6.139   5.176 118.961  0.00  0.00    +0.117 A 
ATOM     21  C   LIG A   1      -5.291   5.032 120.043  0.00  0.00    +0.049 A 
BRANCH  20  22
ATOM     22  O   LIG A   1      -5.687   5.889 117.892  0.00  0.00    -0.507 OA
ATOM     23  H   LIG A   1      -4.745   5.701 117.771  0.00  0.00    +0.292 HD
ENDBRANCH  20  22
ENDBRANCH  15  16
ENDBRANCH  14  15
ENDBRANCH  13  14
ENDBRANCH   1  13
TORSDOF 13
ENDMDL
