MODEL 1
REMARK VINA RESULT:      -6.6      0.000      0.000
REMARK  Name = NuBBE_1779
REMARK  9 active torsions:
REMARK  status: ('A' for Active; 'I' for Inactive)
REMARK    1  A    between atoms: C_1  and  C_2
REMARK    2  A    between atoms: C_1  and  C_13
REMARK    3  A    between atoms: C_2  and  C_3
REMARK    4  A    between atoms: C_6  and  O_11
REMARK    5  A    between atoms: O_11  and  C_12
REMARK    6  A    between atoms: C_15  and  O_16
REMARK    7  A    between atoms: O_16  and  C_17
REMARK    8  A    between atoms: C_18  and  O_21
REMARK    9  A    between atoms: O_21  and  C_22
REMARK                            x       y       z     vdW  Elec       q    Type
REMARK                         _______ _______ _______ _____ _____    ______ ____
ROOT
ATOM      1  C   LIG A   1     -10.336   6.225 131.993  0.00  0.00    +0.039 C 
ENDROOT
BRANCH   1   2
ATOM      2  C   LIG A   1      -8.828   6.223 132.020  0.00  0.00    -0.044 A 
ATOM      3  C   LIG A   1      -8.147   5.654 133.103  0.00  0.00    +0.053 A 
ATOM      4  C   LIG A   1      -6.746   5.652 133.168  0.00  0.00    +0.162 A 
ATOM      5  C   LIG A   1      -6.012   6.235 132.117  0.00  0.00    +0.162 A 
ATOM      6  C   LIG A   1      -6.697   6.811 131.039  0.00  0.00    +0.050 A 
ATOM      7  C   LIG A   1      -8.092   6.800 130.988  0.00  0.00    +0.007 A 
BRANCH   4   8
ATOM      8  O   LIG A   1      -6.039   5.091 134.205  0.00  0.00    -0.491 OA
ATOM      9  C   LIG A   1      -6.298   5.609 135.508  0.00  0.00    +0.277 C 
ENDBRANCH   4   8
BRANCH   5  10
ATOM     10  O   LIG A   1      -4.641   6.247 132.230  0.00  0.00    -0.491 OA
ATOM     11  C   LIG A   1      -3.959   7.304 131.561  0.00  0.00    +0.277 C 
ENDBRANCH   5  10
ENDBRANCH   1   2
BRANCH   1  12
ATOM     12  C   LIG A   1     -10.938   7.198 130.970  0.00  0.00    +0.050 C 
BRANCH  12  13
ATOM     13  C   LIG A   1     -11.823   6.525 129.902  0.00  0.00    +0.184 C 
ATOM     14  C   LIG A   1     -12.994   7.393 129.445  0.00  0.00    +0.118 C 
ATOM     15  C   LIG A   1     -12.515   8.467 128.513  0.00  0.00    +0.108 C 
ATOM     16  C   LIG A   1     -11.421   8.258 127.767  0.00  0.00    +0.132 C 
ATOM     17  C   LIG A   1     -10.714   6.968 127.779  0.00  0.00    +0.335 C 
ATOM     18  O   LIG A   1      -9.898   6.704 126.913  0.00  0.00    -0.245 OA
ATOM     19  O   LIG A   1     -11.027   6.102 128.774  0.00  0.00    -0.458 OA
BRANCH  15  20
ATOM     20  O   LIG A   1     -13.286   9.607 128.530  0.00  0.00    -0.499 OA
ATOM     21  C   LIG A   1     -13.305  10.355 129.743  0.00  0.00    +0.276 C 
ENDBRANCH  15  20
ENDBRANCH  12  13
ENDBRANCH   1  12
TORSDOF 6
ENDMDL
MODEL 2
REMARK VINA RESULT:      -6.5      1.833      7.350
REMARK  Name = NuBBE_1779
REMARK  9 active torsions:
REMARK  status: ('A' for Active; 'I' for Inactive)
REMARK    1  A    between atoms: C_1  and  C_2
REMARK    2  A    between atoms: C_1  and  C_13
REMARK    3  A    between atoms: C_2  and  C_3
REMARK    4  A    between atoms: C_6  and  O_11
REMARK    5  A    between atoms: O_11  and  C_12
REMARK    6  A    between atoms: C_15  and  O_16
REMARK    7  A    between atoms: O_16  and  C_17
REMARK    8  A    between atoms: C_18  and  O_21
REMARK    9  A    between atoms: O_21  and  C_22
REMARK                            x       y       z     vdW  Elec       q    Type
REMARK                         _______ _______ _______ _____ _____    ______ ____
ROOT
ATOM      1  C   LIG A   1     -10.254   5.639 132.080  0.00  0.00    +0.039 C 
ENDROOT
BRANCH   1   2
ATOM      2  C   LIG A   1     -11.027   6.631 131.248  0.00  0.00    -0.044 A 
ATOM      3  C   LIG A   1     -10.463   7.156 130.079  0.00  0.00    +0.053 A 
ATOM      4  C   LIG A   1     -11.146   8.095 129.293  0.00  0.00    +0.162 A 
ATOM      5  C   LIG A   1     -12.429   8.517 129.692  0.00  0.00    +0.162 A 
ATOM      6  C   LIG A   1     -12.987   7.996 130.867  0.00  0.00    +0.050 A 
ATOM      7  C   LIG A   1     -12.295   7.058 131.635  0.00  0.00    +0.007 A 
BRANCH   4   8
ATOM      8  O   LIG A   1     -10.634   8.623 128.131  0.00  0.00    -0.491 OA
ATOM      9  C   LIG A   1     -10.833   7.862 126.942  0.00  0.00    +0.277 C 
ENDBRANCH   4   8
BRANCH   5  10
ATOM     10  O   LIG A   1     -13.056   9.464 128.917  0.00  0.00    -0.491 OA
ATOM     11  C   LIG A   1     -13.444  10.667 129.576  0.00  0.00    +0.277 C 
ENDBRANCH   5  10
ENDBRANCH   1   2
BRANCH   1  12
ATOM     12  C   LIG A   1      -8.782   6.019 132.293  0.00  0.00    +0.050 C 
BRANCH  12  13
ATOM     13  C   LIG A   1      -8.218   5.616 133.670  0.00  0.00    +0.184 C 
ATOM     14  C   LIG A   1      -8.631   4.214 134.112  0.00  0.00    +0.118 C 
ATOM     15  C   LIG A   1      -7.836   3.177 133.373  0.00  0.00    +0.108 C 
ATOM     16  C   LIG A   1      -6.605   3.476 132.934  0.00  0.00    +0.132 C 
ATOM     17  C   LIG A   1      -5.977   4.774 133.222  0.00  0.00    +0.335 C 
ATOM     18  O   LIG A   1      -4.780   4.931 133.055  0.00  0.00    -0.245 OA
ATOM     19  O   LIG A   1      -6.781   5.759 133.693  0.00  0.00    -0.458 OA
BRANCH  15  20
ATOM     20  O   LIG A   1      -8.492   1.977 133.216  0.00  0.00    -0.499 OA
ATOM     21  C   LIG A   1      -9.622   1.968 132.348  0.00  0.00    +0.276 C 
ENDBRANCH  15  20
ENDBRANCH  12  13
ENDBRANCH   1  12
TORSDOF 6
ENDMDL
MODEL 3
REMARK VINA RESULT:      -6.5      9.509     10.395
REMARK  Name = NuBBE_1779
REMARK  9 active torsions:
REMARK  status: ('A' for Active; 'I' for Inactive)
REMARK    1  A    between atoms: C_1  and  C_2
REMARK    2  A    between atoms: C_1  and  C_13
REMARK    3  A    between atoms: C_2  and  C_3
REMARK    4  A    between atoms: C_6  and  O_11
REMARK    5  A    between atoms: O_11  and  C_12
REMARK    6  A    between atoms: C_15  and  O_16
REMARK    7  A    between atoms: O_16  and  C_17
REMARK    8  A    between atoms: C_18  and  O_21
REMARK    9  A    between atoms: O_21  and  C_22
REMARK                            x       y       z     vdW  Elec       q    Type
REMARK                         _______ _______ _______ _____ _____    ______ ____
ROOT
ATOM      1  C   LIG A   1      -9.024  -3.746 127.201  0.00  0.00    +0.039 C 
ENDROOT
BRANCH   1   2
ATOM      2  C   LIG A   1      -8.089  -3.017 128.134  0.00  0.00    -0.044 A 
ATOM      3  C   LIG A   1      -7.638  -3.641 129.304  0.00  0.00    +0.053 A 
ATOM      4  C   LIG A   1      -6.785  -2.984 130.201  0.00  0.00    +0.162 A 
ATOM      5  C   LIG A   1      -6.373  -1.668 129.917  0.00  0.00    +0.162 A 
ATOM      6  C   LIG A   1      -6.833  -1.044 128.749  0.00  0.00    +0.050 A 
ATOM      7  C   LIG A   1      -7.679  -1.714 127.864  0.00  0.00    +0.007 A 
BRANCH   4   8
ATOM      8  O   LIG A   1      -6.307  -3.566 131.353  0.00  0.00    -0.491 OA
ATOM      9  C   LIG A   1      -5.476  -4.713 131.191  0.00  0.00    +0.277 C 
ENDBRANCH   4   8
BRANCH   5  10
ATOM     10  O   LIG A   1      -5.564  -1.042 130.836  0.00  0.00    -0.491 OA
ATOM     11  C   LIG A   1      -4.211  -0.824 130.445  0.00  0.00    +0.277 C 
ENDBRANCH   5  10
ENDBRANCH   1   2
BRANCH   1  12
ATOM     12  C   LIG A   1      -9.402  -2.943 125.948  0.00  0.00    +0.050 C 
BRANCH  12  13
ATOM     13  C   LIG A   1      -8.762  -3.465 124.646  0.00  0.00    +0.184 C 
ATOM     14  C   LIG A   1      -9.454  -2.958 123.382  0.00  0.00    +0.118 C 
ATOM     15  C   LIG A   1      -9.074  -1.531 123.114  0.00  0.00    +0.108 C 
ATOM     16  C   LIG A   1      -7.888  -1.072 123.537  0.00  0.00    +0.132 C 
ATOM     17  C   LIG A   1      -6.909  -1.951 124.194  0.00  0.00    +0.335 C 
ATOM     18  O   LIG A   1      -5.751  -1.594 124.327  0.00  0.00    -0.245 OA
ATOM     19  O   LIG A   1      -7.351  -3.161 124.616  0.00  0.00    -0.458 OA
BRANCH  15  20
ATOM     20  O   LIG A   1     -10.034  -0.815 122.435  0.00  0.00    -0.499 OA
ATOM     21  C   LIG A   1     -10.075   0.590 122.667  0.00  0.00    +0.276 C 
ENDBRANCH  15  20
ENDBRANCH  12  13
ENDBRANCH   1  12
TORSDOF 6
ENDMDL
MODEL 4
REMARK VINA RESULT:      -6.5      9.776     10.878
REMARK  Name = NuBBE_1779
REMARK  9 active torsions:
REMARK  status: ('A' for Active; 'I' for Inactive)
REMARK    1  A    between atoms: C_1  and  C_2
REMARK    2  A    between atoms: C_1  and  C_13
REMARK    3  A    between atoms: C_2  and  C_3
REMARK    4  A    between atoms: C_6  and  O_11
REMARK    5  A    between atoms: O_11  and  C_12
REMARK    6  A    between atoms: C_15  and  O_16
REMARK    7  A    between atoms: O_16  and  C_17
REMARK    8  A    between atoms: C_18  and  O_21
REMARK    9  A    between atoms: O_21  and  C_22
REMARK                            x       y       z     vdW  Elec       q    Type
REMARK                         _______ _______ _______ _____ _____    ______ ____
ROOT
ATOM      1  C   LIG A   1      -8.921  -3.698 128.834  0.00  0.00    +0.039 C 
ENDROOT
BRANCH   1   2
ATOM      2  C   LIG A   1      -7.779  -3.033 129.559  0.00  0.00    -0.044 A 
ATOM      3  C   LIG A   1      -6.539  -3.675 129.654  0.00  0.00    +0.053 A 
ATOM      4  C   LIG A   1      -5.462  -3.093 130.338  0.00  0.00    +0.162 A 
ATOM      5  C   LIG A   1      -5.635  -1.832 130.940  0.00  0.00    +0.162 A 
ATOM      6  C   LIG A   1      -6.880  -1.195 130.851  0.00  0.00    +0.050 A 
ATOM      7  C   LIG A   1      -7.941  -1.788 130.162  0.00  0.00    +0.007 A 
BRANCH   4   8
ATOM      8  O   LIG A   1      -4.224  -3.684 130.441  0.00  0.00    -0.491 OA
ATOM      9  C   LIG A   1      -3.381  -3.603 129.294  0.00  0.00    +0.277 C 
ENDBRANCH   4   8
BRANCH   5  10
ATOM     10  O   LIG A   1      -4.570  -1.306 131.632  0.00  0.00    -0.491 OA
ATOM     11  C   LIG A   1      -4.187   0.024 131.291  0.00  0.00    +0.277 C 
ENDBRANCH   5  10
ENDBRANCH   1   2
BRANCH   1  12
ATOM     12  C   LIG A   1      -8.700  -3.839 127.322  0.00  0.00    +0.050 C 
BRANCH  12  13
ATOM     13  C   LIG A   1      -8.787  -2.511 126.544  0.00  0.00    +0.184 C 
ATOM     14  C   LIG A   1      -7.427  -1.975 126.098  0.00  0.00    +0.118 C 
ATOM     15  C   LIG A   1      -6.922  -2.750 124.916  0.00  0.00    +0.108 C 
ATOM     16  C   LIG A   1      -7.797  -3.322 124.077  0.00  0.00    +0.132 C 
ATOM     17  C   LIG A   1      -9.249  -3.149 124.239  0.00  0.00    +0.335 C 
ATOM     18  O   LIG A   1     -10.010  -3.442 123.333  0.00  0.00    -0.245 OA
ATOM     19  O   LIG A   1      -9.682  -2.638 125.418  0.00  0.00    -0.458 OA
BRANCH  15  20
ATOM     20  O   LIG A   1      -5.550  -2.794 124.821  0.00  0.00    -0.499 OA
ATOM     21  C   LIG A   1      -5.000  -3.587 123.772  0.00  0.00    +0.276 C 
ENDBRANCH  15  20
ENDBRANCH  12  13
ENDBRANCH   1  12
TORSDOF 6
ENDMDL
MODEL 5
REMARK VINA RESULT:      -6.5      1.978      2.638
REMARK  Name = NuBBE_1779
REMARK  9 active torsions:
REMARK  status: ('A' for Active; 'I' for Inactive)
REMARK    1  A    between atoms: C_1  and  C_2
REMARK    2  A    between atoms: C_1  and  C_13
REMARK    3  A    between atoms: C_2  and  C_3
REMARK    4  A    between atoms: C_6  and  O_11
REMARK    5  A    between atoms: O_11  and  C_12
REMARK    6  A    between atoms: C_15  and  O_16
REMARK    7  A    between atoms: O_16  and  C_17
REMARK    8  A    between atoms: C_18  and  O_21
REMARK    9  A    between atoms: O_21  and  C_22
REMARK                            x       y       z     vdW  Elec       q    Type
REMARK                         _______ _______ _______ _____ _____    ______ ____
ROOT
ATOM      1  C   LIG A   1      -9.109   6.594 131.326  0.00  0.00    +0.039 C 
ENDROOT
BRANCH   1   2
ATOM      2  C   LIG A   1      -7.726   6.162 130.910  0.00  0.00    -0.044 A 
ATOM      3  C   LIG A   1      -6.635   7.019 131.103  0.00  0.00    +0.053 A 
ATOM      4  C   LIG A   1      -5.339   6.655 130.709  0.00  0.00    +0.162 A 
ATOM      5  C   LIG A   1      -5.133   5.399 130.108  0.00  0.00    +0.162 A 
ATOM      6  C   LIG A   1      -6.228   4.547 129.909  0.00  0.00    +0.050 A 
ATOM      7  C   LIG A   1      -7.511   4.923 130.311  0.00  0.00    +0.007 A 
BRANCH   4   8
ATOM      8  O   LIG A   1      -4.240   7.461 130.894  0.00  0.00    -0.491 OA
ATOM      9  C   LIG A   1      -4.038   8.496 129.934  0.00  0.00    +0.277 C 
ENDBRANCH   4   8
BRANCH   5  10
ATOM     10  O   LIG A   1      -3.857   5.089 129.703  0.00  0.00    -0.491 OA
ATOM     11  C   LIG A   1      -3.609   5.129 128.300  0.00  0.00    +0.277 C 
ENDBRANCH   5  10
ENDBRANCH   1   2
BRANCH   1  12
ATOM     12  C   LIG A   1      -9.961   7.145 130.174  0.00  0.00    +0.050 C 
BRANCH  12  13
ATOM     13  C   LIG A   1     -11.407   6.611 130.146  0.00  0.00    +0.184 C 
ATOM     14  C   LIG A   1     -12.431   7.594 130.711  0.00  0.00    +0.118 C 
ATOM     15  C   LIG A   1     -12.710   8.686 129.719  0.00  0.00    +0.108 C 
ATOM     16  C   LIG A   1     -12.572   8.441 128.409  0.00  0.00    +0.132 C 
ATOM     17  C   LIG A   1     -12.226   7.103 127.905  0.00  0.00    +0.335 C 
ATOM     18  O   LIG A   1     -12.367   6.832 126.725  0.00  0.00    -0.245 OA
ATOM     19  O   LIG A   1     -11.772   6.201 128.810  0.00  0.00    -0.458 OA
BRANCH  15  20
ATOM     20  O   LIG A   1     -13.089   9.878 130.293  0.00  0.00    -0.499 OA
ATOM     21  C   LIG A   1     -13.639  10.866 129.426  0.00  0.00    +0.276 C 
ENDBRANCH  15  20
ENDBRANCH  12  13
ENDBRANCH   1  12
TORSDOF 6
ENDMDL
MODEL 6
REMARK VINA RESULT:      -6.4      9.393     10.442
REMARK  Name = NuBBE_1779
REMARK  9 active torsions:
REMARK  status: ('A' for Active; 'I' for Inactive)
REMARK    1  A    between atoms: C_1  and  C_2
REMARK    2  A    between atoms: C_1  and  C_13
REMARK    3  A    between atoms: C_2  and  C_3
REMARK    4  A    between atoms: C_6  and  O_11
REMARK    5  A    between atoms: O_11  and  C_12
REMARK    6  A    between atoms: C_15  and  O_16
REMARK    7  A    between atoms: O_16  and  C_17
REMARK    8  A    between atoms: C_18  and  O_21
REMARK    9  A    between atoms: O_21  and  C_22
REMARK                            x       y       z     vdW  Elec       q    Type
REMARK                         _______ _______ _______ _____ _____    ______ ____
ROOT
ATOM      1  C   LIG A   1      -8.923  -3.759 127.067  0.00  0.00    +0.039 C 
ENDROOT
BRANCH   1   2
ATOM      2  C   LIG A   1      -8.098  -2.999 128.074  0.00  0.00    -0.044 A 
ATOM      3  C   LIG A   1      -7.182  -2.030 127.644  0.00  0.00    +0.053 A 
ATOM      4  C   LIG A   1      -6.386  -1.319 128.552  0.00  0.00    +0.162 A 
ATOM      5  C   LIG A   1      -6.513  -1.587 129.929  0.00  0.00    +0.162 A 
ATOM      6  C   LIG A   1      -7.425  -2.562 130.356  0.00  0.00    +0.050 A 
ATOM      7  C   LIG A   1      -8.213  -3.257 129.438  0.00  0.00    +0.007 A 
BRANCH   4   8
ATOM      8  O   LIG A   1      -5.486  -0.351 128.172  0.00  0.00    -0.491 OA
ATOM      9  C   LIG A   1      -5.532   0.062 126.808  0.00  0.00    +0.277 C 
ENDBRANCH   4   8
BRANCH   5  10
ATOM     10  O   LIG A   1      -5.693  -0.896 130.789  0.00  0.00    -0.491 OA
ATOM     11  C   LIG A   1      -4.699  -1.659 131.468  0.00  0.00    +0.277 C 
ENDBRANCH   5  10
ENDBRANCH   1   2
BRANCH   1  12
ATOM     12  C   LIG A   1      -9.336  -2.926 125.846  0.00  0.00    +0.050 C 
BRANCH  12  13
ATOM     13  C   LIG A   1      -8.861  -3.503 124.497  0.00  0.00    +0.184 C 
ATOM     14  C   LIG A   1      -9.607  -2.930 123.293  0.00  0.00    +0.118 C 
ATOM     15  C   LIG A   1      -9.117  -1.546 122.985  0.00  0.00    +0.108 C 
ATOM     16  C   LIG A   1      -7.861  -1.202 123.302  0.00  0.00    +0.132 C 
ATOM     17  C   LIG A   1      -6.918  -2.172 123.879  0.00  0.00    +0.335 C 
ATOM     18  O   LIG A   1      -5.724  -1.927 123.912  0.00  0.00    -0.245 OA
ATOM     19  O   LIG A   1      -7.435  -3.335 124.345  0.00  0.00    -0.458 OA
BRANCH  15  20
ATOM     20  O   LIG A   1     -10.059  -0.740 122.386  0.00  0.00    -0.499 OA
ATOM     21  C   LIG A   1     -10.018   0.648 122.705  0.00  0.00    +0.276 C 
ENDBRANCH  15  20
ENDBRANCH  12  13
ENDBRANCH   1  12
TORSDOF 6
ENDMDL
MODEL 7
REMARK VINA RESULT:      -6.4      9.518     10.653
REMARK  Name = NuBBE_1779
REMARK  9 active torsions:
REMARK  status: ('A' for Active; 'I' for Inactive)
REMARK    1  A    between atoms: C_1  and  C_2
REMARK    2  A    between atoms: C_1  and  C_13
REMARK    3  A    between atoms: C_2  and  C_3
REMARK    4  A    between atoms: C_6  and  O_11
REMARK    5  A    between atoms: O_11  and  C_12
REMARK    6  A    between atoms: C_15  and  O_16
REMARK    7  A    between atoms: O_16  and  C_17
REMARK    8  A    between atoms: C_18  and  O_21
REMARK    9  A    between atoms: O_21  and  C_22
REMARK                            x       y       z     vdW  Elec       q    Type
REMARK                         _______ _______ _______ _____ _____    ______ ____
ROOT
ATOM      1  C   LIG A   1      -8.999  -3.703 128.787  0.00  0.00    +0.039 C 
ENDROOT
BRANCH   1   2
ATOM      2  C   LIG A   1      -7.854  -3.112 129.570  0.00  0.00    -0.044 A 
ATOM      3  C   LIG A   1      -7.932  -1.795 130.042  0.00  0.00    +0.053 A 
ATOM      4  C   LIG A   1      -6.878  -1.210 130.756  0.00  0.00    +0.162 A 
ATOM      5  C   LIG A   1      -5.716  -1.965 131.004  0.00  0.00    +0.162 A 
ATOM      6  C   LIG A   1      -5.638  -3.279 130.524  0.00  0.00    +0.050 A 
ATOM      7  C   LIG A   1      -6.699  -3.849 129.818  0.00  0.00    +0.007 A 
BRANCH   4   8
ATOM      8  O   LIG A   1      -6.921   0.074 131.249  0.00  0.00    -0.491 OA
ATOM      9  C   LIG A   1      -7.805   0.309 132.342  0.00  0.00    +0.277 C 
ENDBRANCH   4   8
BRANCH   5  10
ATOM     10  O   LIG A   1      -4.688  -1.348 131.677  0.00  0.00    -0.491 OA
ATOM     11  C   LIG A   1      -3.484  -2.097 131.820  0.00  0.00    +0.277 C 
ENDBRANCH   5  10
ENDBRANCH   1   2
BRANCH   1  12
ATOM     12  C   LIG A   1      -8.719  -3.839 127.284  0.00  0.00    +0.050 C 
BRANCH  12  13
ATOM     13  C   LIG A   1      -8.761  -2.507 126.509  0.00  0.00    +0.184 C 
ATOM     14  C   LIG A   1      -7.384  -2.015 126.068  0.00  0.00    +0.118 C 
ATOM     15  C   LIG A   1      -6.901  -2.802 124.885  0.00  0.00    +0.108 C 
ATOM     16  C   LIG A   1      -7.791  -3.344 124.042  0.00  0.00    +0.132 C 
ATOM     17  C   LIG A   1      -9.237  -3.124 124.201  0.00  0.00    +0.335 C 
ATOM     18  O   LIG A   1     -10.005  -3.391 123.292  0.00  0.00    -0.245 OA
ATOM     19  O   LIG A   1      -9.656  -2.603 125.380  0.00  0.00    -0.458 OA
BRANCH  15  20
ATOM     20  O   LIG A   1      -5.530  -2.890 124.794  0.00  0.00    -0.499 OA
ATOM     21  C   LIG A   1      -4.986  -3.188 123.511  0.00  0.00    +0.276 C 
ENDBRANCH  15  20
ENDBRANCH  12  13
ENDBRANCH   1  12
TORSDOF 6
ENDMDL
MODEL 8
REMARK VINA RESULT:      -6.3      2.415      6.289
REMARK  Name = NuBBE_1779
REMARK  9 active torsions:
REMARK  status: ('A' for Active; 'I' for Inactive)
REMARK    1  A    between atoms: C_1  and  C_2
REMARK    2  A    between atoms: C_1  and  C_13
REMARK    3  A    between atoms: C_2  and  C_3
REMARK    4  A    between atoms: C_6  and  O_11
REMARK    5  A    between atoms: O_11  and  C_12
REMARK    6  A    between atoms: C_15  and  O_16
REMARK    7  A    between atoms: O_16  and  C_17
REMARK    8  A    between atoms: C_18  and  O_21
REMARK    9  A    between atoms: O_21  and  C_22
REMARK                            x       y       z     vdW  Elec       q    Type
REMARK                         _______ _______ _______ _____ _____    ______ ____
ROOT
ATOM      1  C   LIG A   1      -8.510   6.070 132.134  0.00  0.00    +0.039 C 
ENDROOT
BRANCH   1   2
ATOM      2  C   LIG A   1      -9.665   6.619 131.334  0.00  0.00    -0.044 A 
ATOM      3  C   LIG A   1      -9.433   7.226 130.093  0.00  0.00    +0.053 A 
ATOM      4  C   LIG A   1     -10.482   7.763 129.333  0.00  0.00    +0.162 A 
ATOM      5  C   LIG A   1     -11.796   7.688 129.832  0.00  0.00    +0.162 A 
ATOM      6  C   LIG A   1     -12.024   7.087 131.077  0.00  0.00    +0.050 A 
ATOM      7  C   LIG A   1     -10.969   6.553 131.819  0.00  0.00    +0.007 A 
BRANCH   4   8
ATOM      8  O   LIG A   1     -10.298   8.354 128.105  0.00  0.00    -0.491 OA
ATOM      9  C   LIG A   1     -10.587   7.552 126.962  0.00  0.00    +0.277 C 
ENDBRANCH   4   8
BRANCH   5  10
ATOM     10  O   LIG A   1     -12.796   8.256 129.077  0.00  0.00    -0.491 OA
ATOM     11  C   LIG A   1     -13.096   9.622 129.347  0.00  0.00    +0.277 C 
ENDBRANCH   5  10
ENDBRANCH   1   2
BRANCH   1  12
ATOM     12  C   LIG A   1      -7.181   6.042 131.367  0.00  0.00    +0.050 C 
BRANCH  12  13
ATOM     13  C   LIG A   1      -6.630   4.625 131.109  0.00  0.00    +0.184 C 
ATOM     14  C   LIG A   1      -7.720   3.571 130.926  0.00  0.00    +0.118 C 
ATOM     15  C   LIG A   1      -8.335   3.687 129.562  0.00  0.00    +0.108 C 
ATOM     16  C   LIG A   1      -7.609   4.176 128.547  0.00  0.00    +0.132 C 
ATOM     17  C   LIG A   1      -6.192   4.535 128.715  0.00  0.00    +0.335 C 
ATOM     18  O   LIG A   1      -5.483   4.719 127.741  0.00  0.00    -0.245 OA
ATOM     19  O   LIG A   1      -5.725   4.628 129.984  0.00  0.00    -0.458 OA
BRANCH  15  20
ATOM     20  O   LIG A   1      -9.643   3.262 129.501  0.00  0.00    -0.499 OA
ATOM     21  C   LIG A   1     -10.321   3.078 130.741  0.00  0.00    +0.276 C 
ENDBRANCH  15  20
ENDBRANCH  12  13
ENDBRANCH   1  12
TORSDOF 6
ENDMDL
MODEL 9
REMARK VINA RESULT:      -6.3      9.982     11.212
REMARK  Name = NuBBE_1779
REMARK  9 active torsions:
REMARK  status: ('A' for Active; 'I' for Inactive)
REMARK    1  A    between atoms: C_1  and  C_2
REMARK    2  A    between atoms: C_1  and  C_13
REMARK    3  A    between atoms: C_2  and  C_3
REMARK    4  A    between atoms: C_6  and  O_11
REMARK    5  A    between atoms: O_11  and  C_12
REMARK    6  A    between atoms: C_15  and  O_16
REMARK    7  A    between atoms: O_16  and  C_17
REMARK    8  A    between atoms: C_18  and  O_21
REMARK    9  A    between atoms: O_21  and  C_22
REMARK                            x       y       z     vdW  Elec       q    Type
REMARK                         _______ _______ _______ _____ _____    ______ ____
ROOT
ATOM      1  C   LIG A   1      -7.457  -0.508 127.221  0.00  0.00    +0.039 C 
ENDROOT
BRANCH   1   2
ATOM      2  C   LIG A   1      -7.011  -1.626 128.128  0.00  0.00    -0.044 A 
ATOM      3  C   LIG A   1      -5.660  -1.996 128.174  0.00  0.00    +0.053 A 
ATOM      4  C   LIG A   1      -5.215  -3.044 128.992  0.00  0.00    +0.162 A 
ATOM      5  C   LIG A   1      -6.150  -3.738 129.785  0.00  0.00    +0.162 A 
ATOM      6  C   LIG A   1      -7.501  -3.371 129.730  0.00  0.00    +0.050 A 
ATOM      7  C   LIG A   1      -7.927  -2.322 128.913  0.00  0.00    +0.007 A 
BRANCH   4   8
ATOM      8  O   LIG A   1      -3.897  -3.428 129.078  0.00  0.00    -0.491 OA
ATOM      9  C   LIG A   1      -3.030  -2.572 129.819  0.00  0.00    +0.277 C 
ENDBRANCH   4   8
BRANCH   5  10
ATOM     10  O   LIG A   1      -5.685  -4.782 130.548  0.00  0.00    -0.491 OA
ATOM     11  C   LIG A   1      -5.596  -4.552 131.952  0.00  0.00    +0.277 C 
ENDBRANCH   5  10
ENDBRANCH   1   2
BRANCH   1  12
ATOM     12  C   LIG A   1      -8.637  -0.878 126.312  0.00  0.00    +0.050 C 
BRANCH  12  13
ATOM     13  C   LIG A   1      -8.336  -0.761 124.804  0.00  0.00    +0.184 C 
ATOM     14  C   LIG A   1      -6.910  -1.165 124.435  0.00  0.00    +0.118 C 
ATOM     15  C   LIG A   1      -6.769  -2.659 124.448  0.00  0.00    +0.108 C 
ATOM     16  C   LIG A   1      -7.838  -3.427 124.195  0.00  0.00    +0.132 C 
ATOM     17  C   LIG A   1      -9.138  -2.844 123.829  0.00  0.00    +0.335 C 
ATOM     18  O   LIG A   1     -10.013  -3.542 123.347  0.00  0.00    -0.245 OA
ATOM     19  O   LIG A   1      -9.298  -1.514 124.033  0.00  0.00    -0.458 OA
BRANCH  15  20
ATOM     20  O   LIG A   1      -5.497  -3.098 124.737  0.00  0.00    -0.499 OA
ATOM     21  C   LIG A   1      -4.902  -4.007 123.815  0.00  0.00    +0.276 C 
ENDBRANCH  15  20
ENDBRANCH  12  13
ENDBRANCH   1  12
TORSDOF 6
ENDMDL
