MODEL 1
REMARK VINA RESULT:      -4.8      0.000      0.000
REMARK  Name = NuBBE_1774
REMARK  9 active torsions:
REMARK  status: ('A' for Active; 'I' for Inactive)
REMARK    1  A    between atoms: C_1  and  C_2
REMARK    2  A    between atoms: C_1  and  C_9
REMARK    3  A    between atoms: C_2  and  C_4
REMARK    4  A    between atoms: C_2  and  O_8
REMARK    5  A    between atoms: C_4  and  C_5
REMARK    6  A    between atoms: C_5  and  C_6
REMARK    7  A    between atoms: C_6  and  C_7
REMARK    8  A    between atoms: C_9  and  C_10
REMARK    9  A    between atoms: C_9  and  C_11
REMARK                            x       y       z     vdW  Elec       q    Type
REMARK                         _______ _______ _______ _____ _____    ______ ____
ROOT
ATOM      1  C   LIG A   1      -8.931  -2.748 124.414  0.00  0.00    +0.115 C 
ENDROOT
BRANCH   1   2
ATOM      2  O   LIG A   1     -10.020  -3.375 123.734  0.00  0.00    -0.392 OA
ATOM      3  H   LIG A   1      -9.756  -4.297 123.551  0.00  0.00    +0.210 HD
ENDBRANCH   1   2
BRANCH   1   4
ATOM      4  C   LIG A   1      -9.351  -2.531 125.878  0.00  0.00    +0.034 C 
BRANCH   4   5
ATOM      5  C   LIG A   1      -8.359  -3.032 126.945  0.00  0.00    -0.015 C 
ATOM      6  C   LIG A   1      -7.733  -1.889 127.746  0.00  0.00    +0.007 C 
ATOM      7  C   LIG A   1      -9.064  -4.001 127.900  0.00  0.00    +0.007 C 
ENDBRANCH   4   5
ENDBRANCH   1   4
BRANCH   1   8
ATOM      8  C   LIG A   1      -7.695  -3.642 124.261  0.00  0.00    +0.031 C 
BRANCH   8   9
ATOM      9  C   LIG A   1      -6.472  -2.854 123.776  0.00  0.00    +0.002 C 
BRANCH   9  10
ATOM     10  C   LIG A   1      -5.190  -3.346 124.449  0.00  0.00    -0.003 C 
ATOM     11  C   LIG A   1      -4.501  -4.420 123.620  0.00  0.00    +0.004 C 
ENDBRANCH   9  10
ENDBRANCH   8   9
ENDBRANCH   1   8
TORSDOF 6
ENDMDL
MODEL 2
REMARK VINA RESULT:      -4.8     11.775     12.610
REMARK  Name = NuBBE_1774
REMARK  9 active torsions:
REMARK  status: ('A' for Active; 'I' for Inactive)
REMARK    1  A    between atoms: C_1  and  C_2
REMARK    2  A    between atoms: C_1  and  C_9
REMARK    3  A    between atoms: C_2  and  C_4
REMARK    4  A    between atoms: C_2  and  O_8
REMARK    5  A    between atoms: C_4  and  C_5
REMARK    6  A    between atoms: C_5  and  C_6
REMARK    7  A    between atoms: C_6  and  C_7
REMARK    8  A    between atoms: C_9  and  C_10
REMARK    9  A    between atoms: C_9  and  C_11
REMARK                            x       y       z     vdW  Elec       q    Type
REMARK                         _______ _______ _______ _____ _____    ______ ____
ROOT
ATOM      1  C   LIG A   1     -12.767   7.092 130.416  0.00  0.00    +0.115 C 
ENDROOT
BRANCH   1   2
ATOM      2  O   LIG A   1     -13.348   7.317 131.702  0.00  0.00    -0.392 OA
ATOM      3  H   LIG A   1     -14.051   6.651 131.824  0.00  0.00    +0.210 HD
ENDBRANCH   1   2
BRANCH   1   4
ATOM      4  C   LIG A   1     -12.365   8.456 129.834  0.00  0.00    +0.034 C 
BRANCH   4   5
ATOM      5  C   LIG A   1     -12.408   8.575 128.298  0.00  0.00    -0.015 C 
ATOM      6  C   LIG A   1     -11.058   8.268 127.648  0.00  0.00    +0.007 C 
ATOM      7  C   LIG A   1     -13.476   7.634 127.731  0.00  0.00    +0.007 C 
ENDBRANCH   4   5
ENDBRANCH   1   4
BRANCH   1   8
ATOM      8  C   LIG A   1     -11.585   6.130 130.590  0.00  0.00    +0.031 C 
BRANCH   8   9
ATOM      9  C   LIG A   1     -10.904   6.297 131.953  0.00  0.00    +0.002 C 
BRANCH   9  10
ATOM     10  C   LIG A   1      -9.381   6.334 131.814  0.00  0.00    -0.003 C 
ATOM     11  C   LIG A   1      -8.953   7.064 130.551  0.00  0.00    +0.004 C 
ENDBRANCH   9  10
ENDBRANCH   8   9
ENDBRANCH   1   8
TORSDOF 6
ENDMDL
MODEL 3
REMARK VINA RESULT:      -4.6     11.197     12.554
REMARK  Name = NuBBE_1774
REMARK  9 active torsions:
REMARK  status: ('A' for Active; 'I' for Inactive)
REMARK    1  A    between atoms: C_1  and  C_2
REMARK    2  A    between atoms: C_1  and  C_9
REMARK    3  A    between atoms: C_2  and  C_4
REMARK    4  A    between atoms: C_2  and  O_8
REMARK    5  A    between atoms: C_4  and  C_5
REMARK    6  A    between atoms: C_5  and  C_6
REMARK    7  A    between atoms: C_6  and  C_7
REMARK    8  A    between atoms: C_9  and  C_10
REMARK    9  A    between atoms: C_9  and  C_11
REMARK                            x       y       z     vdW  Elec       q    Type
REMARK                         _______ _______ _______ _____ _____    ______ ____
ROOT
ATOM      1  C   LIG A   1     -12.420   8.725 129.738  0.00  0.00    +0.115 C 
ENDROOT
BRANCH   1   2
ATOM      2  O   LIG A   1     -13.083   9.736 130.501  0.00  0.00    -0.392 OA
ATOM      3  H   LIG A   1     -13.319   9.342 131.362  0.00  0.00    +0.210 HD
ENDBRANCH   1   2
BRANCH   1   4
ATOM      4  C   LIG A   1     -12.608   7.384 130.467  0.00  0.00    +0.034 C 
BRANCH   4   5
ATOM      5  C   LIG A   1     -11.320   6.601 130.784  0.00  0.00    -0.015 C 
ATOM      6  C   LIG A   1     -11.396   5.141 130.337  0.00  0.00    +0.007 C 
ATOM      7  C   LIG A   1     -10.119   7.279 130.117  0.00  0.00    +0.007 C 
ENDBRANCH   4   5
ENDBRANCH   1   4
BRANCH   1   8
ATOM      8  C   LIG A   1     -13.006   8.736 128.321  0.00  0.00    +0.031 C 
BRANCH   8   9
ATOM      9  C   LIG A   1     -13.335   7.323 127.824  0.00  0.00    +0.002 C 
BRANCH   9  10
ATOM     10  C   LIG A   1     -12.551   6.981 126.557  0.00  0.00    -0.003 C 
ATOM     11  C   LIG A   1     -11.159   7.595 126.579  0.00  0.00    +0.004 C 
ENDBRANCH   9  10
ENDBRANCH   8   9
ENDBRANCH   1   8
TORSDOF 6
ENDMDL
MODEL 4
REMARK VINA RESULT:      -4.6     11.238     12.683
REMARK  Name = NuBBE_1774
REMARK  9 active torsions:
REMARK  status: ('A' for Active; 'I' for Inactive)
REMARK    1  A    between atoms: C_1  and  C_2
REMARK    2  A    between atoms: C_1  and  C_9
REMARK    3  A    between atoms: C_2  and  C_4
REMARK    4  A    between atoms: C_2  and  O_8
REMARK    5  A    between atoms: C_4  and  C_5
REMARK    6  A    between atoms: C_5  and  C_6
REMARK    7  A    between atoms: C_6  and  C_7
REMARK    8  A    between atoms: C_9  and  C_10
REMARK    9  A    between atoms: C_9  and  C_11
REMARK                            x       y       z     vdW  Elec       q    Type
REMARK                         _______ _______ _______ _____ _____    ______ ____
ROOT
ATOM      1  C   LIG A   1     -10.550   7.090 128.628  0.00  0.00    +0.115 C 
ENDROOT
BRANCH   1   2
ATOM      2  O   LIG A   1      -9.764   6.452 127.620  0.00  0.00    -0.392 OA
ATOM      3  H   LIG A   1      -8.826   6.607 127.842  0.00  0.00    +0.210 HD
ENDBRANCH   1   2
BRANCH   1   4
ATOM      4  C   LIG A   1      -9.694   7.190 129.901  0.00  0.00    +0.034 C 
BRANCH   4   5
ATOM      5  C   LIG A   1     -10.373   6.741 131.209  0.00  0.00    -0.015 C 
ATOM      6  C   LIG A   1     -11.595   5.855 130.961  0.00  0.00    +0.007 C 
ATOM      7  C   LIG A   1      -9.368   5.993 132.090  0.00  0.00    +0.007 C 
ENDBRANCH   4   5
ENDBRANCH   1   4
BRANCH   1   8
ATOM      8  C   LIG A   1     -11.003   8.452 128.089  0.00  0.00    +0.031 C 
BRANCH   8   9
ATOM      9  C   LIG A   1     -12.499   8.694 128.322  0.00  0.00    +0.002 C 
BRANCH   9  10
ATOM     10  C   LIG A   1     -12.761   9.254 129.721  0.00  0.00    -0.003 C 
ATOM     11  C   LIG A   1     -13.451  10.608 129.661  0.00  0.00    +0.004 C 
ENDBRANCH   9  10
ENDBRANCH   8   9
ENDBRANCH   1   8
TORSDOF 6
ENDMDL
MODEL 5
REMARK VINA RESULT:      -4.5      1.198      3.905
REMARK  Name = NuBBE_1774
REMARK  9 active torsions:
REMARK  status: ('A' for Active; 'I' for Inactive)
REMARK    1  A    between atoms: C_1  and  C_2
REMARK    2  A    between atoms: C_1  and  C_9
REMARK    3  A    between atoms: C_2  and  C_4
REMARK    4  A    between atoms: C_2  and  O_8
REMARK    5  A    between atoms: C_4  and  C_5
REMARK    6  A    between atoms: C_5  and  C_6
REMARK    7  A    between atoms: C_6  and  C_7
REMARK    8  A    between atoms: C_9  and  C_10
REMARK    9  A    between atoms: C_9  and  C_11
REMARK                            x       y       z     vdW  Elec       q    Type
REMARK                         _______ _______ _______ _____ _____    ______ ____
ROOT
ATOM      1  C   LIG A   1      -8.529  -2.656 123.391  0.00  0.00    +0.115 C 
ENDROOT
BRANCH   1   2
ATOM      2  O   LIG A   1      -9.371  -1.537 123.675  0.00  0.00    -0.392 OA
ATOM      3  H   LIG A   1      -9.663  -1.621 124.602  0.00  0.00    +0.210 HD
ENDBRANCH   1   2
BRANCH   1   4
ATOM      4  C   LIG A   1      -7.104  -2.128 123.155  0.00  0.00    +0.034 C 
BRANCH   4   5
ATOM      5  C   LIG A   1      -6.028  -2.624 124.140  0.00  0.00    -0.015 C 
ATOM      6  C   LIG A   1      -4.830  -3.256 123.430  0.00  0.00    +0.007 C 
ATOM      7  C   LIG A   1      -5.550  -1.464 125.019  0.00  0.00    +0.007 C 
ENDBRANCH   4   5
ENDBRANCH   1   4
BRANCH   1   8
ATOM      8  C   LIG A   1      -8.628  -3.637 124.566  0.00  0.00    +0.031 C 
BRANCH   8   9
ATOM      9  C   LIG A   1      -9.395  -3.038 125.751  0.00  0.00    +0.002 C 
BRANCH   9  10
ATOM     10  C   LIG A   1      -8.895  -3.604 127.081  0.00  0.00    -0.003 C 
ATOM     11  C   LIG A   1      -7.866  -2.688 127.727  0.00  0.00    +0.004 C 
ENDBRANCH   9  10
ENDBRANCH   8   9
ENDBRANCH   1   8
TORSDOF 6
ENDMDL
MODEL 6
REMARK VINA RESULT:      -4.5     11.092     12.091
REMARK  Name = NuBBE_1774
REMARK  9 active torsions:
REMARK  status: ('A' for Active; 'I' for Inactive)
REMARK    1  A    between atoms: C_1  and  C_2
REMARK    2  A    between atoms: C_1  and  C_9
REMARK    3  A    between atoms: C_2  and  C_4
REMARK    4  A    between atoms: C_2  and  O_8
REMARK    5  A    between atoms: C_4  and  C_5
REMARK    6  A    between atoms: C_5  and  C_6
REMARK    7  A    between atoms: C_6  and  C_7
REMARK    8  A    between atoms: C_9  and  C_10
REMARK    9  A    between atoms: C_9  and  C_11
REMARK                            x       y       z     vdW  Elec       q    Type
REMARK                         _______ _______ _______ _____ _____    ______ ____
ROOT
ATOM      1  C   LIG A   1     -11.748   6.353 130.465  0.00  0.00    +0.115 C 
ENDROOT
BRANCH   1   2
ATOM      2  O   LIG A   1     -12.110   6.120 131.827  0.00  0.00    -0.392 OA
ATOM      3  H   LIG A   1     -13.028   5.789 131.831  0.00  0.00    +0.210 HD
ENDBRANCH   1   2
BRANCH   1   4
ATOM      4  C   LIG A   1     -11.951   7.849 130.172  0.00  0.00    +0.034 C 
BRANCH   4   5
ATOM      5  C   LIG A   1     -12.514   8.194 128.780  0.00  0.00    -0.015 C 
ATOM      6  C   LIG A   1     -11.417   8.359 127.728  0.00  0.00    +0.007 C 
ATOM      7  C   LIG A   1     -13.498   7.110 128.330  0.00  0.00    +0.007 C 
ENDBRANCH   4   5
ENDBRANCH   1   4
BRANCH   1   8
ATOM      8  C   LIG A   1     -10.301   5.884 130.268  0.00  0.00    +0.031 C 
BRANCH   8   9
ATOM      9  C   LIG A   1      -9.290   6.995 130.579  0.00  0.00    +0.002 C 
BRANCH   9  10
ATOM     10  C   LIG A   1      -8.248   6.530 131.596  0.00  0.00    -0.003 C 
ATOM     11  C   LIG A   1      -6.838   6.896 131.158  0.00  0.00    +0.004 C 
ENDBRANCH   9  10
ENDBRANCH   8   9
ENDBRANCH   1   8
TORSDOF 6
ENDMDL
MODEL 7
REMARK VINA RESULT:      -4.5      2.076      4.387
REMARK  Name = NuBBE_1774
REMARK  9 active torsions:
REMARK  status: ('A' for Active; 'I' for Inactive)
REMARK    1  A    between atoms: C_1  and  C_2
REMARK    2  A    between atoms: C_1  and  C_9
REMARK    3  A    between atoms: C_2  and  C_4
REMARK    4  A    between atoms: C_2  and  O_8
REMARK    5  A    between atoms: C_4  and  C_5
REMARK    6  A    between atoms: C_5  and  C_6
REMARK    7  A    between atoms: C_6  and  C_7
REMARK    8  A    between atoms: C_9  and  C_10
REMARK    9  A    between atoms: C_9  and  C_11
REMARK                            x       y       z     vdW  Elec       q    Type
REMARK                         _______ _______ _______ _____ _____    ______ ____
ROOT
ATOM      1  C   LIG A   1      -7.052  -2.406 125.817  0.00  0.00    +0.115 C 
ENDROOT
BRANCH   1   2
ATOM      2  O   LIG A   1      -6.783  -2.533 127.215  0.00  0.00    -0.392 OA
ATOM      3  H   LIG A   1      -7.586  -2.247 127.692  0.00  0.00    +0.210 HD
ENDBRANCH   1   2
BRANCH   1   4
ATOM      4  C   LIG A   1      -5.704  -2.389 125.077  0.00  0.00    +0.034 C 
BRANCH   4   5
ATOM      5  C   LIG A   1      -5.660  -3.151 123.739  0.00  0.00    -0.015 C 
ATOM      6  C   LIG A   1      -5.730  -2.218 122.529  0.00  0.00    +0.007 C 
ATOM      7  C   LIG A   1      -4.385  -3.997 123.660  0.00  0.00    +0.007 C 
ENDBRANCH   4   5
ENDBRANCH   1   4
BRANCH   1   8
ATOM      8  C   LIG A   1      -7.963  -3.566 125.400  0.00  0.00    +0.031 C 
BRANCH   8   9
ATOM      9  C   LIG A   1      -9.324  -3.075 124.894  0.00  0.00    +0.002 C 
BRANCH   9  10
ATOM     10  C   LIG A   1      -9.367  -3.029 123.366  0.00  0.00    -0.003 C 
ATOM     11  C   LIG A   1      -9.266  -1.602 122.847  0.00  0.00    +0.004 C 
ENDBRANCH   9  10
ENDBRANCH   8   9
ENDBRANCH   1   8
TORSDOF 6
ENDMDL
MODEL 8
REMARK VINA RESULT:      -4.4      2.296      2.869
REMARK  Name = NuBBE_1774
REMARK  9 active torsions:
REMARK  status: ('A' for Active; 'I' for Inactive)
REMARK    1  A    between atoms: C_1  and  C_2
REMARK    2  A    between atoms: C_1  and  C_9
REMARK    3  A    between atoms: C_2  and  C_4
REMARK    4  A    between atoms: C_2  and  O_8
REMARK    5  A    between atoms: C_4  and  C_5
REMARK    6  A    between atoms: C_5  and  C_6
REMARK    7  A    between atoms: C_6  and  C_7
REMARK    8  A    between atoms: C_9  and  C_10
REMARK    9  A    between atoms: C_9  and  C_11
REMARK                            x       y       z     vdW  Elec       q    Type
REMARK                         _______ _______ _______ _____ _____    ______ ____
ROOT
ATOM      1  C   LIG A   1      -5.917  -2.145 126.606  0.00  0.00    +0.115 C 
ENDROOT
BRANCH   1   2
ATOM      2  O   LIG A   1      -5.143  -1.282 127.442  0.00  0.00    -0.392 OA
ATOM      3  H   LIG A   1      -4.265  -1.694 127.550  0.00  0.00    +0.210 HD
ENDBRANCH   1   2
BRANCH   1   4
ATOM      4  C   LIG A   1      -7.396  -1.968 126.987  0.00  0.00    +0.034 C 
BRANCH   4   5
ATOM      5  C   LIG A   1      -8.289  -3.213 126.824  0.00  0.00    -0.015 C 
ATOM      6  C   LIG A   1      -8.794  -3.752 128.164  0.00  0.00    +0.007 C 
ATOM      7  C   LIG A   1      -9.482  -2.887 125.920  0.00  0.00    +0.007 C 
ENDBRANCH   4   5
ENDBRANCH   1   4
BRANCH   1   8
ATOM      8  C   LIG A   1      -5.617  -1.789 125.145  0.00  0.00    +0.031 C 
BRANCH   8   9
ATOM      9  C   LIG A   1      -5.911  -2.958 124.197  0.00  0.00    +0.002 C 
BRANCH   9  10
ATOM     10  C   LIG A   1      -4.670  -3.348 123.392  0.00  0.00    -0.003 C 
ATOM     11  C   LIG A   1      -4.307  -4.810 123.600  0.00  0.00    +0.004 C 
ENDBRANCH   9  10
ENDBRANCH   8   9
ENDBRANCH   1   8
TORSDOF 6
ENDMDL
MODEL 9
REMARK VINA RESULT:      -4.3     11.264     12.407
REMARK  Name = NuBBE_1774
REMARK  9 active torsions:
REMARK  status: ('A' for Active; 'I' for Inactive)
REMARK    1  A    between atoms: C_1  and  C_2
REMARK    2  A    between atoms: C_1  and  C_9
REMARK    3  A    between atoms: C_2  and  C_4
REMARK    4  A    between atoms: C_2  and  O_8
REMARK    5  A    between atoms: C_4  and  C_5
REMARK    6  A    between atoms: C_5  and  C_6
REMARK    7  A    between atoms: C_6  and  C_7
REMARK    8  A    between atoms: C_9  and  C_10
REMARK    9  A    between atoms: C_9  and  C_11
REMARK                            x       y       z     vdW  Elec       q    Type
REMARK                         _______ _______ _______ _____ _____    ______ ____
ROOT
ATOM      1  C   LIG A   1     -11.620   6.195 130.688  0.00  0.00    +0.115 C 
ENDROOT
BRANCH   1   2
ATOM      2  O   LIG A   1     -11.694   5.205 129.660  0.00  0.00    -0.392 OA
ATOM      3  H   LIG A   1     -11.137   4.454 129.940  0.00  0.00    +0.210 HD
ENDBRANCH   1   2
BRANCH   1   4
ATOM      4  C   LIG A   1     -10.247   6.880 130.586  0.00  0.00    +0.034 C 
BRANCH   4   5
ATOM      5  C   LIG A   1      -9.072   6.138 131.250  0.00  0.00    -0.015 C 
ATOM      6  C   LIG A   1      -7.742   6.875 131.081  0.00  0.00    +0.007 C 
ATOM      7  C   LIG A   1      -9.358   5.931 132.741  0.00  0.00    +0.007 C 
ENDBRANCH   4   5
ENDBRANCH   1   4
BRANCH   1   8
ATOM      8  C   LIG A   1     -12.798   7.160 130.506  0.00  0.00    +0.031 C 
BRANCH   8   9
ATOM      9  C   LIG A   1     -13.310   7.176 129.061  0.00  0.00    +0.002 C 
BRANCH   9  10
ATOM     10  C   LIG A   1     -12.978   8.497 128.366  0.00  0.00    -0.003 C 
ATOM     11  C   LIG A   1     -12.997   9.662 129.344  0.00  0.00    +0.004 C 
ENDBRANCH   9  10
ENDBRANCH   8   9
ENDBRANCH   1   8
TORSDOF 6
ENDMDL
