MODEL 1
REMARK VINA RESULT:      -7.6      0.000      0.000
REMARK  Name = NuBBE_223
REMARK  27 active torsions:
REMARK  status: ('A' for Active; 'I' for Inactive)
REMARK    1  A    between atoms: C_1  and  C_2
REMARK    2  A    between atoms: C_4  and  O_6
REMARK    3  A    between atoms: O_6  and  C_7
REMARK    4  A    between atoms: C_7  and  C_8
REMARK    5  A    between atoms: C_8  and  C_9
REMARK    6  A    between atoms: C_9  and  C_10
REMARK    7  A    between atoms: C_10  and  C_11
REMARK    8  A    between atoms: C_11  and  C_12
REMARK    9  A    between atoms: C_12  and  C_13
REMARK   10  A    between atoms: C_13  and  C_14
REMARK   11  A    between atoms: C_14  and  C_15
REMARK   12  A    between atoms: C_15  and  C_16
REMARK   13  A    between atoms: C_18  and  O_20
REMARK   14  A    between atoms: O_20  and  C_21
REMARK   15  A    between atoms: C_21  and  C_22
REMARK   16  A    between atoms: C_26  and  O_28
REMARK   17  A    between atoms: O_28  and  C_29
REMARK   18  A    between atoms: C_29  and  C_30
REMARK   19  A    between atoms: C_33  and  O_35
REMARK   20  A    between atoms: O_35  and  C_36
REMARK   21  A    between atoms: C_36  and  C_37
REMARK   22  A    between atoms: C_40  and  O_42
REMARK   23  A    between atoms: C_46  and  C_47
REMARK   24  A    between atoms: C_46  and  C_48
REMARK   25  A    between atoms: C_48  and  C_49
REMARK   26  A    between atoms: C_50  and  C_51
REMARK   27  A    between atoms: C_50  and  C_53
REMARK                            x       y       z     vdW  Elec       q    Type
REMARK                         _______ _______ _______ _____ _____    ______ ____
ROOT
ATOM      1  C   LIG A   1      -5.457   0.982 126.966  0.00  0.00    +0.012 C 
ATOM      2  C   LIG A   1      -6.853   0.885 127.589  0.00  0.00    +0.037 C 
ATOM      3  C   LIG A   1      -7.784   1.964 126.984  0.00  0.00    +0.221 C 
ATOM      4  C   LIG A   1      -7.572   3.371 127.561  0.00  0.00    +0.234 C 
ATOM      5  C   LIG A   1      -7.539   3.532 129.119  0.00  0.00    +0.104 C 
ATOM      6  C   LIG A   1      -8.866   4.108 129.683  0.00  0.00    +0.013 C 
ATOM      7  C   LIG A   1      -8.681   5.582 129.976  0.00  0.00    +0.343 C 
ATOM      8  O   LIG A   1      -7.297   5.688 130.277  0.00  0.00    -0.297 OA
ATOM      9  C   LIG A   1      -6.633   4.823 129.376  0.00  0.00    +0.328 C 
ATOM     10  C   LIG A   1      -9.817   3.408 130.325  0.00  0.00    +0.010 C 
ATOM     11  C   LIG A   1      -9.462   2.113 130.969  0.00  0.00    +0.138 C 
ATOM     12  C   LIG A   1      -7.937   2.043 131.203  0.00  0.00    +0.040 C 
ATOM     13  C   LIG A   1      -7.097   2.197 129.897  0.00  0.00    +0.018 C 
ATOM     14  C   LIG A   1      -6.941   0.770 129.142  0.00  0.00    -0.018 C 
ATOM     15  C   LIG A   1      -8.119  -0.214 129.429  0.00  0.00    +0.012 C 
ENDROOT
BRANCH  11  16
ATOM     16  O   LIG A   1     -10.111   2.050 132.235  0.00  0.00    -0.388 OA
ATOM     17  H   LIG A   1      -9.648   2.668 132.824  0.00  0.00    +0.210 HD
ENDBRANCH  11  16
BRANCH   4  18
ATOM     18  O   LIG A   1      -6.274   3.758 126.988  0.00  0.00    -0.457 OA
BRANCH  18  19
ATOM     19  C   LIG A   1      -6.293   4.520 125.852  0.00  0.00    +0.304 C 
ATOM     20  C   LIG A   1      -5.358   3.941 124.827  0.00  0.00    +0.136 C 
ATOM     21  O   LIG A   1      -7.061   5.441 125.647  0.00  0.00    -0.251 OA
ENDBRANCH  18  19
ENDBRANCH   4  18
BRANCH   7  22
ATOM     22  O   LIG A   1      -9.445   6.135 131.051  0.00  0.00    -0.431 OA
BRANCH  22  23
ATOM     23  C   LIG A   1     -10.507   6.914 130.696  0.00  0.00    +0.306 C 
ATOM     24  C   LIG A   1     -11.711   6.591 131.502  0.00  0.00    +0.136 C 
ATOM     25  O   LIG A   1     -10.553   7.723 129.765  0.00  0.00    -0.251 OA
ENDBRANCH  22  23
ENDBRANCH   7  22
BRANCH   9  26
ATOM     26  O   LIG A   1      -5.311   4.508 129.792  0.00  0.00    -0.434 OA
BRANCH  26  27
ATOM     27  C   LIG A   1      -4.382   5.417 129.324  0.00  0.00    +0.306 C 
ATOM     28  C   LIG A   1      -3.069   5.115 130.016  0.00  0.00    +0.136 C 
ATOM     29  O   LIG A   1      -4.520   6.240 128.455  0.00  0.00    -0.251 OA
ENDBRANCH  26  27
ENDBRANCH   9  26
BRANCH  14  30
ATOM     30  C   LIG A   1      -5.659   0.048 129.748  0.00  0.00    +0.034 C 
BRANCH  30  31
ATOM     31  C   LIG A   1      -5.810  -1.382 130.266  0.00  0.00    -0.023 C 
ATOM     32  C   LIG A   1      -5.480  -2.521 129.622  0.00  0.00    -0.055 C 
ATOM     33  C   LIG A   1      -5.807  -3.882 130.198  0.00  0.00    +0.043 C 
BRANCH  32  34
ATOM     34  C   LIG A   1      -4.831  -2.468 128.328  0.00  0.00    -0.005 C 
ATOM     35  C   LIG A   1      -5.463  -2.499 127.150  0.00  0.00    +0.008 C 
ENDBRANCH  32  34
ENDBRANCH  30  31
ENDBRANCH  14  30
BRANCH   3  36
ATOM     36  O   LIG A   1      -9.141   1.493 126.943  0.00  0.00    -0.457 OA
BRANCH  36  37
ATOM     37  C   LIG A   1      -9.420   0.955 125.704  0.00  0.00    +0.307 C 
ATOM     38  O   LIG A   1     -10.250   0.069 125.515  0.00  0.00    -0.251 OA
BRANCH  37  39
ATOM     39  C   LIG A   1      -8.637   1.611 124.599  0.00  0.00    +0.120 C 
BRANCH  39  40
ATOM     40  C   LIG A   1      -8.300   0.617 123.473  0.00  0.00    +0.011 C 
BRANCH  40  41
ATOM     41  C   LIG A   1      -7.140  -0.318 123.846  0.00  0.00    +0.000 C 
BRANCH  41  42
ATOM     42  C   LIG A   1      -7.317  -1.728 123.309  0.00  0.00    +0.000 C 
BRANCH  42  43
ATOM     43  C   LIG A   1      -8.785  -2.102 123.109  0.00  0.00    -0.000 C 
BRANCH  43  44
ATOM     44  C   LIG A   1      -9.289  -3.323 123.883  0.00  0.00    -0.000 C 
BRANCH  44  45
ATOM     45  C   LIG A   1      -8.485  -3.632 125.156  0.00  0.00    -0.000 C 
BRANCH  45  46
ATOM     46  C   LIG A   1      -8.970  -2.997 126.467  0.00  0.00    -0.003 C 
ATOM     47  C   LIG A   1      -8.880  -3.829 127.739  0.00  0.00    +0.004 C 
ENDBRANCH  45  46
ENDBRANCH  44  45
ENDBRANCH  43  44
ENDBRANCH  42  43
ENDBRANCH  41  42
ENDBRANCH  40  41
ENDBRANCH  39  40
ENDBRANCH  37  39
ENDBRANCH  36  37
ENDBRANCH   3  36
TORSDOF 20
ENDMDL
MODEL 2
REMARK VINA RESULT:      -7.2      2.479      8.256
REMARK  Name = NuBBE_223
REMARK  27 active torsions:
REMARK  status: ('A' for Active; 'I' for Inactive)
REMARK    1  A    between atoms: C_1  and  C_2
REMARK    2  A    between atoms: C_4  and  O_6
REMARK    3  A    between atoms: O_6  and  C_7
REMARK    4  A    between atoms: C_7  and  C_8
REMARK    5  A    between atoms: C_8  and  C_9
REMARK    6  A    between atoms: C_9  and  C_10
REMARK    7  A    between atoms: C_10  and  C_11
REMARK    8  A    between atoms: C_11  and  C_12
REMARK    9  A    between atoms: C_12  and  C_13
REMARK   10  A    between atoms: C_13  and  C_14
REMARK   11  A    between atoms: C_14  and  C_15
REMARK   12  A    between atoms: C_15  and  C_16
REMARK   13  A    between atoms: C_18  and  O_20
REMARK   14  A    between atoms: O_20  and  C_21
REMARK   15  A    between atoms: C_21  and  C_22
REMARK   16  A    between atoms: C_26  and  O_28
REMARK   17  A    between atoms: O_28  and  C_29
REMARK   18  A    between atoms: C_29  and  C_30
REMARK   19  A    between atoms: C_33  and  O_35
REMARK   20  A    between atoms: O_35  and  C_36
REMARK   21  A    between atoms: C_36  and  C_37
REMARK   22  A    between atoms: C_40  and  O_42
REMARK   23  A    between atoms: C_46  and  C_47
REMARK   24  A    between atoms: C_46  and  C_48
REMARK   25  A    between atoms: C_48  and  C_49
REMARK   26  A    between atoms: C_50  and  C_51
REMARK   27  A    between atoms: C_50  and  C_53
REMARK                            x       y       z     vdW  Elec       q    Type
REMARK                         _______ _______ _______ _____ _____    ______ ____
ROOT
ATOM      1  C   LIG A   1      -6.103   2.470 131.585  0.00  0.00    +0.012 C 
ATOM      2  C   LIG A   1      -6.715   2.918 130.254  0.00  0.00    +0.037 C 
ATOM      3  C   LIG A   1      -8.098   2.253 130.052  0.00  0.00    +0.221 C 
ATOM      4  C   LIG A   1      -8.030   0.792 129.584  0.00  0.00    +0.234 C 
ATOM      5  C   LIG A   1      -7.109   0.452 128.362  0.00  0.00    +0.104 C 
ATOM      6  C   LIG A   1      -7.916   0.249 127.051  0.00  0.00    +0.013 C 
ATOM      7  C   LIG A   1      -8.061  -1.234 126.782  0.00  0.00    +0.343 C 
ATOM      8  O   LIG A   1      -6.899  -1.793 127.378  0.00  0.00    -0.297 OA
ATOM      9  C   LIG A   1      -6.692  -1.075 128.581  0.00  0.00    +0.328 C 
ATOM     10  C   LIG A   1      -8.004   1.128 126.038  0.00  0.00    +0.010 C 
ATOM     11  C   LIG A   1      -6.951   2.170 125.881  0.00  0.00    +0.138 C 
ATOM     12  C   LIG A   1      -5.673   1.742 126.634  0.00  0.00    +0.040 C 
ATOM     13  C   LIG A   1      -5.900   1.488 128.157  0.00  0.00    +0.018 C 
ATOM     14  C   LIG A   1      -5.801   2.876 128.992  0.00  0.00    -0.018 C 
ATOM     15  C   LIG A   1      -6.181   4.134 128.148  0.00  0.00    +0.012 C 
ENDROOT
BRANCH  11  16
ATOM     16  O   LIG A   1      -6.637   2.283 124.496  0.00  0.00    -0.388 OA
ATOM     17  H   LIG A   1      -7.003   1.498 124.056  0.00  0.00    +0.210 HD
ENDBRANCH  11  16
BRANCH   4  18
ATOM     18  O   LIG A   1      -7.549   0.094 130.786  0.00  0.00    -0.457 OA
BRANCH  18  19
ATOM     19  C   LIG A   1      -8.491  -0.327 131.683  0.00  0.00    +0.304 C 
ATOM     20  C   LIG A   1      -7.908  -1.378 132.587  0.00  0.00    +0.136 C 
ATOM     21  O   LIG A   1      -9.589   0.178 131.826  0.00  0.00    -0.251 OA
ENDBRANCH  18  19
ENDBRANCH   4  18
BRANCH   7  22
ATOM     22  O   LIG A   1      -8.138  -1.646 125.415  0.00  0.00    -0.431 OA
BRANCH  22  23
ATOM     23  C   LIG A   1      -9.131  -2.529 125.108  0.00  0.00    +0.306 C 
ATOM     24  C   LIG A   1      -9.077  -2.933 123.680  0.00  0.00    +0.136 C 
ATOM     25  O   LIG A   1     -10.047  -2.899 125.848  0.00  0.00    -0.251 OA
ENDBRANCH  22  23
ENDBRANCH   7  22
BRANCH   9  26
ATOM     26  O   LIG A   1      -5.375  -1.231 129.091  0.00  0.00    -0.434 OA
BRANCH  26  27
ATOM     27  C   LIG A   1      -4.988  -2.556 129.152  0.00  0.00    +0.306 C 
ATOM     28  C   LIG A   1      -5.884  -3.239 130.163  0.00  0.00    +0.136 C 
ATOM     29  O   LIG A   1      -4.170  -3.123 128.474  0.00  0.00    -0.251 OA
ENDBRANCH  26  27
ENDBRANCH   9  26
BRANCH  14  30
ATOM     30  C   LIG A   1      -4.270   3.096 129.370  0.00  0.00    +0.034 C 
BRANCH  30  31
ATOM     31  C   LIG A   1      -3.665   4.484 129.160  0.00  0.00    -0.023 C 
ATOM     32  C   LIG A   1      -2.915   4.896 128.117  0.00  0.00    -0.055 C 
ATOM     33  C   LIG A   1      -2.264   6.262 128.097  0.00  0.00    +0.043 C 
BRANCH  32  34
ATOM     34  C   LIG A   1      -2.678   4.013 126.992  0.00  0.00    -0.005 C 
ATOM     35  C   LIG A   1      -1.715   3.088 126.931  0.00  0.00    +0.008 C 
ENDBRANCH  32  34
ENDBRANCH  30  31
ENDBRANCH  14  30
BRANCH   3  36
ATOM     36  O   LIG A   1      -8.969   3.118 129.305  0.00  0.00    -0.457 OA
BRANCH  36  37
ATOM     37  C   LIG A   1      -9.745   3.868 130.164  0.00  0.00    +0.307 C 
ATOM     38  O   LIG A   1     -10.509   3.383 130.994  0.00  0.00    -0.251 OA
BRANCH  37  39
ATOM     39  C   LIG A   1      -9.510   5.348 130.013  0.00  0.00    +0.120 C 
BRANCH  39  40
ATOM     40  C   LIG A   1      -9.407   6.049 131.380  0.00  0.00    +0.011 C 
BRANCH  40  41
ATOM     41  C   LIG A   1      -7.966   6.086 131.911  0.00  0.00    +0.000 C 
BRANCH  41  42
ATOM     42  C   LIG A   1      -7.000   6.773 130.961  0.00  0.00    +0.000 C 
BRANCH  42  43
ATOM     43  C   LIG A   1      -5.549   6.688 131.435  0.00  0.00    -0.000 C 
BRANCH  43  44
ATOM     44  C   LIG A   1      -4.542   7.587 130.713  0.00  0.00    -0.000 C 
BRANCH  44  45
ATOM     45  C   LIG A   1      -3.220   7.781 131.473  0.00  0.00    -0.000 C 
BRANCH  45  46
ATOM     46  C   LIG A   1      -2.485   6.517 131.940  0.00  0.00    -0.003 C 
ATOM     47  C   LIG A   1      -0.974   6.463 131.759  0.00  0.00    +0.004 C 
ENDBRANCH  45  46
ENDBRANCH  44  45
ENDBRANCH  43  44
ENDBRANCH  42  43
ENDBRANCH  41  42
ENDBRANCH  40  41
ENDBRANCH  39  40
ENDBRANCH  37  39
ENDBRANCH  36  37
ENDBRANCH   3  36
TORSDOF 20
ENDMDL
MODEL 3
REMARK VINA RESULT:      -7.1      2.925      8.386
REMARK  Name = NuBBE_223
REMARK  27 active torsions:
REMARK  status: ('A' for Active; 'I' for Inactive)
REMARK    1  A    between atoms: C_1  and  C_2
REMARK    2  A    between atoms: C_4  and  O_6
REMARK    3  A    between atoms: O_6  and  C_7
REMARK    4  A    between atoms: C_7  and  C_8
REMARK    5  A    between atoms: C_8  and  C_9
REMARK    6  A    between atoms: C_9  and  C_10
REMARK    7  A    between atoms: C_10  and  C_11
REMARK    8  A    between atoms: C_11  and  C_12
REMARK    9  A    between atoms: C_12  and  C_13
REMARK   10  A    between atoms: C_13  and  C_14
REMARK   11  A    between atoms: C_14  and  C_15
REMARK   12  A    between atoms: C_15  and  C_16
REMARK   13  A    between atoms: C_18  and  O_20
REMARK   14  A    between atoms: O_20  and  C_21
REMARK   15  A    between atoms: C_21  and  C_22
REMARK   16  A    between atoms: C_26  and  O_28
REMARK   17  A    between atoms: O_28  and  C_29
REMARK   18  A    between atoms: C_29  and  C_30
REMARK   19  A    between atoms: C_33  and  O_35
REMARK   20  A    between atoms: O_35  and  C_36
REMARK   21  A    between atoms: C_36  and  C_37
REMARK   22  A    between atoms: C_40  and  O_42
REMARK   23  A    between atoms: C_46  and  C_47
REMARK   24  A    between atoms: C_46  and  C_48
REMARK   25  A    between atoms: C_48  and  C_49
REMARK   26  A    between atoms: C_50  and  C_51
REMARK   27  A    between atoms: C_50  and  C_53
REMARK                            x       y       z     vdW  Elec       q    Type
REMARK                         _______ _______ _______ _____ _____    ______ ____
ROOT
ATOM      1  C   LIG A   1      -5.284   1.811 132.009  0.00  0.00    +0.012 C 
ATOM      2  C   LIG A   1      -6.119   2.152 130.770  0.00  0.00    +0.037 C 
ATOM      3  C   LIG A   1      -7.394   1.275 130.729  0.00  0.00    +0.221 C 
ATOM      4  C   LIG A   1      -7.155  -0.158 130.233  0.00  0.00    +0.234 C 
ATOM      5  C   LIG A   1      -6.350  -0.354 128.903  0.00  0.00    +0.104 C 
ATOM      6  C   LIG A   1      -7.271  -0.687 127.698  0.00  0.00    +0.013 C 
ATOM      7  C   LIG A   1      -7.213  -2.176 127.426  0.00  0.00    +0.343 C 
ATOM      8  O   LIG A   1      -5.912  -2.541 127.866  0.00  0.00    -0.297 OA
ATOM      9  C   LIG A   1      -5.674  -1.795 129.044  0.00  0.00    +0.328 C 
ATOM     10  C   LIG A   1      -7.621   0.163 126.717  0.00  0.00    +0.010 C 
ATOM     11  C   LIG A   1      -6.772   1.358 126.447  0.00  0.00    +0.138 C 
ATOM     12  C   LIG A   1      -5.360   1.141 127.031  0.00  0.00    +0.040 C 
ATOM     13  C   LIG A   1      -5.354   0.860 128.566  0.00  0.00    +0.018 C 
ATOM     14  C   LIG A   1      -5.372   2.250 129.404  0.00  0.00    -0.018 C 
ATOM     15  C   LIG A   1      -6.047   3.428 128.634  0.00  0.00    +0.012 C 
ENDROOT
BRANCH  11  16
ATOM     16  O   LIG A   1      -6.654   1.513 125.037  0.00  0.00    -0.388 OA
ATOM     17  H   LIG A   1      -6.287   2.398 124.877  0.00  0.00    +0.210 HD
ENDBRANCH  11  16
BRANCH   4  18
ATOM     18  O   LIG A   1      -6.425  -0.766 131.356  0.00  0.00    -0.457 OA
BRANCH  18  19
ATOM     19  C   LIG A   1      -7.171  -1.305 132.368  0.00  0.00    +0.304 C 
ATOM     20  C   LIG A   1      -7.481  -2.745 132.070  0.00  0.00    +0.136 C 
ATOM     21  O   LIG A   1      -7.419  -0.746 133.420  0.00  0.00    -0.251 OA
ENDBRANCH  18  19
ENDBRANCH   4  18
BRANCH   7  22
ATOM     22  O   LIG A   1      -7.392  -2.600 126.072  0.00  0.00    -0.431 OA
BRANCH  22  23
ATOM     23  C   LIG A   1      -8.570  -3.227 125.789  0.00  0.00    +0.306 C 
ATOM     24  C   LIG A   1      -8.646  -3.622 124.360  0.00  0.00    +0.136 C 
ATOM     25  O   LIG A   1      -9.528  -3.381 126.552  0.00  0.00    -0.251 OA
ENDBRANCH  22  23
ENDBRANCH   7  22
BRANCH   9  26
ATOM     26  O   LIG A   1      -4.296  -1.737 129.386  0.00  0.00    -0.434 OA
BRANCH  26  27
ATOM     27  C   LIG A   1      -3.876  -2.864 130.068  0.00  0.00    +0.306 C 
ATOM     28  C   LIG A   1      -2.958  -3.634 129.142  0.00  0.00    +0.136 C 
ATOM     29  O   LIG A   1      -4.091  -3.161 131.215  0.00  0.00    -0.251 OA
ENDBRANCH  26  27
ENDBRANCH   9  26
BRANCH  14  30
ATOM     30  C   LIG A   1      -3.860   2.711 129.596  0.00  0.00    +0.034 C 
BRANCH  30  31
ATOM     31  C   LIG A   1      -3.507   4.170 129.311  0.00  0.00    -0.023 C 
ATOM     32  C   LIG A   1      -2.957   4.670 128.185  0.00  0.00    -0.055 C 
ATOM     33  C   LIG A   1      -2.533   6.120 128.084  0.00  0.00    +0.043 C 
BRANCH  32  34
ATOM     34  C   LIG A   1      -2.719   3.811 127.043  0.00  0.00    -0.005 C 
ATOM     35  C   LIG A   1      -1.625   3.065 126.857  0.00  0.00    +0.008 C 
ENDBRANCH  32  34
ENDBRANCH  30  31
ENDBRANCH  14  30
BRANCH   3  36
ATOM     36  O   LIG A   1      -8.476   1.989 130.108  0.00  0.00    -0.457 OA
BRANCH  36  37
ATOM     37  C   LIG A   1      -9.041   2.870 131.006  0.00  0.00    +0.307 C 
ATOM     38  O   LIG A   1      -9.329   4.032 130.734  0.00  0.00    -0.251 OA
BRANCH  37  39
ATOM     39  C   LIG A   1      -9.319   2.234 132.342  0.00  0.00    +0.120 C 
BRANCH  39  40
ATOM     40  C   LIG A   1      -9.254   3.263 133.486  0.00  0.00    +0.011 C 
BRANCH  40  41
ATOM     41  C   LIG A   1      -7.831   3.440 134.034  0.00  0.00    +0.000 C 
BRANCH  41  42
ATOM     42  C   LIG A   1      -7.478   4.890 134.317  0.00  0.00    +0.000 C 
BRANCH  42  43
ATOM     43  C   LIG A   1      -7.383   5.732 133.045  0.00  0.00    -0.000 C 
BRANCH  43  44
ATOM     44  C   LIG A   1      -6.123   5.542 132.195  0.00  0.00    -0.000 C 
BRANCH  44  45
ATOM     45  C   LIG A   1      -6.105   6.382 130.908  0.00  0.00    -0.000 C 
BRANCH  45  46
ATOM     46  C   LIG A   1      -4.936   7.359 130.721  0.00  0.00    -0.003 C 
ATOM     47  C   LIG A   1      -3.702   7.170 131.594  0.00  0.00    +0.004 C 
ENDBRANCH  45  46
ENDBRANCH  44  45
ENDBRANCH  43  44
ENDBRANCH  42  43
ENDBRANCH  41  42
ENDBRANCH  40  41
ENDBRANCH  39  40
ENDBRANCH  37  39
ENDBRANCH  36  37
ENDBRANCH   3  36
TORSDOF 20
ENDMDL
MODEL 4
REMARK VINA RESULT:      -6.9      2.636      8.154
REMARK  Name = NuBBE_223
REMARK  27 active torsions:
REMARK  status: ('A' for Active; 'I' for Inactive)
REMARK    1  A    between atoms: C_1  and  C_2
REMARK    2  A    between atoms: C_4  and  O_6
REMARK    3  A    between atoms: O_6  and  C_7
REMARK    4  A    between atoms: C_7  and  C_8
REMARK    5  A    between atoms: C_8  and  C_9
REMARK    6  A    between atoms: C_9  and  C_10
REMARK    7  A    between atoms: C_10  and  C_11
REMARK    8  A    between atoms: C_11  and  C_12
REMARK    9  A    between atoms: C_12  and  C_13
REMARK   10  A    between atoms: C_13  and  C_14
REMARK   11  A    between atoms: C_14  and  C_15
REMARK   12  A    between atoms: C_15  and  C_16
REMARK   13  A    between atoms: C_18  and  O_20
REMARK   14  A    between atoms: O_20  and  C_21
REMARK   15  A    between atoms: C_21  and  C_22
REMARK   16  A    between atoms: C_26  and  O_28
REMARK   17  A    between atoms: O_28  and  C_29
REMARK   18  A    between atoms: C_29  and  C_30
REMARK   19  A    between atoms: C_33  and  O_35
REMARK   20  A    between atoms: O_35  and  C_36
REMARK   21  A    between atoms: C_36  and  C_37
REMARK   22  A    between atoms: C_40  and  O_42
REMARK   23  A    between atoms: C_46  and  C_47
REMARK   24  A    between atoms: C_46  and  C_48
REMARK   25  A    between atoms: C_48  and  C_49
REMARK   26  A    between atoms: C_50  and  C_51
REMARK   27  A    between atoms: C_50  and  C_53
REMARK                            x       y       z     vdW  Elec       q    Type
REMARK                         _______ _______ _______ _____ _____    ______ ____
ROOT
ATOM      1  C   LIG A   1      -7.755   4.509 128.099  0.00  0.00    +0.012 C 
ATOM      2  C   LIG A   1      -6.868   3.319 128.478  0.00  0.00    +0.037 C 
ATOM      3  C   LIG A   1      -5.761   3.119 127.415  0.00  0.00    +0.221 C 
ATOM      4  C   LIG A   1      -6.238   2.417 126.135  0.00  0.00    +0.234 C 
ATOM      5  C   LIG A   1      -7.057   1.090 126.285  0.00  0.00    +0.104 C 
ATOM      6  C   LIG A   1      -6.201  -0.171 125.988  0.00  0.00    +0.013 C 
ATOM      7  C   LIG A   1      -6.511  -0.663 124.590  0.00  0.00    +0.343 C 
ATOM      8  O   LIG A   1      -7.857  -0.256 124.387  0.00  0.00    -0.297 OA
ATOM      9  C   LIG A   1      -7.971   1.026 124.974  0.00  0.00    +0.328 C 
ATOM     10  C   LIG A   1      -5.707  -1.019 126.906  0.00  0.00    +0.010 C 
ATOM     11  C   LIG A   1      -6.337  -1.087 128.254  0.00  0.00    +0.138 C 
ATOM     12  C   LIG A   1      -7.769  -0.513 128.193  0.00  0.00    +0.040 C 
ATOM     13  C   LIG A   1      -7.831   0.962 127.686  0.00  0.00    +0.018 C 
ATOM     14  C   LIG A   1      -7.580   2.000 128.909  0.00  0.00    -0.018 C 
ATOM     15  C   LIG A   1      -6.710   1.402 130.059  0.00  0.00    +0.012 C 
ENDROOT
BRANCH  11  16
ATOM     16  O   LIG A   1      -6.421  -2.455 128.641  0.00  0.00    -0.388 OA
ATOM     17  H   LIG A   1      -6.899  -2.484 129.486  0.00  0.00    +0.210 HD
ENDBRANCH  11  16
BRANCH   4  18
ATOM     18  O   LIG A   1      -7.066   3.450 125.496  0.00  0.00    -0.457 OA
BRANCH  18  19
ATOM     19  C   LIG A   1      -6.416   4.434 124.803  0.00  0.00    +0.304 C 
ATOM     20  C   LIG A   1      -5.820   3.870 123.544  0.00  0.00    +0.136 C 
ATOM     21  O   LIG A   1      -6.441   5.617 125.088  0.00  0.00    -0.251 OA
ENDBRANCH  18  19
ENDBRANCH   4  18
BRANCH   7  22
ATOM     22  O   LIG A   1      -6.400  -2.070 124.353  0.00  0.00    -0.431 OA
BRANCH  22  23
ATOM     23  C   LIG A   1      -5.752  -2.437 123.210  0.00  0.00    +0.306 C 
ATOM     24  C   LIG A   1      -4.630  -3.366 123.497  0.00  0.00    +0.136 C 
ATOM     25  O   LIG A   1      -5.957  -2.006 122.072  0.00  0.00    -0.251 OA
ENDBRANCH  22  23
ENDBRANCH   7  22
BRANCH   9  26
ATOM     26  O   LIG A   1      -9.320   1.402 125.211  0.00  0.00    -0.434 OA
BRANCH  26  27
ATOM     27  C   LIG A   1     -10.047   1.518 124.041  0.00  0.00    +0.306 C 
ATOM     28  C   LIG A   1      -9.196   2.296 123.059  0.00  0.00    +0.136 C 
ATOM     29  O   LIG A   1     -11.111   1.021 123.775  0.00  0.00    -0.251 OA
ENDBRANCH  26  27
ENDBRANCH   9  26
BRANCH  14  30
ATOM     30  C   LIG A   1      -8.992   2.291 129.584  0.00  0.00    +0.034 C 
BRANCH  30  31
ATOM     31  C   LIG A   1      -9.078   2.290 131.110  0.00  0.00    -0.023 C 
ATOM     32  C   LIG A   1      -9.329   3.346 131.912  0.00  0.00    -0.055 C 
ATOM     33  C   LIG A   1      -9.254   3.234 133.420  0.00  0.00    +0.043 C 
BRANCH  32  34
ATOM     34  C   LIG A   1      -9.642   4.641 131.341  0.00  0.00    -0.005 C 
ATOM     35  C   LIG A   1      -9.754   5.779 132.034  0.00  0.00    +0.008 C 
ENDBRANCH  32  34
ENDBRANCH  30  31
ENDBRANCH  14  30
BRANCH   3  36
ATOM     36  O   LIG A   1      -4.570   2.590 128.021  0.00  0.00    -0.457 OA
BRANCH  36  37
ATOM     37  C   LIG A   1      -3.793   3.617 128.517  0.00  0.00    +0.307 C 
ATOM     38  O   LIG A   1      -3.361   3.654 129.666  0.00  0.00    -0.251 OA
BRANCH  37  39
ATOM     39  C   LIG A   1      -3.485   4.662 127.478  0.00  0.00    +0.120 C 
BRANCH  39  40
ATOM     40  C   LIG A   1      -3.611   6.086 128.049  0.00  0.00    +0.011 C 
BRANCH  40  41
ATOM     41  C   LIG A   1      -2.244   6.730 128.322  0.00  0.00    +0.000 C 
BRANCH  41  42
ATOM     42  C   LIG A   1      -1.834   6.660 129.783  0.00  0.00    +0.000 C 
BRANCH  42  43
ATOM     43  C   LIG A   1      -2.962   7.070 130.730  0.00  0.00    -0.000 C 
BRANCH  43  44
ATOM     44  C   LIG A   1      -2.959   6.420 132.116  0.00  0.00    -0.000 C 
BRANCH  44  45
ATOM     45  C   LIG A   1      -4.313   6.485 132.840  0.00  0.00    -0.000 C 
BRANCH  45  46
ATOM     46  C   LIG A   1      -5.576   6.288 131.990  0.00  0.00    -0.003 C 
ATOM     47  C   LIG A   1      -5.981   4.864 131.633  0.00  0.00    +0.004 C 
ENDBRANCH  45  46
ENDBRANCH  44  45
ENDBRANCH  43  44
ENDBRANCH  42  43
ENDBRANCH  41  42
ENDBRANCH  40  41
ENDBRANCH  39  40
ENDBRANCH  37  39
ENDBRANCH  36  37
ENDBRANCH   3  36
TORSDOF 20
ENDMDL
MODEL 5
REMARK VINA RESULT:      -6.9      2.663      8.185
REMARK  Name = NuBBE_223
REMARK  27 active torsions:
REMARK  status: ('A' for Active; 'I' for Inactive)
REMARK    1  A    between atoms: C_1  and  C_2
REMARK    2  A    between atoms: C_4  and  O_6
REMARK    3  A    between atoms: O_6  and  C_7
REMARK    4  A    between atoms: C_7  and  C_8
REMARK    5  A    between atoms: C_8  and  C_9
REMARK    6  A    between atoms: C_9  and  C_10
REMARK    7  A    between atoms: C_10  and  C_11
REMARK    8  A    between atoms: C_11  and  C_12
REMARK    9  A    between atoms: C_12  and  C_13
REMARK   10  A    between atoms: C_13  and  C_14
REMARK   11  A    between atoms: C_14  and  C_15
REMARK   12  A    between atoms: C_15  and  C_16
REMARK   13  A    between atoms: C_18  and  O_20
REMARK   14  A    between atoms: O_20  and  C_21
REMARK   15  A    between atoms: C_21  and  C_22
REMARK   16  A    between atoms: C_26  and  O_28
REMARK   17  A    between atoms: O_28  and  C_29
REMARK   18  A    between atoms: C_29  and  C_30
REMARK   19  A    between atoms: C_33  and  O_35
REMARK   20  A    between atoms: O_35  and  C_36
REMARK   21  A    between atoms: C_36  and  C_37
REMARK   22  A    between atoms: C_40  and  O_42
REMARK   23  A    between atoms: C_46  and  C_47
REMARK   24  A    between atoms: C_46  and  C_48
REMARK   25  A    between atoms: C_48  and  C_49
REMARK   26  A    between atoms: C_50  and  C_51
REMARK   27  A    between atoms: C_50  and  C_53
REMARK                            x       y       z     vdW  Elec       q    Type
REMARK                         _______ _______ _______ _____ _____    ______ ____
ROOT
ATOM      1  C   LIG A   1      -5.411   1.539 131.765  0.00  0.00    +0.012 C 
ATOM      2  C   LIG A   1      -6.255   2.044 130.590  0.00  0.00    +0.037 C 
ATOM      3  C   LIG A   1      -7.575   1.241 130.498  0.00  0.00    +0.221 C 
ATOM      4  C   LIG A   1      -7.423  -0.145 129.855  0.00  0.00    +0.234 C 
ATOM      5  C   LIG A   1      -6.661  -0.245 128.490  0.00  0.00    +0.104 C 
ATOM      6  C   LIG A   1      -7.624  -0.409 127.284  0.00  0.00    +0.013 C 
ATOM      7  C   LIG A   1      -7.651  -1.864 126.864  0.00  0.00    +0.343 C 
ATOM      8  O   LIG A   1      -6.362  -2.336 127.229  0.00  0.00    -0.297 OA
ATOM      9  C   LIG A   1      -6.058  -1.726 128.469  0.00  0.00    +0.328 C 
ATOM     10  C   LIG A   1      -7.952   0.552 126.403  0.00  0.00    +0.010 C 
ATOM     11  C   LIG A   1      -7.048   1.723 126.230  0.00  0.00    +0.138 C 
ATOM     12  C   LIG A   1      -5.636   1.378 126.749  0.00  0.00    +0.040 C 
ATOM     13  C   LIG A   1      -5.610   0.945 128.248  0.00  0.00    +0.018 C 
ATOM     14  C   LIG A   1      -5.536   2.242 129.220  0.00  0.00    -0.018 C 
ATOM     15  C   LIG A   1      -6.166   3.524 128.590  0.00  0.00    +0.012 C 
ENDROOT
BRANCH  11  16
ATOM     16  O   LIG A   1      -6.954   2.014 124.839  0.00  0.00    -0.388 OA
ATOM     17  H   LIG A   1      -7.755   1.661 124.419  0.00  0.00    +0.210 HD
ENDBRANCH  11  16
BRANCH   4  18
ATOM     18  O   LIG A   1      -6.701  -0.899 130.891  0.00  0.00    -0.457 OA
BRANCH  18  19
ATOM     19  C   LIG A   1      -7.451  -1.506 131.861  0.00  0.00    +0.304 C 
ATOM     20  C   LIG A   1      -7.534  -2.984 131.599  0.00  0.00    +0.136 C 
ATOM     21  O   LIG A   1      -7.864  -0.956 132.864  0.00  0.00    -0.251 OA
ENDBRANCH  18  19
ENDBRANCH   4  18
BRANCH   7  22
ATOM     22  O   LIG A   1      -7.883  -2.140 125.480  0.00  0.00    -0.431 OA
BRANCH  22  23
ATOM     23  C   LIG A   1      -9.061  -2.758 125.180  0.00  0.00    +0.306 C 
ATOM     24  C   LIG A   1      -9.044  -3.324 123.807  0.00  0.00    +0.136 C 
ATOM     25  O   LIG A   1     -10.080  -2.786 125.875  0.00  0.00    -0.251 OA
ENDBRANCH  22  23
ENDBRANCH   7  22
BRANCH   9  26
ATOM     26  O   LIG A   1      -4.671  -1.772 128.776  0.00  0.00    -0.434 OA
BRANCH  26  27
ATOM     27  C   LIG A   1      -4.364  -2.784 129.666  0.00  0.00    +0.306 C 
ATOM     28  C   LIG A   1      -3.506  -2.178 130.757  0.00  0.00    +0.136 C 
ATOM     29  O   LIG A   1      -4.766  -3.919 129.668  0.00  0.00    -0.251 OA
ENDBRANCH  26  27
ENDBRANCH   9  26
BRANCH  14  30
ATOM     30  C   LIG A   1      -3.998   2.605 129.415  0.00  0.00    +0.034 C 
BRANCH  30  31
ATOM     31  C   LIG A   1      -3.564   4.055 129.200  0.00  0.00    -0.023 C 
ATOM     32  C   LIG A   1      -2.953   4.570 128.113  0.00  0.00    -0.055 C 
ATOM     33  C   LIG A   1      -2.455   5.999 128.084  0.00  0.00    +0.043 C 
BRANCH  32  34
ATOM     34  C   LIG A   1      -2.720   3.745 126.945  0.00  0.00    -0.005 C 
ATOM     35  C   LIG A   1      -1.591   3.077 126.689  0.00  0.00    +0.008 C 
ENDBRANCH  32  34
ENDBRANCH  30  31
ENDBRANCH  14  30
BRANCH   3  36
ATOM     36  O   LIG A   1      -8.632   2.067 129.981  0.00  0.00    -0.457 OA
BRANCH  36  37
ATOM     37  C   LIG A   1      -9.576   2.298 130.960  0.00  0.00    +0.307 C 
ATOM     38  O   LIG A   1      -9.742   1.568 131.934  0.00  0.00    -0.251 OA
BRANCH  37  39
ATOM     39  C   LIG A   1     -10.342   3.575 130.736  0.00  0.00    +0.120 C 
BRANCH  39  40
ATOM     40  C   LIG A   1      -9.435   4.812 130.868  0.00  0.00    +0.011 C 
BRANCH  40  41
ATOM     41  C   LIG A   1      -9.630   5.806 129.713  0.00  0.00    +0.000 C 
BRANCH  41  42
ATOM     42  C   LIG A   1     -10.269   7.111 130.155  0.00  0.00    +0.000 C 
BRANCH  42  43
ATOM     43  C   LIG A   1     -11.433   6.899 131.123  0.00  0.00    -0.000 C 
BRANCH  43  44
ATOM     44  C   LIG A   1     -12.791   7.456 130.689  0.00  0.00    -0.000 C 
BRANCH  44  45
ATOM     45  C   LIG A   1     -12.700   8.600 129.667  0.00  0.00    -0.000 C 
BRANCH  45  46
ATOM     46  C   LIG A   1     -13.377   8.384 128.306  0.00  0.00    -0.003 C 
ATOM     47  C   LIG A   1     -13.029   7.121 127.529  0.00  0.00    +0.004 C 
ENDBRANCH  45  46
ENDBRANCH  44  45
ENDBRANCH  43  44
ENDBRANCH  42  43
ENDBRANCH  41  42
ENDBRANCH  40  41
ENDBRANCH  39  40
ENDBRANCH  37  39
ENDBRANCH  36  37
ENDBRANCH   3  36
TORSDOF 20
ENDMDL
MODEL 6
REMARK VINA RESULT:      -6.8      1.420      2.901
REMARK  Name = NuBBE_223
REMARK  27 active torsions:
REMARK  status: ('A' for Active; 'I' for Inactive)
REMARK    1  A    between atoms: C_1  and  C_2
REMARK    2  A    between atoms: C_4  and  O_6
REMARK    3  A    between atoms: O_6  and  C_7
REMARK    4  A    between atoms: C_7  and  C_8
REMARK    5  A    between atoms: C_8  and  C_9
REMARK    6  A    between atoms: C_9  and  C_10
REMARK    7  A    between atoms: C_10  and  C_11
REMARK    8  A    between atoms: C_11  and  C_12
REMARK    9  A    between atoms: C_12  and  C_13
REMARK   10  A    between atoms: C_13  and  C_14
REMARK   11  A    between atoms: C_14  and  C_15
REMARK   12  A    between atoms: C_15  and  C_16
REMARK   13  A    between atoms: C_18  and  O_20
REMARK   14  A    between atoms: O_20  and  C_21
REMARK   15  A    between atoms: C_21  and  C_22
REMARK   16  A    between atoms: C_26  and  O_28
REMARK   17  A    between atoms: O_28  and  C_29
REMARK   18  A    between atoms: C_29  and  C_30
REMARK   19  A    between atoms: C_33  and  O_35
REMARK   20  A    between atoms: O_35  and  C_36
REMARK   21  A    between atoms: C_36  and  C_37
REMARK   22  A    between atoms: C_40  and  O_42
REMARK   23  A    between atoms: C_46  and  C_47
REMARK   24  A    between atoms: C_46  and  C_48
REMARK   25  A    between atoms: C_48  and  C_49
REMARK   26  A    between atoms: C_50  and  C_51
REMARK   27  A    between atoms: C_50  and  C_53
REMARK                            x       y       z     vdW  Elec       q    Type
REMARK                         _______ _______ _______ _____ _____    ______ ____
ROOT
ATOM      1  C   LIG A   1      -5.058   1.127 127.783  0.00  0.00    +0.012 C 
ATOM      2  C   LIG A   1      -6.487   0.980 128.316  0.00  0.00    +0.037 C 
ATOM      3  C   LIG A   1      -7.446   1.912 127.536  0.00  0.00    +0.221 C 
ATOM      4  C   LIG A   1      -7.384   3.383 127.971  0.00  0.00    +0.234 C 
ATOM      5  C   LIG A   1      -7.482   3.705 129.501  0.00  0.00    +0.104 C 
ATOM      6  C   LIG A   1      -8.887   4.226 129.907  0.00  0.00    +0.013 C 
ATOM      7  C   LIG A   1      -8.836   5.733 130.051  0.00  0.00    +0.343 C 
ATOM      8  O   LIG A   1      -7.490   5.982 130.433  0.00  0.00    -0.297 OA
ATOM      9  C   LIG A   1      -6.697   5.086 129.677  0.00  0.00    +0.328 C 
ATOM     10  C   LIG A   1      -9.830   3.520 130.556  0.00  0.00    +0.010 C 
ATOM     11  C   LIG A   1      -9.430   2.331 131.359  0.00  0.00    +0.138 C 
ATOM     12  C   LIG A   1      -7.926   2.411 131.702  0.00  0.00    +0.040 C 
ATOM     13  C   LIG A   1      -7.003   2.499 130.447  0.00  0.00    +0.018 C 
ATOM     14  C   LIG A   1      -6.684   1.019 129.863  0.00  0.00    -0.018 C 
ATOM     15  C   LIG A   1      -7.804  -0.024 130.175  0.00  0.00    +0.012 C 
ENDROOT
BRANCH  11  16
ATOM     16  O   LIG A   1     -10.167   2.346 132.577  0.00  0.00    -0.388 OA
ATOM     17  H   LIG A   1     -10.903   1.720 132.473  0.00  0.00    +0.210 HD
ENDBRANCH  11  16
BRANCH   4  18
ATOM     18  O   LIG A   1      -6.078   3.815 127.449  0.00  0.00    -0.457 OA
BRANCH  18  19
ATOM     19  C   LIG A   1      -6.065   4.432 126.229  0.00  0.00    +0.304 C 
ATOM     20  C   LIG A   1      -4.940   3.892 125.390  0.00  0.00    +0.136 C 
ATOM     21  O   LIG A   1      -6.923   5.196 125.827  0.00  0.00    -0.251 OA
ENDBRANCH  18  19
ENDBRANCH   4  18
BRANCH   7  22
ATOM     22  O   LIG A   1      -9.718   6.329 131.006  0.00  0.00    -0.431 OA
BRANCH  22  23
ATOM     23  C   LIG A   1     -10.738   7.077 130.496  0.00  0.00    +0.306 C 
ATOM     24  C   LIG A   1     -12.018   6.796 131.195  0.00  0.00    +0.136 C 
ATOM     25  O   LIG A   1     -10.689   7.825 129.517  0.00  0.00    -0.251 OA
ENDBRANCH  22  23
ENDBRANCH   7  22
BRANCH   9  26
ATOM     26  O   LIG A   1      -5.391   4.925 130.215  0.00  0.00    -0.434 OA
BRANCH  26  27
ATOM     27  C   LIG A   1      -4.428   5.562 129.455  0.00  0.00    +0.306 C 
ATOM     28  C   LIG A   1      -3.242   4.625 129.356  0.00  0.00    +0.136 C 
ATOM     29  O   LIG A   1      -4.514   6.615 128.878  0.00  0.00    -0.251 OA
ENDBRANCH  26  27
ENDBRANCH   9  26
BRANCH  14  30
ATOM     30  C   LIG A   1      -5.401   0.470 130.630  0.00  0.00    +0.034 C 
BRANCH  30  31
ATOM     31  C   LIG A   1      -4.450   1.484 131.265  0.00  0.00    -0.023 C 
ATOM     32  C   LIG A   1      -3.773   1.351 132.425  0.00  0.00    -0.055 C 
ATOM     33  C   LIG A   1      -2.964   2.489 133.008  0.00  0.00    +0.043 C 
BRANCH  32  34
ATOM     34  C   LIG A   1      -3.837   0.110 133.171  0.00  0.00    -0.005 C 
ATOM     35  C   LIG A   1      -2.965  -0.898 133.061  0.00  0.00    +0.008 C 
ENDBRANCH  32  34
ENDBRANCH  30  31
ENDBRANCH  14  30
BRANCH   3  36
ATOM     36  O   LIG A   1      -8.757   1.330 127.455  0.00  0.00    -0.457 OA
BRANCH  36  37
ATOM     37  C   LIG A   1      -9.133   1.188 126.135  0.00  0.00    +0.307 C 
ATOM     38  O   LIG A   1      -9.118   2.106 125.319  0.00  0.00    -0.251 OA
BRANCH  37  39
ATOM     39  C   LIG A   1      -9.508  -0.228 125.789  0.00  0.00    +0.120 C 
BRANCH  39  40
ATOM     40  C   LIG A   1      -8.410  -1.224 126.202  0.00  0.00    +0.011 C 
BRANCH  40  41
ATOM     41  C   LIG A   1      -8.872  -2.684 126.091  0.00  0.00    +0.000 C 
BRANCH  41  42
ATOM     42  C   LIG A   1      -8.795  -3.434 127.410  0.00  0.00    +0.000 C 
BRANCH  42  43
ATOM     43  C   LIG A   1      -7.592  -3.016 128.255  0.00  0.00    -0.000 C 
BRANCH  43  44
ATOM     44  C   LIG A   1      -7.561  -3.526 129.698  0.00  0.00    -0.000 C 
BRANCH  44  45
ATOM     45  C   LIG A   1      -6.178  -4.012 130.160  0.00  0.00    -0.000 C 
BRANCH  45  46
ATOM     46  C   LIG A   1      -4.998  -3.045 129.987  0.00  0.00    -0.003 C 
ATOM     47  C   LIG A   1      -3.873  -3.455 129.046  0.00  0.00    +0.004 C 
ENDBRANCH  45  46
ENDBRANCH  44  45
ENDBRANCH  43  44
ENDBRANCH  42  43
ENDBRANCH  41  42
ENDBRANCH  40  41
ENDBRANCH  39  40
ENDBRANCH  37  39
ENDBRANCH  36  37
ENDBRANCH   3  36
TORSDOF 20
ENDMDL
MODEL 7
REMARK VINA RESULT:      -6.8      2.203      5.823
REMARK  Name = NuBBE_223
REMARK  27 active torsions:
REMARK  status: ('A' for Active; 'I' for Inactive)
REMARK    1  A    between atoms: C_1  and  C_2
REMARK    2  A    between atoms: C_4  and  O_6
REMARK    3  A    between atoms: O_6  and  C_7
REMARK    4  A    between atoms: C_7  and  C_8
REMARK    5  A    between atoms: C_8  and  C_9
REMARK    6  A    between atoms: C_9  and  C_10
REMARK    7  A    between atoms: C_10  and  C_11
REMARK    8  A    between atoms: C_11  and  C_12
REMARK    9  A    between atoms: C_12  and  C_13
REMARK   10  A    between atoms: C_13  and  C_14
REMARK   11  A    between atoms: C_14  and  C_15
REMARK   12  A    between atoms: C_15  and  C_16
REMARK   13  A    between atoms: C_18  and  O_20
REMARK   14  A    between atoms: O_20  and  C_21
REMARK   15  A    between atoms: C_21  and  C_22
REMARK   16  A    between atoms: C_26  and  O_28
REMARK   17  A    between atoms: O_28  and  C_29
REMARK   18  A    between atoms: C_29  and  C_30
REMARK   19  A    between atoms: C_33  and  O_35
REMARK   20  A    between atoms: O_35  and  C_36
REMARK   21  A    between atoms: C_36  and  C_37
REMARK   22  A    between atoms: C_40  and  O_42
REMARK   23  A    between atoms: C_46  and  C_47
REMARK   24  A    between atoms: C_46  and  C_48
REMARK   25  A    between atoms: C_48  and  C_49
REMARK   26  A    between atoms: C_50  and  C_51
REMARK   27  A    between atoms: C_50  and  C_53
REMARK                            x       y       z     vdW  Elec       q    Type
REMARK                         _______ _______ _______ _____ _____    ______ ____
ROOT
ATOM      1  C   LIG A   1      -7.966   1.180 129.264  0.00  0.00    +0.012 C 
ATOM      2  C   LIG A   1      -6.458   1.393 129.104  0.00  0.00    +0.037 C 
ATOM      3  C   LIG A   1      -5.797   1.589 130.490  0.00  0.00    +0.221 C 
ATOM      4  C   LIG A   1      -5.981   2.994 131.080  0.00  0.00    +0.234 C 
ATOM      5  C   LIG A   1      -5.649   4.226 130.170  0.00  0.00    +0.104 C 
ATOM      6  C   LIG A   1      -4.280   4.868 130.519  0.00  0.00    +0.013 C 
ATOM      7  C   LIG A   1      -4.512   6.113 131.351  0.00  0.00    +0.343 C 
ATOM      8  O   LIG A   1      -5.786   6.567 130.916  0.00  0.00    -0.297 OA
ATOM      9  C   LIG A   1      -6.573   5.405 130.729  0.00  0.00    +0.328 C 
ATOM     10  C   LIG A   1      -3.145   4.735 129.810  0.00  0.00    +0.010 C 
ATOM     11  C   LIG A   1      -3.222   4.350 128.373  0.00  0.00    +0.138 C 
ATOM     12  C   LIG A   1      -4.634   4.651 127.824  0.00  0.00    +0.040 C 
ATOM     13  C   LIG A   1      -5.775   3.921 128.599  0.00  0.00    +0.018 C 
ATOM     14  C   LIG A   1      -5.987   2.417 128.026  0.00  0.00    -0.018 C 
ATOM     15  C   LIG A   1      -4.696   1.808 127.395  0.00  0.00    +0.012 C 
ENDROOT
BRANCH  11  16
ATOM     16  O   LIG A   1      -2.283   5.137 127.648  0.00  0.00    -0.388 OA
ATOM     17  H   LIG A   1      -2.375   6.052 127.963  0.00  0.00    +0.210 HD
ENDBRANCH  11  16
BRANCH   4  18
ATOM     18  O   LIG A   1      -7.407   3.004 131.439  0.00  0.00    -0.457 OA
BRANCH  18  19
ATOM     19  C   LIG A   1      -7.741   2.562 132.690  0.00  0.00    +0.304 C 
ATOM     20  C   LIG A   1      -6.819   3.166 133.713  0.00  0.00    +0.136 C 
ATOM     21  O   LIG A   1      -8.726   1.897 132.952  0.00  0.00    -0.251 OA
ENDBRANCH  18  19
ENDBRANCH   4  18
BRANCH   7  22
ATOM     22  O   LIG A   1      -3.561   7.173 131.220  0.00  0.00    -0.431 OA
BRANCH  22  23
ATOM     23  C   LIG A   1      -2.969   7.594 132.374  0.00  0.00    +0.306 C 
ATOM     24  C   LIG A   1      -3.479   6.845 133.551  0.00  0.00    +0.136 C 
ATOM     25  O   LIG A   1      -2.186   8.539 132.502  0.00  0.00    -0.251 OA
ENDBRANCH  22  23
ENDBRANCH   7  22
BRANCH   9  26
ATOM     26  O   LIG A   1      -7.722   5.645 129.930  0.00  0.00    -0.434 OA
BRANCH  26  27
ATOM     27  C   LIG A   1      -8.564   6.589 130.488  0.00  0.00    +0.306 C 
ATOM     28  C   LIG A   1      -8.851   6.150 131.909  0.00  0.00    +0.136 C 
ATOM     29  O   LIG A   1      -8.935   7.629 130.009  0.00  0.00    -0.251 OA
ENDBRANCH  26  27
ENDBRANCH   9  26
BRANCH  14  30
ATOM     30  C   LIG A   1      -7.019   2.510 126.817  0.00  0.00    +0.034 C 
BRANCH  30  31
ATOM     31  C   LIG A   1      -6.759   1.655 125.577  0.00  0.00    -0.023 C 
ATOM     32  C   LIG A   1      -7.650   0.888 124.914  0.00  0.00    -0.055 C 
ATOM     33  C   LIG A   1      -7.229  -0.017 123.776  0.00  0.00    +0.043 C 
BRANCH  32  34
ATOM     34  C   LIG A   1      -9.045   0.881 125.308  0.00  0.00    -0.005 C 
ATOM     35  C   LIG A   1     -10.059   1.309 124.549  0.00  0.00    +0.008 C 
ENDBRANCH  32  34
ENDBRANCH  30  31
ENDBRANCH  14  30
BRANCH   3  36
ATOM     36  O   LIG A   1      -4.454   1.075 130.484  0.00  0.00    -0.457 OA
BRANCH  36  37
ATOM     37  C   LIG A   1      -4.369  -0.036 131.297  0.00  0.00    +0.307 C 
ATOM     38  O   LIG A   1      -4.471   0.003 132.520  0.00  0.00    -0.251 OA
BRANCH  37  39
ATOM     39  C   LIG A   1      -4.193  -1.312 130.516  0.00  0.00    +0.120 C 
BRANCH  39  40
ATOM     40  C   LIG A   1      -5.422  -2.230 130.644  0.00  0.00    +0.011 C 
BRANCH  40  41
ATOM     41  C   LIG A   1      -5.885  -2.780 129.287  0.00  0.00    +0.000 C 
BRANCH  41  42
ATOM     42  C   LIG A   1      -5.221  -2.090 128.108  0.00  0.00    +0.000 C 
BRANCH  42  43
ATOM     43  C   LIG A   1      -6.207  -1.762 126.987  0.00  0.00    -0.000 C 
BRANCH  43  44
ATOM     44  C   LIG A   1      -7.689  -1.983 127.297  0.00  0.00    -0.000 C 
BRANCH  44  45
ATOM     45  C   LIG A   1      -8.322  -3.152 126.525  0.00  0.00    -0.000 C 
BRANCH  45  46
ATOM     46  C   LIG A   1      -9.408  -2.811 125.495  0.00  0.00    -0.003 C 
ATOM     47  C   LIG A   1      -9.166  -3.208 124.045  0.00  0.00    +0.004 C 
ENDBRANCH  45  46
ENDBRANCH  44  45
ENDBRANCH  43  44
ENDBRANCH  42  43
ENDBRANCH  41  42
ENDBRANCH  40  41
ENDBRANCH  39  40
ENDBRANCH  37  39
ENDBRANCH  36  37
ENDBRANCH   3  36
TORSDOF 20
ENDMDL
MODEL 8
REMARK VINA RESULT:      -6.8      2.165      5.809
REMARK  Name = NuBBE_223
REMARK  27 active torsions:
REMARK  status: ('A' for Active; 'I' for Inactive)
REMARK    1  A    between atoms: C_1  and  C_2
REMARK    2  A    between atoms: C_4  and  O_6
REMARK    3  A    between atoms: O_6  and  C_7
REMARK    4  A    between atoms: C_7  and  C_8
REMARK    5  A    between atoms: C_8  and  C_9
REMARK    6  A    between atoms: C_9  and  C_10
REMARK    7  A    between atoms: C_10  and  C_11
REMARK    8  A    between atoms: C_11  and  C_12
REMARK    9  A    between atoms: C_12  and  C_13
REMARK   10  A    between atoms: C_13  and  C_14
REMARK   11  A    between atoms: C_14  and  C_15
REMARK   12  A    between atoms: C_15  and  C_16
REMARK   13  A    between atoms: C_18  and  O_20
REMARK   14  A    between atoms: O_20  and  C_21
REMARK   15  A    between atoms: C_21  and  C_22
REMARK   16  A    between atoms: C_26  and  O_28
REMARK   17  A    between atoms: O_28  and  C_29
REMARK   18  A    between atoms: C_29  and  C_30
REMARK   19  A    between atoms: C_33  and  O_35
REMARK   20  A    between atoms: O_35  and  C_36
REMARK   21  A    between atoms: C_36  and  C_37
REMARK   22  A    between atoms: C_40  and  O_42
REMARK   23  A    between atoms: C_46  and  C_47
REMARK   24  A    between atoms: C_46  and  C_48
REMARK   25  A    between atoms: C_48  and  C_49
REMARK   26  A    between atoms: C_50  and  C_51
REMARK   27  A    between atoms: C_50  and  C_53
REMARK                            x       y       z     vdW  Elec       q    Type
REMARK                         _______ _______ _______ _____ _____    ______ ____
ROOT
ATOM      1  C   LIG A   1      -8.858   1.407 127.940  0.00  0.00    +0.012 C 
ATOM      2  C   LIG A   1      -7.429   1.242 127.413  0.00  0.00    +0.037 C 
ATOM      3  C   LIG A   1      -6.497   0.745 128.544  0.00  0.00    +0.221 C 
ATOM      4  C   LIG A   1      -6.060   1.842 129.525  0.00  0.00    +0.234 C 
ATOM      5  C   LIG A   1      -5.488   3.176 128.934  0.00  0.00    +0.104 C 
ATOM      6  C   LIG A   1      -3.941   3.252 129.031  0.00  0.00    +0.013 C 
ATOM      7  C   LIG A   1      -3.560   4.133 130.203  0.00  0.00    +0.343 C 
ATOM      8  O   LIG A   1      -4.648   5.041 130.300  0.00  0.00    -0.297 OA
ATOM      9  C   LIG A   1      -5.815   4.284 130.039  0.00  0.00    +0.328 C 
ATOM     10  C   LIG A   1      -3.079   3.075 128.014  0.00  0.00    +0.010 C 
ATOM     11  C   LIG A   1      -3.552   3.262 126.614  0.00  0.00    +0.138 C 
ATOM     12  C   LIG A   1      -4.842   4.111 126.605  0.00  0.00    +0.040 C 
ATOM     13  C   LIG A   1      -6.003   3.495 127.446  0.00  0.00    +0.018 C 
ATOM     14  C   LIG A   1      -6.835   2.412 126.569  0.00  0.00    -0.018 C 
ATOM     15  C   LIG A   1      -5.983   1.739 125.448  0.00  0.00    +0.012 C 
ENDROOT
BRANCH  11  16
ATOM     16  O   LIG A   1      -2.547   3.967 125.893  0.00  0.00    -0.388 OA
ATOM     17  H   LIG A   1      -2.104   4.557 126.524  0.00  0.00    +0.210 HD
ENDBRANCH  11  16
BRANCH   4  18
ATOM     18  O   LIG A   1      -7.297   2.113 130.272  0.00  0.00    -0.457 OA
BRANCH  18  19
ATOM     19  C   LIG A   1      -7.559   1.322 131.357  0.00  0.00    +0.304 C 
ATOM     20  C   LIG A   1      -6.373   1.303 132.280  0.00  0.00    +0.136 C 
ATOM     21  O   LIG A   1      -8.642   0.826 131.610  0.00  0.00    -0.251 OA
ENDBRANCH  18  19
ENDBRANCH   4  18
BRANCH   7  22
ATOM     22  O   LIG A   1      -2.337   4.867 130.098  0.00  0.00    -0.431 OA
BRANCH  22  23
ATOM     23  C   LIG A   1      -2.459   6.212 129.904  0.00  0.00    +0.306 C 
ATOM     24  C   LIG A   1      -2.266   6.575 128.477  0.00  0.00    +0.136 C 
ATOM     25  O   LIG A   1      -2.605   7.075 130.773  0.00  0.00    -0.251 OA
ENDBRANCH  22  23
ENDBRANCH   7  22
BRANCH   9  26
ATOM     26  O   LIG A   1      -6.932   5.096 129.707  0.00  0.00    -0.434 OA
BRANCH  26  27
ATOM     27  C   LIG A   1      -7.635   5.506 130.825  0.00  0.00    +0.306 C 
ATOM     28  C   LIG A   1      -7.388   6.991 130.991  0.00  0.00    +0.136 C 
ATOM     29  O   LIG A   1      -8.393   4.861 131.502  0.00  0.00    -0.251 OA
ENDBRANCH  26  27
ENDBRANCH   9  26
BRANCH  14  30
ATOM     30  C   LIG A   1      -7.973   3.206 125.788  0.00  0.00    +0.034 C 
BRANCH  30  31
ATOM     31  C   LIG A   1      -7.789   3.444 124.289  0.00  0.00    -0.023 C 
ATOM     32  C   LIG A   1      -8.468   2.857 123.282  0.00  0.00    -0.055 C 
ATOM     33  C   LIG A   1      -8.095   3.085 121.833  0.00  0.00    +0.043 C 
BRANCH  32  34
ATOM     34  C   LIG A   1      -9.563   1.951 123.567  0.00  0.00    -0.005 C 
ATOM     35  C   LIG A   1      -9.792   0.798 122.930  0.00  0.00    +0.008 C 
ENDBRANCH  32  34
ENDBRANCH  30  31
ENDBRANCH  14  30
BRANCH   3  36
ATOM     36  O   LIG A   1      -5.449  -0.079 128.007  0.00  0.00    -0.457 OA
BRANCH  36  37
ATOM     37  C   LIG A   1      -5.607  -1.383 128.429  0.00  0.00    +0.307 C 
ATOM     38  O   LIG A   1      -5.192  -1.808 129.504  0.00  0.00    -0.251 OA
BRANCH  37  39
ATOM     39  C   LIG A   1      -6.395  -2.215 127.452  0.00  0.00    +0.120 C 
BRANCH  39  40
ATOM     40  C   LIG A   1      -7.680  -2.774 128.090  0.00  0.00    +0.011 C 
BRANCH  40  41
ATOM     41  C   LIG A   1      -8.675  -3.295 127.042  0.00  0.00    +0.000 C 
BRANCH  41  42
ATOM     42  C   LIG A   1      -8.921  -2.308 125.914  0.00  0.00    +0.000 C 
BRANCH  42  43
ATOM     43  C   LIG A   1      -9.249  -2.997 124.590  0.00  0.00    -0.000 C 
BRANCH  43  44
ATOM     44  C   LIG A   1      -8.311  -2.701 123.416  0.00  0.00    -0.000 C 
BRANCH  44  45
ATOM     45  C   LIG A   1      -7.173  -1.726 123.757  0.00  0.00    -0.000 C 
BRANCH  45  46
ATOM     46  C   LIG A   1      -5.735  -2.219 123.542  0.00  0.00    -0.003 C 
ATOM     47  C   LIG A   1      -5.362  -3.591 124.090  0.00  0.00    +0.004 C 
ENDBRANCH  45  46
ENDBRANCH  44  45
ENDBRANCH  43  44
ENDBRANCH  42  43
ENDBRANCH  41  42
ENDBRANCH  40  41
ENDBRANCH  39  40
ENDBRANCH  37  39
ENDBRANCH  36  37
ENDBRANCH   3  36
TORSDOF 20
ENDMDL
MODEL 9
REMARK VINA RESULT:      -6.7      2.522      3.786
REMARK  Name = NuBBE_223
REMARK  27 active torsions:
REMARK  status: ('A' for Active; 'I' for Inactive)
REMARK    1  A    between atoms: C_1  and  C_2
REMARK    2  A    between atoms: C_4  and  O_6
REMARK    3  A    between atoms: O_6  and  C_7
REMARK    4  A    between atoms: C_7  and  C_8
REMARK    5  A    between atoms: C_8  and  C_9
REMARK    6  A    between atoms: C_9  and  C_10
REMARK    7  A    between atoms: C_10  and  C_11
REMARK    8  A    between atoms: C_11  and  C_12
REMARK    9  A    between atoms: C_12  and  C_13
REMARK   10  A    between atoms: C_13  and  C_14
REMARK   11  A    between atoms: C_14  and  C_15
REMARK   12  A    between atoms: C_15  and  C_16
REMARK   13  A    between atoms: C_18  and  O_20
REMARK   14  A    between atoms: O_20  and  C_21
REMARK   15  A    between atoms: C_21  and  C_22
REMARK   16  A    between atoms: C_26  and  O_28
REMARK   17  A    between atoms: O_28  and  C_29
REMARK   18  A    between atoms: C_29  and  C_30
REMARK   19  A    between atoms: C_33  and  O_35
REMARK   20  A    between atoms: O_35  and  C_36
REMARK   21  A    between atoms: C_36  and  C_37
REMARK   22  A    between atoms: C_40  and  O_42
REMARK   23  A    between atoms: C_46  and  C_47
REMARK   24  A    between atoms: C_46  and  C_48
REMARK   25  A    between atoms: C_48  and  C_49
REMARK   26  A    between atoms: C_50  and  C_51
REMARK   27  A    between atoms: C_50  and  C_53
REMARK                            x       y       z     vdW  Elec       q    Type
REMARK                         _______ _______ _______ _____ _____    ______ ____
ROOT
ATOM      1  C   LIG A   1      -4.321   0.497 130.419  0.00  0.00    +0.012 C 
ATOM      2  C   LIG A   1      -5.711   0.521 131.062  0.00  0.00    +0.037 C 
ATOM      3  C   LIG A   1      -6.805   0.556 129.967  0.00  0.00    +0.221 C 
ATOM      4  C   LIG A   1      -7.020   1.939 129.337  0.00  0.00    +0.234 C 
ATOM      5  C   LIG A   1      -7.210   3.164 130.297  0.00  0.00    +0.104 C 
ATOM      6  C   LIG A   1      -8.694   3.602 130.410  0.00  0.00    +0.013 C 
ATOM      7  C   LIG A   1      -8.920   4.821 129.538  0.00  0.00    +0.343 C 
ATOM      8  O   LIG A   1      -7.651   5.460 129.530  0.00  0.00    -0.297 OA
ATOM      9  C   LIG A   1      -6.691   4.422 129.458  0.00  0.00    +0.328 C 
ATOM     10  C   LIG A   1      -9.509   3.361 131.452  0.00  0.00    +0.010 C 
ATOM     11  C   LIG A   1      -8.919   3.066 132.787  0.00  0.00    +0.138 C 
ATOM     12  C   LIG A   1      -7.463   3.577 132.842  0.00  0.00    +0.040 C 
ATOM     13  C   LIG A   1      -6.542   2.961 131.743  0.00  0.00    +0.018 C 
ATOM     14  C   LIG A   1      -5.947   1.531 132.227  0.00  0.00    -0.018 C 
ATOM     15  C   LIG A   1      -6.867   0.792 133.250  0.00  0.00    +0.012 C 
ENDROOT
BRANCH  11  16
ATOM     16  O   LIG A   1      -9.675   3.761 133.773  0.00  0.00    -0.388 OA
ATOM     17  H   LIG A   1     -10.530   3.987 133.371  0.00  0.00    +0.210 HD
ENDBRANCH  11  16
BRANCH   4  18
ATOM     18  O   LIG A   1      -5.802   2.116 128.532  0.00  0.00    -0.457 OA
BRANCH  18  19
ATOM     19  C   LIG A   1      -5.921   1.968 127.178  0.00  0.00    +0.304 C 
ATOM     20  C   LIG A   1      -5.246   0.698 126.736  0.00  0.00    +0.136 C 
ATOM     21  O   LIG A   1      -6.597   2.679 126.458  0.00  0.00    -0.251 OA
ENDBRANCH  18  19
ENDBRANCH   4  18
BRANCH   7  22
ATOM     22  O   LIG A   1      -9.917   5.754 129.965  0.00  0.00    -0.431 OA
BRANCH  22  23
ATOM     23  C   LIG A   1     -10.317   6.670 129.037  0.00  0.00    +0.306 C 
ATOM     24  C   LIG A   1     -11.233   7.678 129.630  0.00  0.00    +0.136 C 
ATOM     25  O   LIG A   1     -10.071   6.656 127.829  0.00  0.00    -0.251 OA
ENDBRANCH  22  23
ENDBRANCH   7  22
BRANCH   9  26
ATOM     26  O   LIG A   1      -5.391   4.852 129.836  0.00  0.00    -0.434 OA
BRANCH  26  27
ATOM     27  C   LIG A   1      -4.573   5.076 128.744  0.00  0.00    +0.306 C 
ATOM     28  C   LIG A   1      -3.231   4.443 129.050  0.00  0.00    +0.136 C 
ATOM     29  O   LIG A   1      -4.863   5.580 127.690  0.00  0.00    -0.251 OA
ENDBRANCH  26  27
ENDBRANCH   9  26
BRANCH  14  30
ATOM     30  C   LIG A   1      -4.605   1.820 133.031  0.00  0.00    +0.034 C 
BRANCH  30  31
ATOM     31  C   LIG A   1      -4.393   1.107 134.366  0.00  0.00    -0.023 C 
ATOM     32  C   LIG A   1      -3.541   0.092 134.622  0.00  0.00    -0.055 C 
ATOM     33  C   LIG A   1      -3.526  -0.614 135.960  0.00  0.00    +0.043 C 
BRANCH  32  34
ATOM     34  C   LIG A   1      -2.634  -0.378 133.594  0.00  0.00    -0.005 C 
ATOM     35  C   LIG A   1      -1.598  -1.198 133.800  0.00  0.00    +0.008 C 
ENDBRANCH  32  34
ENDBRANCH  30  31
ENDBRANCH  14  30
BRANCH   3  36
ATOM     36  O   LIG A   1      -7.987  -0.128 130.415  0.00  0.00    -0.457 OA
BRANCH  36  37
ATOM     37  C   LIG A   1      -7.790  -1.493 130.374  0.00  0.00    +0.307 C 
ATOM     38  O   LIG A   1      -7.806  -2.215 131.367  0.00  0.00    -0.251 OA
BRANCH  37  39
ATOM     39  C   LIG A   1      -7.611  -2.010 128.971  0.00  0.00    +0.120 C 
BRANCH  39  40
ATOM     40  C   LIG A   1      -8.024  -3.488 128.853  0.00  0.00    +0.011 C 
BRANCH  40  41
ATOM     41  C   LIG A   1      -8.891  -3.755 127.613  0.00  0.00    +0.000 C 
BRANCH  41  42
ATOM     42  C   LIG A   1      -8.699  -2.719 126.519  0.00  0.00    +0.000 C 
BRANCH  42  43
ATOM     43  C   LIG A   1      -8.909  -3.297 125.119  0.00  0.00    -0.000 C 
BRANCH  43  44
ATOM     44  C   LIG A   1      -7.657  -3.790 124.390  0.00  0.00    -0.000 C 
BRANCH  44  45
ATOM     45  C   LIG A   1      -6.390  -2.977 124.702  0.00  0.00    -0.000 C 
BRANCH  45  46
ATOM     46  C   LIG A   1      -5.218  -3.092 123.716  0.00  0.00    -0.003 C 
ATOM     47  C   LIG A   1      -4.364  -4.351 123.769  0.00  0.00    +0.004 C 
ENDBRANCH  45  46
ENDBRANCH  44  45
ENDBRANCH  43  44
ENDBRANCH  42  43
ENDBRANCH  41  42
ENDBRANCH  40  41
ENDBRANCH  39  40
ENDBRANCH  37  39
ENDBRANCH  36  37
ENDBRANCH   3  36
TORSDOF 20
ENDMDL
