MODEL 1
REMARK VINA RESULT:      -6.6      0.000      0.000
REMARK  Name = NuBBE_1445
REMARK  12 active torsions:
REMARK  status: ('A' for Active; 'I' for Inactive)
REMARK    1  A    between atoms: C_1  and  O_2
REMARK    2  A    between atoms: O_2  and  C_3
REMARK    3  A    between atoms: C_8  and  O_9
REMARK    4  A    between atoms: C_10  and  C_12
REMARK    5  A    between atoms: C_14  and  O_15
REMARK    6  A    between atoms: O_15  and  C_16
REMARK    7  A    between atoms: C_17  and  O_22
REMARK    8  A    between atoms: C_18  and  O_19
REMARK    9  A    between atoms: O_19  and  C_20
REMARK   10  A    between atoms: O_22  and  C_23
REMARK   11  A    between atoms: C_25  and  O_26
REMARK   12  A    between atoms: O_26  and  C_27
REMARK                            x       y       z     vdW  Elec       q    Type
REMARK                         _______ _______ _______ _____ _____    ______ ____
ROOT
ATOM      1  C   LIG A   1     -10.244   5.368 131.136  0.00  0.00    +0.127 A 
ATOM      2  C   LIG A   1     -10.212   4.220 130.357  0.00  0.00    +0.092 A 
ATOM      3  C   LIG A   1      -9.072   3.906 129.627  0.00  0.00    +0.146 A 
ATOM      4  C   LIG A   1      -7.950   4.735 129.652  0.00  0.00    +0.109 A 
ATOM      5  C   LIG A   1      -6.801   4.320 128.833  0.00  0.00    +0.238 A 
ATOM      6  C   LIG A   1      -6.935   3.061 128.058  0.00  0.00    +0.208 A 
ATOM      7  C   LIG A   1      -8.078   2.347 128.142  0.00  0.00    +0.181 A 
ATOM      8  O   LIG A   1      -9.151   2.741 128.913  0.00  0.00    -0.451 OA
ATOM      9  O   LIG A   1      -5.732   4.933 128.733  0.00  0.00    -0.283 OA
ATOM     10  C   LIG A   1      -7.959   5.884 130.458  0.00  0.00    +0.138 A 
ATOM     11  C   LIG A   1      -9.116   6.195 131.186  0.00  0.00    +0.092 A 
ENDROOT
BRANCH   7  12
ATOM     12  C   LIG A   1      -8.341   1.083 127.412  0.00  0.00    +0.028 A 
ATOM     13  C   LIG A   1      -9.034   1.061 126.192  0.00  0.00    +0.061 A 
ATOM     14  C   LIG A   1      -9.240  -0.141 125.490  0.00  0.00    +0.166 A 
ATOM     15  C   LIG A   1      -8.687  -1.344 125.977  0.00  0.00    +0.203 A 
ATOM     16  C   LIG A   1      -8.004  -1.334 127.210  0.00  0.00    +0.166 A 
ATOM     17  C   LIG A   1      -7.838  -0.126 127.893  0.00  0.00    +0.061 A 
BRANCH  14  18
ATOM     18  O   LIG A   1      -9.907   0.027 124.297  0.00  0.00    -0.491 OA
ATOM     19  C   LIG A   1     -10.163   1.367 123.880  0.00  0.00    +0.277 C 
ENDBRANCH  14  18
BRANCH  16  20
ATOM     20  O   LIG A   1      -7.513  -2.516 127.702  0.00  0.00    -0.491 OA
ATOM     21  C   LIG A   1      -8.227  -3.172 128.743  0.00  0.00    +0.277 C 
ENDBRANCH  16  20
BRANCH  15  22
ATOM     22  O   LIG A   1      -8.853  -2.448 125.185  0.00  0.00    -0.488 OA
ATOM     23  C   LIG A   1      -7.826  -2.808 124.274  0.00  0.00    +0.277 C 
ENDBRANCH  15  22
ENDBRANCH   7  12
BRANCH   1  25
ATOM     24  C   LIG A   1     -12.087   6.839 131.336  0.00  0.00    +0.277 C 
ATOM     25  O   LIG A   1     -11.313   5.775 131.887  0.00  0.00    -0.495 OA
ENDBRANCH   1  25
BRANCH   6  26
ATOM     26  O   LIG A   1      -5.841   2.710 127.286  0.00  0.00    -0.501 OA
ATOM     27  H   LIG A   1      -5.650   1.778 127.542  0.00  0.00    +0.292 HD
ENDBRANCH   6  26
BRANCH  10  28
ATOM     28  O   LIG A   1      -6.844   6.679 130.460  0.00  0.00    -0.494 OA
ATOM     29  C   LIG A   1      -6.067   6.683 131.651  0.00  0.00    +0.277 C 
ENDBRANCH  10  28
TORSDOF 7
ENDMDL
MODEL 2
REMARK VINA RESULT:      -6.6      5.107      7.776
REMARK  Name = NuBBE_1445
REMARK  12 active torsions:
REMARK  status: ('A' for Active; 'I' for Inactive)
REMARK    1  A    between atoms: C_1  and  O_2
REMARK    2  A    between atoms: O_2  and  C_3
REMARK    3  A    between atoms: C_8  and  O_9
REMARK    4  A    between atoms: C_10  and  C_12
REMARK    5  A    between atoms: C_14  and  O_15
REMARK    6  A    between atoms: O_15  and  C_16
REMARK    7  A    between atoms: C_17  and  O_22
REMARK    8  A    between atoms: C_18  and  O_19
REMARK    9  A    between atoms: O_19  and  C_20
REMARK   10  A    between atoms: O_22  and  C_23
REMARK   11  A    between atoms: C_25  and  O_26
REMARK   12  A    between atoms: O_26  and  C_27
REMARK                            x       y       z     vdW  Elec       q    Type
REMARK                         _______ _______ _______ _____ _____    ______ ____
ROOT
ATOM      1  C   LIG A   1      -6.853   1.443 124.722  0.00  0.00    +0.127 A 
ATOM      2  C   LIG A   1      -6.479   0.752 125.866  0.00  0.00    +0.092 A 
ATOM      3  C   LIG A   1      -7.147  -0.413 126.225  0.00  0.00    +0.146 A 
ATOM      4  C   LIG A   1      -8.203  -0.903 125.457  0.00  0.00    +0.109 A 
ATOM      5  C   LIG A   1      -8.851  -2.135 125.931  0.00  0.00    +0.238 A 
ATOM      6  C   LIG A   1      -8.326  -2.747 127.177  0.00  0.00    +0.208 A 
ATOM      7  C   LIG A   1      -7.282  -2.171 127.811  0.00  0.00    +0.181 A 
ATOM      8  O   LIG A   1      -6.677  -1.016 127.360  0.00  0.00    -0.451 OA
ATOM      9  O   LIG A   1      -9.800  -2.705 125.379  0.00  0.00    -0.283 OA
ATOM     10  C   LIG A   1      -8.572  -0.230 124.282  0.00  0.00    +0.138 A 
ATOM     11  C   LIG A   1      -7.897   0.948 123.932  0.00  0.00    +0.092 A 
ENDROOT
BRANCH   7  12
ATOM     12  C   LIG A   1      -6.672  -2.674 129.065  0.00  0.00    +0.028 A 
ATOM     13  C   LIG A   1      -5.313  -3.013 129.145  0.00  0.00    +0.061 A 
ATOM     14  C   LIG A   1      -4.738  -3.448 130.354  0.00  0.00    +0.166 A 
ATOM     15  C   LIG A   1      -5.516  -3.485 131.530  0.00  0.00    +0.203 A 
ATOM     16  C   LIG A   1      -6.885  -3.162 131.456  0.00  0.00    +0.166 A 
ATOM     17  C   LIG A   1      -7.429  -2.756 130.234  0.00  0.00    +0.061 A 
BRANCH  14  18
ATOM     18  O   LIG A   1      -3.388  -3.705 130.259  0.00  0.00    -0.491 OA
ATOM     19  C   LIG A   1      -2.835  -3.795 128.947  0.00  0.00    +0.277 C 
ENDBRANCH  14  18
BRANCH  16  20
ATOM     20  O   LIG A   1      -7.648  -3.249 132.593  0.00  0.00    -0.491 OA
ATOM     21  C   LIG A   1      -7.822  -2.084 133.389  0.00  0.00    +0.277 C 
ENDBRANCH  16  20
BRANCH  15  22
ATOM     22  O   LIG A   1      -4.856  -3.828 132.680  0.00  0.00    -0.488 OA
ATOM     23  C   LIG A   1      -4.827  -5.188 133.084  0.00  0.00    +0.277 C 
ENDBRANCH  15  22
ENDBRANCH   7  12
BRANCH   1  25
ATOM     24  C   LIG A   1      -6.775   3.118 123.052  0.00  0.00    +0.277 C 
ATOM     25  O   LIG A   1      -6.270   2.600 124.281  0.00  0.00    -0.495 OA
ENDBRANCH   1  25
BRANCH   6  26
ATOM     26  O   LIG A   1      -8.970  -3.896 127.602  0.00  0.00    -0.501 OA
ATOM     27  H   LIG A   1      -8.657  -4.023 128.527  0.00  0.00    +0.292 HD
ENDBRANCH   6  26
BRANCH  10  28
ATOM     28  O   LIG A   1      -9.614  -0.734 123.550  0.00  0.00    -0.494 OA
ATOM     29  C   LIG A   1     -10.114   0.089 122.504  0.00  0.00    +0.277 C 
ENDBRANCH  10  28
TORSDOF 7
ENDMDL
MODEL 3
REMARK VINA RESULT:      -6.5      2.835      8.792
REMARK  Name = NuBBE_1445
REMARK  12 active torsions:
REMARK  status: ('A' for Active; 'I' for Inactive)
REMARK    1  A    between atoms: C_1  and  O_2
REMARK    2  A    between atoms: O_2  and  C_3
REMARK    3  A    between atoms: C_8  and  O_9
REMARK    4  A    between atoms: C_10  and  C_12
REMARK    5  A    between atoms: C_14  and  O_15
REMARK    6  A    between atoms: O_15  and  C_16
REMARK    7  A    between atoms: C_17  and  O_22
REMARK    8  A    between atoms: C_18  and  O_19
REMARK    9  A    between atoms: O_19  and  C_20
REMARK   10  A    between atoms: O_22  and  C_23
REMARK   11  A    between atoms: C_25  and  O_26
REMARK   12  A    between atoms: O_26  and  C_27
REMARK                            x       y       z     vdW  Elec       q    Type
REMARK                         _______ _______ _______ _____ _____    ______ ____
ROOT
ATOM      1  C   LIG A   1      -5.970  -3.171 124.472  0.00  0.00    +0.127 A 
ATOM      2  C   LIG A   1      -5.527  -1.966 124.999  0.00  0.00    +0.092 A 
ATOM      3  C   LIG A   1      -6.421  -0.920 125.195  0.00  0.00    +0.146 A 
ATOM      4  C   LIG A   1      -7.769  -1.054 124.859  0.00  0.00    +0.109 A 
ATOM      5  C   LIG A   1      -8.628   0.116 125.092  0.00  0.00    +0.238 A 
ATOM      6  C   LIG A   1      -7.991   1.329 125.663  0.00  0.00    +0.208 A 
ATOM      7  C   LIG A   1      -6.673   1.311 125.957  0.00  0.00    +0.181 A 
ATOM      8  O   LIG A   1      -5.872   0.209 125.738  0.00  0.00    -0.451 OA
ATOM      9  O   LIG A   1      -9.840   0.177 124.850  0.00  0.00    -0.283 OA
ATOM     10  C   LIG A   1      -8.236  -2.277 124.352  0.00  0.00    +0.138 A 
ATOM     11  C   LIG A   1      -7.324  -3.323 124.152  0.00  0.00    +0.092 A 
ENDROOT
BRANCH   7  12
ATOM     12  C   LIG A   1      -5.916   2.455 126.519  0.00  0.00    +0.028 A 
ATOM     13  C   LIG A   1      -6.459   3.292 127.505  0.00  0.00    +0.061 A 
ATOM     14  C   LIG A   1      -5.713   4.348 128.060  0.00  0.00    +0.166 A 
ATOM     15  C   LIG A   1      -4.369   4.539 127.675  0.00  0.00    +0.203 A 
ATOM     16  C   LIG A   1      -3.820   3.714 126.674  0.00  0.00    +0.166 A 
ATOM     17  C   LIG A   1      -4.598   2.688 126.127  0.00  0.00    +0.061 A 
BRANCH  14  18
ATOM     18  O   LIG A   1      -6.389   5.044 129.037  0.00  0.00    -0.491 OA
ATOM     19  C   LIG A   1      -6.480   4.436 130.324  0.00  0.00    +0.277 C 
ENDBRANCH  14  18
BRANCH  16  20
ATOM     20  O   LIG A   1      -2.529   3.937 126.268  0.00  0.00    -0.491 OA
ATOM     21  C   LIG A   1      -1.523   3.006 126.648  0.00  0.00    +0.277 C 
ENDBRANCH  16  20
BRANCH  15  22
ATOM     22  O   LIG A   1      -3.688   5.528 128.333  0.00  0.00    -0.488 OA
ATOM     23  C   LIG A   1      -2.906   5.193 129.469  0.00  0.00    +0.277 C 
ENDBRANCH  15  22
ENDBRANCH   7  12
BRANCH   1  25
ATOM     24  C   LIG A   1      -4.036  -4.025 123.409  0.00  0.00    +0.277 C 
ATOM     25  O   LIG A   1      -5.176  -4.260 124.233  0.00  0.00    -0.495 OA
ENDBRANCH   1  25
BRANCH   6  26
ATOM     26  O   LIG A   1      -8.826   2.416 125.854  0.00  0.00    -0.501 OA
ATOM     27  H   LIG A   1      -9.426   2.138 126.584  0.00  0.00    +0.292 HD
ENDBRANCH   6  26
BRANCH  10  28
ATOM     28  O   LIG A   1      -9.563  -2.376 124.030  0.00  0.00    -0.494 OA
ATOM     29  C   LIG A   1      -9.949  -3.510 123.264  0.00  0.00    +0.277 C 
ENDBRANCH  10  28
TORSDOF 7
ENDMDL
MODEL 4
REMARK VINA RESULT:      -6.5      0.310      2.470
REMARK  Name = NuBBE_1445
REMARK  12 active torsions:
REMARK  status: ('A' for Active; 'I' for Inactive)
REMARK    1  A    between atoms: C_1  and  O_2
REMARK    2  A    between atoms: O_2  and  C_3
REMARK    3  A    between atoms: C_8  and  O_9
REMARK    4  A    between atoms: C_10  and  C_12
REMARK    5  A    between atoms: C_14  and  O_15
REMARK    6  A    between atoms: O_15  and  C_16
REMARK    7  A    between atoms: C_17  and  O_22
REMARK    8  A    between atoms: C_18  and  O_19
REMARK    9  A    between atoms: O_19  and  C_20
REMARK   10  A    between atoms: O_22  and  C_23
REMARK   11  A    between atoms: C_25  and  O_26
REMARK   12  A    between atoms: O_26  and  C_27
REMARK                            x       y       z     vdW  Elec       q    Type
REMARK                         _______ _______ _______ _____ _____    ______ ____
ROOT
ATOM      1  C   LIG A   1      -9.977   5.349 131.192  0.00  0.00    +0.127 A 
ATOM      2  C   LIG A   1      -9.985   4.230 130.372  0.00  0.00    +0.092 A 
ATOM      3  C   LIG A   1      -8.872   3.927 129.596  0.00  0.00    +0.146 A 
ATOM      4  C   LIG A   1      -7.738   4.739 129.617  0.00  0.00    +0.109 A 
ATOM      5  C   LIG A   1      -6.621   4.338 128.749  0.00  0.00    +0.238 A 
ATOM      6  C   LIG A   1      -6.796   3.110 127.933  0.00  0.00    +0.208 A 
ATOM      7  C   LIG A   1      -7.947   2.410 128.026  0.00  0.00    +0.181 A 
ATOM      8  O   LIG A   1      -8.991   2.791 128.844  0.00  0.00    -0.451 OA
ATOM      9  O   LIG A   1      -5.545   4.939 128.640  0.00  0.00    -0.283 OA
ATOM     10  C   LIG A   1      -7.705   5.858 130.464  0.00  0.00    +0.138 A 
ATOM     11  C   LIG A   1      -8.836   6.159 131.238  0.00  0.00    +0.092 A 
ENDROOT
BRANCH   7  12
ATOM     12  C   LIG A   1      -8.251   1.178 127.260  0.00  0.00    +0.028 A 
ATOM     13  C   LIG A   1      -7.834  -0.089 127.696  0.00  0.00    +0.061 A 
ATOM     14  C   LIG A   1      -8.168  -1.254 126.981  0.00  0.00    +0.166 A 
ATOM     15  C   LIG A   1      -8.992  -1.168 125.839  0.00  0.00    +0.203 A 
ATOM     16  C   LIG A   1      -9.401   0.101 125.384  0.00  0.00    +0.166 A 
ATOM     17  C   LIG A   1      -9.032   1.241 126.106  0.00  0.00    +0.061 A 
BRANCH  14  18
ATOM     18  O   LIG A   1      -7.706  -2.411 127.569  0.00  0.00    -0.491 OA
ATOM     19  C   LIG A   1      -8.147  -2.683 128.898  0.00  0.00    +0.277 C 
ENDBRANCH  14  18
BRANCH  16  20
ATOM     20  O   LIG A   1     -10.160   0.182 124.245  0.00  0.00    -0.491 OA
ATOM     21  C   LIG A   1     -10.178   1.407 123.521  0.00  0.00    +0.277 C 
ENDBRANCH  16  20
BRANCH  15  22
ATOM     22  O   LIG A   1      -9.346  -2.357 125.259  0.00  0.00    -0.488 OA
ATOM     23  C   LIG A   1      -8.544  -2.884 124.213  0.00  0.00    +0.277 C 
ENDBRANCH  15  22
ENDBRANCH   7  12
BRANCH   1  25
ATOM     24  C   LIG A   1     -11.996   6.572 131.365  0.00  0.00    +0.277 C 
ATOM     25  O   LIG A   1     -11.017   5.743 131.989  0.00  0.00    -0.495 OA
ENDBRANCH   1  25
BRANCH   6  26
ATOM     26  O   LIG A   1      -5.731   2.772 127.117  0.00  0.00    -0.501 OA
ATOM     27  H   LIG A   1      -5.356   1.960 127.529  0.00  0.00    +0.292 HD
ENDBRANCH   6  26
BRANCH  10  28
ATOM     28  O   LIG A   1      -6.579   6.636 130.461  0.00  0.00    -0.494 OA
ATOM     29  C   LIG A   1      -5.806   6.642 131.655  0.00  0.00    +0.277 C 
ENDBRANCH  10  28
TORSDOF 7
ENDMDL
MODEL 5
REMARK VINA RESULT:      -6.4      3.905      6.925
REMARK  Name = NuBBE_1445
REMARK  12 active torsions:
REMARK  status: ('A' for Active; 'I' for Inactive)
REMARK    1  A    between atoms: C_1  and  O_2
REMARK    2  A    between atoms: O_2  and  C_3
REMARK    3  A    between atoms: C_8  and  O_9
REMARK    4  A    between atoms: C_10  and  C_12
REMARK    5  A    between atoms: C_14  and  O_15
REMARK    6  A    between atoms: O_15  and  C_16
REMARK    7  A    between atoms: C_17  and  O_22
REMARK    8  A    between atoms: C_18  and  O_19
REMARK    9  A    between atoms: O_19  and  C_20
REMARK   10  A    between atoms: O_22  and  C_23
REMARK   11  A    between atoms: C_25  and  O_26
REMARK   12  A    between atoms: O_26  and  C_27
REMARK                            x       y       z     vdW  Elec       q    Type
REMARK                         _______ _______ _______ _____ _____    ______ ____
ROOT
ATOM      1  C   LIG A   1      -7.569  -2.888 133.422  0.00  0.00    +0.127 A 
ATOM      2  C   LIG A   1      -8.006  -2.352 132.218  0.00  0.00    +0.092 A 
ATOM      3  C   LIG A   1      -7.228  -2.483 131.074  0.00  0.00    +0.146 A 
ATOM      4  C   LIG A   1      -5.998  -3.141 131.112  0.00  0.00    +0.109 A 
ATOM      5  C   LIG A   1      -5.247  -3.213 129.850  0.00  0.00    +0.238 A 
ATOM      6  C   LIG A   1      -5.860  -2.584 128.653  0.00  0.00    +0.208 A 
ATOM      7  C   LIG A   1      -7.070  -1.994 128.759  0.00  0.00    +0.181 A 
ATOM      8  O   LIG A   1      -7.771  -1.931 129.946  0.00  0.00    -0.451 OA
ATOM      9  O   LIG A   1      -4.144  -3.752 129.701  0.00  0.00    -0.283 OA
ATOM     10  C   LIG A   1      -5.558  -3.713 132.315  0.00  0.00    +0.138 A 
ATOM     11  C   LIG A   1      -6.347  -3.570 133.466  0.00  0.00    +0.092 A 
ENDROOT
BRANCH   7  12
ATOM     12  C   LIG A   1      -7.784  -1.322 127.647  0.00  0.00    +0.028 A 
ATOM     13  C   LIG A   1      -8.396  -2.048 126.613  0.00  0.00    +0.061 A 
ATOM     14  C   LIG A   1      -9.108  -1.399 125.587  0.00  0.00    +0.166 A 
ATOM     15  C   LIG A   1      -9.273   0.002 125.622  0.00  0.00    +0.203 A 
ATOM     16  C   LIG A   1      -8.649   0.740 126.647  0.00  0.00    +0.166 A 
ATOM     17  C   LIG A   1      -7.929   0.065 127.638  0.00  0.00    +0.061 A 
BRANCH  14  18
ATOM     18  O   LIG A   1      -9.670  -2.266 124.676  0.00  0.00    -0.491 OA
ATOM     19  C   LIG A   1      -8.802  -2.830 123.696  0.00  0.00    +0.277 C 
ENDBRANCH  14  18
BRANCH  16  20
ATOM     20  O   LIG A   1      -8.771   2.106 126.646  0.00  0.00    -0.491 OA
ATOM     21  C   LIG A   1      -7.706   2.887 126.121  0.00  0.00    +0.277 C 
ENDBRANCH  16  20
BRANCH  15  22
ATOM     22  O   LIG A   1     -10.059   0.541 124.638  0.00  0.00    -0.488 OA
ATOM     23  C   LIG A   1      -9.462   0.935 123.413  0.00  0.00    +0.277 C 
ENDBRANCH  15  22
ENDBRANCH   7  12
BRANCH   1  25
ATOM     24  C   LIG A   1      -8.213  -3.982 135.419  0.00  0.00    +0.277 C 
ATOM     25  O   LIG A   1      -8.250  -2.811 134.606  0.00  0.00    -0.495 OA
ENDBRANCH   1  25
BRANCH   6  26
ATOM     26  O   LIG A   1      -5.118  -2.657 127.487  0.00  0.00    -0.501 OA
ATOM     27  H   LIG A   1      -4.509  -1.884 127.537  0.00  0.00    +0.292 HD
ENDBRANCH   6  26
BRANCH  10  28
ATOM     28  O   LIG A   1      -4.346  -4.351 132.321  0.00  0.00    -0.494 OA
ATOM     29  C   LIG A   1      -3.429  -3.965 133.337  0.00  0.00    +0.277 C 
ENDBRANCH  10  28
TORSDOF 7
ENDMDL
MODEL 6
REMARK VINA RESULT:      -6.3      2.843      6.957
REMARK  Name = NuBBE_1445
REMARK  12 active torsions:
REMARK  status: ('A' for Active; 'I' for Inactive)
REMARK    1  A    between atoms: C_1  and  O_2
REMARK    2  A    between atoms: O_2  and  C_3
REMARK    3  A    between atoms: C_8  and  O_9
REMARK    4  A    between atoms: C_10  and  C_12
REMARK    5  A    between atoms: C_14  and  O_15
REMARK    6  A    between atoms: O_15  and  C_16
REMARK    7  A    between atoms: C_17  and  O_22
REMARK    8  A    between atoms: C_18  and  O_19
REMARK    9  A    between atoms: O_19  and  C_20
REMARK   10  A    between atoms: O_22  and  C_23
REMARK   11  A    between atoms: C_25  and  O_26
REMARK   12  A    between atoms: O_26  and  C_27
REMARK                            x       y       z     vdW  Elec       q    Type
REMARK                         _______ _______ _______ _____ _____    ______ ____
ROOT
ATOM      1  C   LIG A   1      -8.904   2.305 123.144  0.00  0.00    +0.127 A 
ATOM      2  C   LIG A   1      -9.095   2.380 124.516  0.00  0.00    +0.092 A 
ATOM      3  C   LIG A   1      -8.145   3.001 125.319  0.00  0.00    +0.146 A 
ATOM      4  C   LIG A   1      -6.985   3.549 124.769  0.00  0.00    +0.109 A 
ATOM      5  C   LIG A   1      -6.038   4.171 125.705  0.00  0.00    +0.238 A 
ATOM      6  C   LIG A   1      -6.398   4.164 127.146  0.00  0.00    +0.208 A 
ATOM      7  C   LIG A   1      -7.566   3.611 127.536  0.00  0.00    +0.181 A 
ATOM      8  O   LIG A   1      -8.452   3.030 126.652  0.00  0.00    -0.451 OA
ATOM      9  O   LIG A   1      -4.964   4.699 125.395  0.00  0.00    -0.283 OA
ATOM     10  C   LIG A   1      -6.794   3.506 123.379  0.00  0.00    +0.138 A 
ATOM     11  C   LIG A   1      -7.755   2.871 122.579  0.00  0.00    +0.092 A 
ENDROOT
BRANCH   7  12
ATOM     12  C   LIG A   1      -8.037   3.529 128.940  0.00  0.00    +0.028 A 
ATOM     13  C   LIG A   1      -8.825   4.536 129.518  0.00  0.00    +0.061 A 
ATOM     14  C   LIG A   1      -9.301   4.425 130.838  0.00  0.00    +0.166 A 
ATOM     15  C   LIG A   1      -9.042   3.255 131.583  0.00  0.00    +0.203 A 
ATOM     16  C   LIG A   1      -8.238   2.246 131.016  0.00  0.00    +0.166 A 
ATOM     17  C   LIG A   1      -7.762   2.400 129.711  0.00  0.00    +0.061 A 
BRANCH  14  18
ATOM     18  O   LIG A   1     -10.086   5.486 131.230  0.00  0.00    -0.491 OA
ATOM     19  C   LIG A   1      -9.657   6.790 130.840  0.00  0.00    +0.277 C 
ENDBRANCH  14  18
BRANCH  16  20
ATOM     20  O   LIG A   1      -7.948   1.134 131.765  0.00  0.00    -0.491 OA
ATOM     21  C   LIG A   1      -8.775  -0.016 131.628  0.00  0.00    +0.277 C 
ENDBRANCH  16  20
BRANCH  15  22
ATOM     22  O   LIG A   1      -9.621   3.189 132.822  0.00  0.00    -0.488 OA
ATOM     23  C   LIG A   1      -8.921   3.705 133.943  0.00  0.00    +0.277 C 
ENDBRANCH  15  22
ENDBRANCH   7  12
BRANCH   1  25
ATOM     24  C   LIG A   1     -10.141   0.370 122.573  0.00  0.00    +0.277 C 
ATOM     25  O   LIG A   1      -9.769   1.712 122.265  0.00  0.00    -0.495 OA
ENDBRANCH   1  25
BRANCH   6  26
ATOM     26  O   LIG A   1      -5.476   4.743 128.000  0.00  0.00    -0.501 OA
ATOM     27  H   LIG A   1      -4.602   4.507 127.612  0.00  0.00    +0.292 HD
ENDBRANCH   6  26
BRANCH  10  28
ATOM     28  O   LIG A   1      -5.645   4.049 122.870  0.00  0.00    -0.494 OA
ATOM     29  C   LIG A   1      -5.554   4.133 121.453  0.00  0.00    +0.277 C 
ENDBRANCH  10  28
TORSDOF 7
ENDMDL
MODEL 7
REMARK VINA RESULT:      -6.3      2.686      8.773
REMARK  Name = NuBBE_1445
REMARK  12 active torsions:
REMARK  status: ('A' for Active; 'I' for Inactive)
REMARK    1  A    between atoms: C_1  and  O_2
REMARK    2  A    between atoms: O_2  and  C_3
REMARK    3  A    between atoms: C_8  and  O_9
REMARK    4  A    between atoms: C_10  and  C_12
REMARK    5  A    between atoms: C_14  and  O_15
REMARK    6  A    between atoms: O_15  and  C_16
REMARK    7  A    between atoms: C_17  and  O_22
REMARK    8  A    between atoms: C_18  and  O_19
REMARK    9  A    between atoms: O_19  and  C_20
REMARK   10  A    between atoms: O_22  and  C_23
REMARK   11  A    between atoms: C_25  and  O_26
REMARK   12  A    between atoms: O_26  and  C_27
REMARK                            x       y       z     vdW  Elec       q    Type
REMARK                         _______ _______ _______ _____ _____    ______ ____
ROOT
ATOM      1  C   LIG A   1      -5.910  -3.080 124.604  0.00  0.00    +0.127 A 
ATOM      2  C   LIG A   1      -5.502  -1.900 125.208  0.00  0.00    +0.092 A 
ATOM      3  C   LIG A   1      -6.387  -0.835 125.326  0.00  0.00    +0.146 A 
ATOM      4  C   LIG A   1      -7.690  -0.925 124.834  0.00  0.00    +0.109 A 
ATOM      5  C   LIG A   1      -8.542   0.262 124.996  0.00  0.00    +0.238 A 
ATOM      6  C   LIG A   1      -7.946   1.445 125.667  0.00  0.00    +0.208 A 
ATOM      7  C   LIG A   1      -6.672   1.385 126.110  0.00  0.00    +0.181 A 
ATOM      8  O   LIG A   1      -5.878   0.267 125.956  0.00  0.00    -0.451 OA
ATOM      9  O   LIG A   1      -9.716   0.360 124.618  0.00  0.00    -0.283 OA
ATOM     10  C   LIG A   1      -8.125  -2.123 124.246  0.00  0.00    +0.138 A 
ATOM     11  C   LIG A   1      -7.221  -3.189 124.127  0.00  0.00    +0.092 A 
ENDROOT
BRANCH   7  12
ATOM     12  C   LIG A   1      -5.958   2.496 126.784  0.00  0.00    +0.028 A 
ATOM     13  C   LIG A   1      -4.636   2.835 126.457  0.00  0.00    +0.061 A 
ATOM     14  C   LIG A   1      -3.985   3.919 127.074  0.00  0.00    +0.166 A 
ATOM     15  C   LIG A   1      -4.684   4.729 127.993  0.00  0.00    +0.203 A 
ATOM     16  C   LIG A   1      -6.006   4.386 128.340  0.00  0.00    +0.166 A 
ATOM     17  C   LIG A   1      -6.615   3.288 127.725  0.00  0.00    +0.061 A 
BRANCH  14  18
ATOM     18  O   LIG A   1      -2.706   4.129 126.609  0.00  0.00    -0.491 OA
ATOM     19  C   LIG A   1      -1.828   3.005 126.593  0.00  0.00    +0.277 C 
ENDBRANCH  14  18
BRANCH  16  20
ATOM     20  O   LIG A   1      -6.664   5.148 129.272  0.00  0.00    -0.491 OA
ATOM     21  C   LIG A   1      -6.824   4.631 130.587  0.00  0.00    +0.277 C 
ENDBRANCH  16  20
BRANCH  15  22
ATOM     22  O   LIG A   1      -4.008   5.818 128.475  0.00  0.00    -0.488 OA
ATOM     23  C   LIG A   1      -3.225   5.684 129.650  0.00  0.00    +0.277 C 
ENDBRANCH  15  22
ENDBRANCH   7  12
BRANCH   1  25
ATOM     24  C   LIG A   1      -4.191  -4.117 123.350  0.00  0.00    +0.277 C 
ATOM     25  O   LIG A   1      -5.120  -4.184 124.430  0.00  0.00    -0.495 OA
ENDBRANCH   1  25
BRANCH   6  26
ATOM     26  O   LIG A   1      -8.772   2.549 125.788  0.00  0.00    -0.501 OA
ATOM     27  H   LIG A   1      -9.495   2.385 125.140  0.00  0.00    +0.292 HD
ENDBRANCH   6  26
BRANCH  10  28
ATOM     28  O   LIG A   1      -9.408  -2.180 123.771  0.00  0.00    -0.494 OA
ATOM     29  C   LIG A   1      -9.865  -3.450 123.324  0.00  0.00    +0.277 C 
ENDBRANCH  10  28
TORSDOF 7
ENDMDL
MODEL 8
REMARK VINA RESULT:      -6.3      3.962      7.003
REMARK  Name = NuBBE_1445
REMARK  12 active torsions:
REMARK  status: ('A' for Active; 'I' for Inactive)
REMARK    1  A    between atoms: C_1  and  O_2
REMARK    2  A    between atoms: O_2  and  C_3
REMARK    3  A    between atoms: C_8  and  O_9
REMARK    4  A    between atoms: C_10  and  C_12
REMARK    5  A    between atoms: C_14  and  O_15
REMARK    6  A    between atoms: O_15  and  C_16
REMARK    7  A    between atoms: C_17  and  O_22
REMARK    8  A    between atoms: C_18  and  O_19
REMARK    9  A    between atoms: O_19  and  C_20
REMARK   10  A    between atoms: O_22  and  C_23
REMARK   11  A    between atoms: C_25  and  O_26
REMARK   12  A    between atoms: O_26  and  C_27
REMARK                            x       y       z     vdW  Elec       q    Type
REMARK                         _______ _______ _______ _____ _____    ______ ____
ROOT
ATOM      1  C   LIG A   1      -7.411  -3.313 133.363  0.00  0.00    +0.127 A 
ATOM      2  C   LIG A   1      -7.911  -2.758 132.194  0.00  0.00    +0.092 A 
ATOM      3  C   LIG A   1      -7.137  -2.751 131.040  0.00  0.00    +0.146 A 
ATOM      4  C   LIG A   1      -5.848  -3.286 131.034  0.00  0.00    +0.109 A 
ATOM      5  C   LIG A   1      -5.108  -3.216 129.766  0.00  0.00    +0.238 A 
ATOM      6  C   LIG A   1      -5.793  -2.587 128.609  0.00  0.00    +0.208 A 
ATOM      7  C   LIG A   1      -7.053  -2.125 128.754  0.00  0.00    +0.181 A 
ATOM      8  O   LIG A   1      -7.744  -2.195 129.946  0.00  0.00    -0.451 OA
ATOM      9  O   LIG A   1      -3.959  -3.635 129.581  0.00  0.00    -0.283 OA
ATOM     10  C   LIG A   1      -5.341  -3.876 132.202  0.00  0.00    +0.138 A 
ATOM     11  C   LIG A   1      -6.128  -3.872 133.363  0.00  0.00    +0.092 A 
ENDROOT
BRANCH   7  12
ATOM     12  C   LIG A   1      -7.842  -1.468 127.684  0.00  0.00    +0.028 A 
ATOM     13  C   LIG A   1      -7.999  -0.075 127.626  0.00  0.00    +0.061 A 
ATOM     14  C   LIG A   1      -8.715   0.537 126.580  0.00  0.00    +0.166 A 
ATOM     15  C   LIG A   1      -9.233  -0.247 125.528  0.00  0.00    +0.203 A 
ATOM     16  C   LIG A   1      -9.094  -1.648 125.586  0.00  0.00    +0.166 A 
ATOM     17  C   LIG A   1      -8.397  -2.226 126.652  0.00  0.00    +0.061 A 
BRANCH  14  18
ATOM     18  O   LIG A   1      -8.740   1.911 126.663  0.00  0.00    -0.491 OA
ATOM     19  C   LIG A   1      -7.581   2.610 126.215  0.00  0.00    +0.277 C 
ENDBRANCH  14  18
BRANCH  16  20
ATOM     20  O   LIG A   1      -9.643  -2.409 124.586  0.00  0.00    -0.491 OA
ATOM     21  C   LIG A   1      -8.780  -3.190 123.769  0.00  0.00    +0.277 C 
ENDBRANCH  16  20
BRANCH  15  22
ATOM     22  O   LIG A   1      -9.832   0.436 124.504  0.00  0.00    -0.488 OA
ATOM     23  C   LIG A   1      -9.086   0.720 123.331  0.00  0.00    +0.277 C 
ENDBRANCH  15  22
ENDBRANCH   7  12
BRANCH   1  25
ATOM     24  C   LIG A   1      -7.959  -4.587 135.281  0.00  0.00    +0.277 C 
ATOM     25  O   LIG A   1      -8.083  -3.366 134.554  0.00  0.00    -0.495 OA
ENDBRANCH   1  25
BRANCH   6  26
ATOM     26  O   LIG A   1      -5.060  -2.524 127.436  0.00  0.00    -0.501 OA
ATOM     27  H   LIG A   1      -4.714  -3.438 127.315  0.00  0.00    +0.292 HD
ENDBRANCH   6  26
BRANCH  10  28
ATOM     28  O   LIG A   1      -4.073  -4.390 132.166  0.00  0.00    -0.494 OA
ATOM     29  C   LIG A   1      -3.252  -4.140 133.300  0.00  0.00    +0.277 C 
ENDBRANCH  10  28
TORSDOF 7
ENDMDL
MODEL 9
REMARK VINA RESULT:      -6.3      2.384      7.478
REMARK  Name = NuBBE_1445
REMARK  12 active torsions:
REMARK  status: ('A' for Active; 'I' for Inactive)
REMARK    1  A    between atoms: C_1  and  O_2
REMARK    2  A    between atoms: O_2  and  C_3
REMARK    3  A    between atoms: C_8  and  O_9
REMARK    4  A    between atoms: C_10  and  C_12
REMARK    5  A    between atoms: C_14  and  O_15
REMARK    6  A    between atoms: O_15  and  C_16
REMARK    7  A    between atoms: C_17  and  O_22
REMARK    8  A    between atoms: C_18  and  O_19
REMARK    9  A    between atoms: O_19  and  C_20
REMARK   10  A    between atoms: O_22  and  C_23
REMARK   11  A    between atoms: C_25  and  O_26
REMARK   12  A    between atoms: O_26  and  C_27
REMARK                            x       y       z     vdW  Elec       q    Type
REMARK                         _______ _______ _______ _____ _____    ______ ____
ROOT
ATOM      1  C   LIG A   1      -9.071   0.323 124.308  0.00  0.00    +0.127 A 
ATOM      2  C   LIG A   1      -9.267   0.662 125.640  0.00  0.00    +0.092 A 
ATOM      3  C   LIG A   1      -8.524   1.685 126.215  0.00  0.00    +0.146 A 
ATOM      4  C   LIG A   1      -7.565   2.381 125.477  0.00  0.00    +0.109 A 
ATOM      5  C   LIG A   1      -6.824   3.436 126.183  0.00  0.00    +0.238 A 
ATOM      6  C   LIG A   1      -7.159   3.668 127.611  0.00  0.00    +0.208 A 
ATOM      7  C   LIG A   1      -8.125   2.928 128.195  0.00  0.00    +0.181 A 
ATOM      8  O   LIG A   1      -8.819   1.940 127.526  0.00  0.00    -0.451 OA
ATOM      9  O   LIG A   1      -5.940   4.147 125.689  0.00  0.00    -0.283 OA
ATOM     10  C   LIG A   1      -7.377   2.069 124.122  0.00  0.00    +0.138 A 
ATOM     11  C   LIG A   1      -8.128   1.030 123.553  0.00  0.00    +0.092 A 
ENDROOT
BRANCH   7  12
ATOM     12  C   LIG A   1      -8.546   3.052 129.611  0.00  0.00    +0.028 A 
ATOM     13  C   LIG A   1      -8.225   2.078 130.569  0.00  0.00    +0.061 A 
ATOM     14  C   LIG A   1      -8.595   2.230 131.918  0.00  0.00    +0.166 A 
ATOM     15  C   LIG A   1      -9.243   3.410 132.342  0.00  0.00    +0.203 A 
ATOM     16  C   LIG A   1      -9.583   4.386 131.385  0.00  0.00    +0.166 A 
ATOM     17  C   LIG A   1      -9.222   4.192 130.048  0.00  0.00    +0.061 A 
BRANCH  14  18
ATOM     18  O   LIG A   1      -8.169   1.197 132.724  0.00  0.00    -0.491 OA
ATOM     19  C   LIG A   1      -8.251  -0.121 132.187  0.00  0.00    +0.277 C 
ENDBRANCH  14  18
BRANCH  16  20
ATOM     20  O   LIG A   1     -10.258   5.507 131.795  0.00  0.00    -0.491 OA
ATOM     21  C   LIG A   1     -11.438   5.888 131.098  0.00  0.00    +0.277 C 
ENDBRANCH  16  20
BRANCH  15  22
ATOM     22  O   LIG A   1      -9.481   3.518 133.686  0.00  0.00    -0.488 OA
ATOM     23  C   LIG A   1      -8.518   4.154 134.512  0.00  0.00    +0.277 C 
ENDBRANCH  15  22
ENDBRANCH   7  12
BRANCH   1  25
ATOM     24  C   LIG A   1      -8.935  -1.535 122.848  0.00  0.00    +0.277 C 
ATOM     25  O   LIG A   1      -9.741  -0.669 123.645  0.00  0.00    -0.495 OA
ENDBRANCH   1  25
BRANCH   6  26
ATOM     26  O   LIG A   1      -6.430   4.657 128.248  0.00  0.00    -0.501 OA
ATOM     27  H   LIG A   1      -7.072   5.394 128.369  0.00  0.00    +0.292 HD
ENDBRANCH   6  26
BRANCH  10  28
ATOM     28  O   LIG A   1      -6.428   2.768 123.425  0.00  0.00    -0.494 OA
ATOM     29  C   LIG A   1      -6.799   3.229 122.132  0.00  0.00    +0.277 C 
ENDBRANCH  10  28
TORSDOF 7
ENDMDL
