MODEL 1
REMARK VINA RESULT:      -8.9      0.000      0.000
REMARK  Name = NuBBE_1085
REMARK  6 active torsions:
REMARK  status: ('A' for Active; 'I' for Inactive)
REMARK    1  A    between atoms: C_1  and  C_2
REMARK    2  A    between atoms: C_2  and  C_3
REMARK    3  A    between atoms: C_4  and  C_5
REMARK    4  A    between atoms: C_10  and  C_11
REMARK    5  A    between atoms: C_10  and  C_23
REMARK    6  A    between atoms: C_12  and  C_13
REMARK                            x       y       z     vdW  Elec       q    Type
REMARK                         _______ _______ _______ _____ _____    ______ ____
ROOT
ATOM      1  C   LIG A   1      -6.276  -0.533 124.615  0.00  0.00    +0.043 C 
ATOM      2  C   LIG A   1      -7.771  -0.595 124.215  0.00  0.00    +0.027 C 
ATOM      3  C   LIG A   1      -8.658  -0.221 125.449  0.00  0.00    +0.012 C 
ATOM      4  C   LIG A   1      -9.281  -1.497 126.030  0.00  0.00    +0.020 C 
ATOM      5  C   LIG A   1      -7.618   0.307 126.428  0.00  0.00    -0.032 A 
ATOM      6  C   LIG A   1      -7.867   0.880 127.675  0.00  0.00    +0.031 A 
ATOM      7  C   LIG A   1      -6.746   1.270 128.423  0.00  0.00    +0.047 A 
ATOM      8  C   LIG A   1      -5.434   1.120 127.972  0.00  0.00    -0.000 A 
ATOM      9  C   LIG A   1      -4.578   1.637 128.985  0.00  0.00    +0.027 A 
ATOM     10  C   LIG A   1      -5.371   2.063 130.025  0.00  0.00    +0.083 A 
ATOM     11  N   LIG A   1      -6.676   1.836 129.679  0.00  0.00    -0.361 N 
ATOM     12  H   LIG A   1      -7.478   2.042 130.257  0.00  0.00    +0.165 HD
ATOM     13  C   LIG A   1      -5.205   0.534 126.710  0.00  0.00    +0.014 A 
ATOM     14  C   LIG A   1      -6.314   0.125 125.963  0.00  0.00    -0.036 A 
ENDROOT
BRANCH   1  18
ATOM     15  C   LIG A   1      -5.719  -2.420 122.160  0.00  0.00    +0.038 C 
ATOM     16  C   LIG A   1      -5.386  -2.717 123.597  0.00  0.00    -0.079 C 
ATOM     17  C   LIG A   1      -4.738  -4.061 123.806  0.00  0.00    +0.038 C 
ATOM     18  C   LIG A   1      -5.627  -1.896 124.641  0.00  0.00    -0.020 C 
ENDBRANCH   1  18
BRANCH   3  19
ATOM     19  C   LIG A   1      -9.639   0.886 125.058  0.00  0.00    -0.015 C 
ATOM     20  C   LIG A   1      -9.504   2.068 124.425  0.00  0.00    +0.005 C 
BRANCH  20  21
ATOM     21  C   LIG A   1      -8.293   2.694 123.887  0.00  0.00    -0.023 A 
ATOM     22  C   LIG A   1      -8.057   2.688 122.504  0.00  0.00    +0.034 A 
ATOM     23  C   LIG A   1      -6.910   3.343 122.031  0.00  0.00    +0.047 A 
ATOM     24  N   LIG A   1      -6.458   3.534 120.744  0.00  0.00    -0.361 N 
ATOM     25  H   LIG A   1      -6.928   3.194 119.916  0.00  0.00    +0.165 HD
ATOM     26  C   LIG A   1      -5.308   4.278 120.750  0.00  0.00    +0.083 A 
ATOM     27  C   LIG A   1      -4.987   4.544 122.061  0.00  0.00    +0.027 A 
ATOM     28  C   LIG A   1      -5.992   3.960 122.882  0.00  0.00    -0.000 A 
ATOM     29  C   LIG A   1      -6.214   3.907 124.270  0.00  0.00    +0.010 A 
ATOM     30  C   LIG A   1      -7.368   3.276 124.758  0.00  0.00    +0.008 A 
ENDBRANCH  20  21
ENDBRANCH   3  19
TORSDOF 3
ENDMDL
MODEL 2
REMARK VINA RESULT:      -8.5      6.596     10.392
REMARK  Name = NuBBE_1085
REMARK  6 active torsions:
REMARK  status: ('A' for Active; 'I' for Inactive)
REMARK    1  A    between atoms: C_1  and  C_2
REMARK    2  A    between atoms: C_2  and  C_3
REMARK    3  A    between atoms: C_4  and  C_5
REMARK    4  A    between atoms: C_10  and  C_11
REMARK    5  A    between atoms: C_10  and  C_23
REMARK    6  A    between atoms: C_12  and  C_13
REMARK                            x       y       z     vdW  Elec       q    Type
REMARK                         _______ _______ _______ _____ _____    ______ ____
ROOT
ATOM      1  C   LIG A   1      -9.416   6.005 131.429  0.00  0.00    +0.043 C 
ATOM      2  C   LIG A   1      -9.928   4.544 131.393  0.00  0.00    +0.027 C 
ATOM      3  C   LIG A   1      -8.780   3.600 130.901  0.00  0.00    +0.012 C 
ATOM      4  C   LIG A   1      -9.047   3.197 129.444  0.00  0.00    +0.020 C 
ATOM      5  C   LIG A   1      -7.577   4.532 130.940  0.00  0.00    -0.032 A 
ATOM      6  C   LIG A   1      -6.249   4.183 130.692  0.00  0.00    +0.031 A 
ATOM      7  C   LIG A   1      -5.305   5.219 130.755  0.00  0.00    +0.047 A 
ATOM      8  C   LIG A   1      -5.637   6.541 131.060  0.00  0.00    -0.000 A 
ATOM      9  C   LIG A   1      -4.428   7.292 131.045  0.00  0.00    +0.027 A 
ATOM     10  C   LIG A   1      -3.405   6.434 130.717  0.00  0.00    +0.083 A 
ATOM     11  N   LIG A   1      -3.943   5.187 130.541  0.00  0.00    -0.361 N 
ATOM     12  H   LIG A   1      -3.426   4.359 130.282  0.00  0.00    +0.165 HD
ATOM     13  C   LIG A   1      -6.986   6.871 131.303  0.00  0.00    +0.014 A 
ATOM     14  C   LIG A   1      -7.938   5.850 131.225  0.00  0.00    -0.036 A 
ENDROOT
BRANCH   1  18
ATOM     15  C   LIG A   1     -12.382   7.053 131.410  0.00  0.00    +0.038 C 
ATOM     16  C   LIG A   1     -11.341   7.326 130.358  0.00  0.00    -0.079 C 
ATOM     17  C   LIG A   1     -11.837   8.176 129.218  0.00  0.00    +0.038 C 
ATOM     18  C   LIG A   1     -10.070   6.874 130.381  0.00  0.00    -0.020 C 
ENDBRANCH   1  18
BRANCH   3  19
ATOM     19  C   LIG A   1      -8.602   2.450 131.893  0.00  0.00    -0.015 C 
ATOM     20  C   LIG A   1      -8.102   2.366 133.141  0.00  0.00    +0.005 C 
BRANCH  20  21
ATOM     21  C   LIG A   1      -7.534   3.425 133.980  0.00  0.00    -0.023 A 
ATOM     22  C   LIG A   1      -8.382   4.344 134.617  0.00  0.00    +0.034 A 
ATOM     23  C   LIG A   1      -7.796   5.309 135.450  0.00  0.00    +0.047 A 
ATOM     24  N   LIG A   1      -8.376   6.291 136.224  0.00  0.00    -0.361 N 
ATOM     25  H   LIG A   1      -9.371   6.457 136.287  0.00  0.00    +0.165 HD
ATOM     26  C   LIG A   1      -7.415   6.978 136.917  0.00  0.00    +0.083 A 
ATOM     27  C   LIG A   1      -6.190   6.462 136.561  0.00  0.00    +0.027 A 
ATOM     28  C   LIG A   1      -6.416   5.405 135.636  0.00  0.00    -0.000 A 
ATOM     29  C   LIG A   1      -5.577   4.511 134.945  0.00  0.00    +0.010 A 
ATOM     30  C   LIG A   1      -6.147   3.526 134.126  0.00  0.00    +0.008 A 
ENDBRANCH  20  21
ENDBRANCH   3  19
TORSDOF 3
ENDMDL
MODEL 3
REMARK VINA RESULT:      -8.4      2.484      4.430
REMARK  Name = NuBBE_1085
REMARK  6 active torsions:
REMARK  status: ('A' for Active; 'I' for Inactive)
REMARK    1  A    between atoms: C_1  and  C_2
REMARK    2  A    between atoms: C_2  and  C_3
REMARK    3  A    between atoms: C_4  and  C_5
REMARK    4  A    between atoms: C_10  and  C_11
REMARK    5  A    between atoms: C_10  and  C_23
REMARK    6  A    between atoms: C_12  and  C_13
REMARK                            x       y       z     vdW  Elec       q    Type
REMARK                         _______ _______ _______ _____ _____    ______ ____
ROOT
ATOM      1  C   LIG A   1      -6.345  -1.109 128.272  0.00  0.00    +0.043 C 
ATOM      2  C   LIG A   1      -6.102   0.421 128.245  0.00  0.00    +0.027 C 
ATOM      3  C   LIG A   1      -6.447   0.980 126.824  0.00  0.00    +0.012 C 
ATOM      4  C   LIG A   1      -5.146   1.269 126.064  0.00  0.00    +0.020 C 
ATOM      5  C   LIG A   1      -7.136  -0.216 126.182  0.00  0.00    -0.032 A 
ATOM      6  C   LIG A   1      -7.747  -0.247 124.928  0.00  0.00    +0.031 A 
ATOM      7  C   LIG A   1      -8.295  -1.474 124.525  0.00  0.00    +0.047 A 
ATOM      8  C   LIG A   1      -8.260  -2.624 125.315  0.00  0.00    -0.000 A 
ATOM      9  C   LIG A   1      -8.920  -3.655 124.588  0.00  0.00    +0.027 A 
ATOM     10  C   LIG A   1      -9.317  -3.127 123.382  0.00  0.00    +0.083 A 
ATOM     11  N   LIG A   1      -8.934  -1.814 123.351  0.00  0.00    -0.361 N 
ATOM     12  H   LIG A   1      -9.085  -1.178 122.580  0.00  0.00    +0.165 HD
ATOM     13  C   LIG A   1      -7.634  -2.572 126.577  0.00  0.00    +0.014 A 
ATOM     14  C   LIG A   1      -7.068  -1.358 126.981  0.00  0.00    -0.036 A 
ENDROOT
BRANCH   1  18
ATOM     15  C   LIG A   1      -5.865  -3.711 129.972  0.00  0.00    +0.038 C 
ATOM     16  C   LIG A   1      -4.842  -3.011 129.121  0.00  0.00    -0.079 C 
ATOM     17  C   LIG A   1      -3.485  -3.665 129.139  0.00  0.00    +0.038 C 
ATOM     18  C   LIG A   1      -5.062  -1.896 128.392  0.00  0.00    -0.020 C 
ENDBRANCH   1  18
BRANCH   3  19
ATOM     19  C   LIG A   1      -7.420   2.153 126.958  0.00  0.00    -0.015 C 
ATOM     20  C   LIG A   1      -7.885   3.079 126.098  0.00  0.00    +0.005 C 
BRANCH  20  21
ATOM     21  C   LIG A   1      -7.575   3.257 124.676  0.00  0.00    -0.023 A 
ATOM     22  C   LIG A   1      -6.364   3.851 124.292  0.00  0.00    +0.034 A 
ATOM     23  C   LIG A   1      -6.089   3.954 122.920  0.00  0.00    +0.047 A 
ATOM     24  N   LIG A   1      -4.979   4.442 122.267  0.00  0.00    -0.361 N 
ATOM     25  H   LIG A   1      -4.163   4.822 122.728  0.00  0.00    +0.165 HD
ATOM     26  C   LIG A   1      -5.126   4.302 120.912  0.00  0.00    +0.083 A 
ATOM     27  C   LIG A   1      -6.364   3.750 120.679  0.00  0.00    +0.027 A 
ATOM     28  C   LIG A   1      -6.984   3.524 121.940  0.00  0.00    -0.000 A 
ATOM     29  C   LIG A   1      -8.219   2.982 122.341  0.00  0.00    +0.010 A 
ATOM     30  C   LIG A   1      -8.500   2.851 123.709  0.00  0.00    +0.008 A 
ENDBRANCH  20  21
ENDBRANCH   3  19
TORSDOF 3
ENDMDL
MODEL 4
REMARK VINA RESULT:      -8.3      2.904      4.933
REMARK  Name = NuBBE_1085
REMARK  6 active torsions:
REMARK  status: ('A' for Active; 'I' for Inactive)
REMARK    1  A    between atoms: C_1  and  C_2
REMARK    2  A    between atoms: C_2  and  C_3
REMARK    3  A    between atoms: C_4  and  C_5
REMARK    4  A    between atoms: C_10  and  C_11
REMARK    5  A    between atoms: C_10  and  C_23
REMARK    6  A    between atoms: C_12  and  C_13
REMARK                            x       y       z     vdW  Elec       q    Type
REMARK                         _______ _______ _______ _____ _____    ______ ____
ROOT
ATOM      1  C   LIG A   1      -7.923  -2.302 129.065  0.00  0.00    +0.043 C 
ATOM      2  C   LIG A   1      -7.516  -0.861 129.460  0.00  0.00    +0.027 C 
ATOM      3  C   LIG A   1      -7.305  -0.004 128.167  0.00  0.00    +0.012 C 
ATOM      4  C   LIG A   1      -5.801   0.179 127.922  0.00  0.00    +0.020 C 
ATOM      5  C   LIG A   1      -7.870  -0.923 127.093  0.00  0.00    -0.032 A 
ATOM      6  C   LIG A   1      -8.029  -0.618 125.741  0.00  0.00    +0.031 A 
ATOM      7  C   LIG A   1      -8.545  -1.636 124.924  0.00  0.00    +0.047 A 
ATOM      8  C   LIG A   1      -8.903  -2.897 125.405  0.00  0.00    -0.000 A 
ATOM      9  C   LIG A   1      -9.395  -3.645 124.299  0.00  0.00    +0.027 A 
ATOM     10  C   LIG A   1      -9.307  -2.848 123.182  0.00  0.00    +0.083 A 
ATOM     11  N   LIG A   1      -8.791  -1.640 123.567  0.00  0.00    -0.361 N 
ATOM     12  H   LIG A   1      -8.606  -0.860 122.952  0.00  0.00    +0.165 HD
ATOM     13  C   LIG A   1      -8.730  -3.183 126.774  0.00  0.00    +0.014 A 
ATOM     14  C   LIG A   1      -8.199  -2.183 127.594  0.00  0.00    -0.036 A 
ENDROOT
BRANCH   1  18
ATOM     15  C   LIG A   1      -7.013  -3.272 131.915  0.00  0.00    +0.038 C 
ATOM     16  C   LIG A   1      -6.446  -3.736 130.601  0.00  0.00    -0.079 C 
ATOM     17  C   LIG A   1      -5.340  -4.750 130.739  0.00  0.00    +0.038 C 
ATOM     18  C   LIG A   1      -6.849  -3.314 129.384  0.00  0.00    -0.020 C 
ENDBRANCH   1  18
BRANCH   3  19
ATOM     19  C   LIG A   1      -8.130   1.281 128.265  0.00  0.00    -0.015 C 
ATOM     20  C   LIG A   1      -8.244   2.375 127.487  0.00  0.00    +0.005 C 
BRANCH  20  21
ATOM     21  C   LIG A   1      -7.562   2.687 126.227  0.00  0.00    -0.023 A 
ATOM     22  C   LIG A   1      -8.289   2.717 125.027  0.00  0.00    +0.034 A 
ATOM     23  C   LIG A   1      -7.604   3.069 123.854  0.00  0.00    +0.047 A 
ATOM     24  N   LIG A   1      -8.063   3.223 122.565  0.00  0.00    -0.361 N 
ATOM     25  H   LIG A   1      -9.022   3.083 122.277  0.00  0.00    +0.165 HD
ATOM     26  C   LIG A   1      -7.044   3.626 121.742  0.00  0.00    +0.083 A 
ATOM     27  C   LIG A   1      -5.898   3.700 122.500  0.00  0.00    +0.027 A 
ATOM     28  C   LIG A   1      -6.238   3.352 123.837  0.00  0.00    -0.000 A 
ATOM     29  C   LIG A   1      -5.513   3.261 125.040  0.00  0.00    +0.010 A 
ATOM     30  C   LIG A   1      -6.186   2.932 126.225  0.00  0.00    +0.008 A 
ENDBRANCH  20  21
ENDBRANCH   3  19
TORSDOF 3
ENDMDL
MODEL 5
REMARK VINA RESULT:      -8.3      5.247      9.092
REMARK  Name = NuBBE_1085
REMARK  6 active torsions:
REMARK  status: ('A' for Active; 'I' for Inactive)
REMARK    1  A    between atoms: C_1  and  C_2
REMARK    2  A    between atoms: C_2  and  C_3
REMARK    3  A    between atoms: C_4  and  C_5
REMARK    4  A    between atoms: C_10  and  C_11
REMARK    5  A    between atoms: C_10  and  C_23
REMARK    6  A    between atoms: C_12  and  C_13
REMARK                            x       y       z     vdW  Elec       q    Type
REMARK                         _______ _______ _______ _____ _____    ______ ____
ROOT
ATOM      1  C   LIG A   1      -7.113   5.669 131.210  0.00  0.00    +0.043 C 
ATOM      2  C   LIG A   1      -7.014   4.840 132.514  0.00  0.00    +0.027 C 
ATOM      3  C   LIG A   1      -8.321   5.028 133.355  0.00  0.00    +0.012 C 
ATOM      4  C   LIG A   1      -8.037   5.972 134.530  0.00  0.00    +0.020 C 
ATOM      5  C   LIG A   1      -9.227   5.740 132.359  0.00  0.00    -0.032 A 
ATOM      6  C   LIG A   1     -10.570   6.068 132.547  0.00  0.00    +0.031 A 
ATOM      7  C   LIG A   1     -11.201   6.756 131.500  0.00  0.00    +0.047 A 
ATOM      8  C   LIG A   1     -10.556   7.101 130.311  0.00  0.00    -0.000 A 
ATOM      9  C   LIG A   1     -11.510   7.768 129.492  0.00  0.00    +0.027 A 
ATOM     10  C   LIG A   1     -12.691   7.835 130.194  0.00  0.00    +0.083 A 
ATOM     11  N   LIG A   1     -12.495   7.225 131.404  0.00  0.00    -0.361 N 
ATOM     12  H   LIG A   1     -13.189   7.134 132.133  0.00  0.00    +0.165 HD
ATOM     13  C   LIG A   1      -9.197   6.763 130.145  0.00  0.00    +0.014 A 
ATOM     14  C   LIG A   1      -8.553   6.094 131.190  0.00  0.00    -0.036 A 
ENDROOT
BRANCH   1  18
ATOM     15  C   LIG A   1      -4.324   5.809 129.762  0.00  0.00    +0.038 C 
ATOM     16  C   LIG A   1      -4.953   6.906 130.577  0.00  0.00    -0.079 C 
ATOM     17  C   LIG A   1      -4.111   8.152 130.674  0.00  0.00    +0.038 C 
ATOM     18  C   LIG A   1      -6.154   6.835 131.190  0.00  0.00    -0.020 C 
ENDBRANCH   1  18
BRANCH   3  19
ATOM     19  C   LIG A   1      -8.896   3.657 133.719  0.00  0.00    -0.015 C 
ATOM     20  C   LIG A   1      -9.048   2.502 133.043  0.00  0.00    +0.005 C 
BRANCH  20  21
ATOM     21  C   LIG A   1      -8.687   2.189 131.658  0.00  0.00    -0.023 A 
ATOM     22  C   LIG A   1      -7.573   1.379 131.390  0.00  0.00    +0.034 A 
ATOM     23  C   LIG A   1      -7.296   1.065 130.051  0.00  0.00    +0.047 A 
ATOM     24  N   LIG A   1      -6.314   0.268 129.506  0.00  0.00    -0.361 N 
ATOM     25  H   LIG A   1      -5.612  -0.223 130.042  0.00  0.00    +0.165 HD
ATOM     26  C   LIG A   1      -6.451   0.209 128.144  0.00  0.00    +0.083 A 
ATOM     27  C   LIG A   1      -7.514   1.009 127.795  0.00  0.00    +0.027 A 
ATOM     28  C   LIG A   1      -8.059   1.555 128.990  0.00  0.00    -0.000 A 
ATOM     29  C   LIG A   1      -9.138   2.414 129.273  0.00  0.00    +0.010 A 
ATOM     30  C   LIG A   1      -9.443   2.719 130.607  0.00  0.00    +0.008 A 
ENDBRANCH  20  21
ENDBRANCH   3  19
TORSDOF 3
ENDMDL
MODEL 6
REMARK VINA RESULT:      -8.2      5.092      7.488
REMARK  Name = NuBBE_1085
REMARK  6 active torsions:
REMARK  status: ('A' for Active; 'I' for Inactive)
REMARK    1  A    between atoms: C_1  and  C_2
REMARK    2  A    between atoms: C_2  and  C_3
REMARK    3  A    between atoms: C_4  and  C_5
REMARK    4  A    between atoms: C_10  and  C_11
REMARK    5  A    between atoms: C_10  and  C_23
REMARK    6  A    between atoms: C_12  and  C_13
REMARK                            x       y       z     vdW  Elec       q    Type
REMARK                         _______ _______ _______ _____ _____    ______ ____
ROOT
ATOM      1  C   LIG A   1      -8.817   3.299 129.743  0.00  0.00    +0.043 C 
ATOM      2  C   LIG A   1      -9.681   3.266 131.029  0.00  0.00    +0.027 C 
ATOM      3  C   LIG A   1      -8.831   3.769 132.243  0.00  0.00    +0.012 C 
ATOM      4  C   LIG A   1      -8.411   2.568 133.100  0.00  0.00    +0.020 C 
ATOM      5  C   LIG A   1      -7.599   4.329 131.545  0.00  0.00    -0.032 A 
ATOM      6  C   LIG A   1      -6.540   5.007 132.149  0.00  0.00    +0.031 A 
ATOM      7  C   LIG A   1      -5.490   5.408 131.310  0.00  0.00    +0.047 A 
ATOM      8  C   LIG A   1      -5.475   5.171 129.934  0.00  0.00    -0.000 A 
ATOM      9  C   LIG A   1      -4.270   5.730 129.423  0.00  0.00    +0.027 A 
ATOM     10  C   LIG A   1      -3.576   6.267 130.481  0.00  0.00    +0.083 A 
ATOM     11  N   LIG A   1      -4.317   6.067 131.615  0.00  0.00    -0.361 N 
ATOM     12  H   LIG A   1      -4.047   6.349 132.547  0.00  0.00    +0.165 HD
ATOM     13  C   LIG A   1      -6.555   4.481 129.346  0.00  0.00    +0.014 A 
ATOM     14  C   LIG A   1      -7.598   4.060 130.176  0.00  0.00    -0.036 A 
ENDROOT
BRANCH   1  18
ATOM     15  C   LIG A   1      -8.176   2.484 126.773  0.00  0.00    +0.038 C 
ATOM     16  C   LIG A   1      -8.225   1.554 127.954  0.00  0.00    -0.079 C 
ATOM     17  C   LIG A   1      -7.941   0.115 127.607  0.00  0.00    +0.038 C 
ATOM     18  C   LIG A   1      -8.497   1.917 129.225  0.00  0.00    -0.020 C 
ENDBRANCH   1  18
BRANCH   3  19
ATOM     19  C   LIG A   1      -9.588   4.881 132.972  0.00  0.00    -0.015 C 
ATOM     20  C   LIG A   1     -10.287   5.956 132.559  0.00  0.00    +0.005 C 
BRANCH  20  21
ATOM     21  C   LIG A   1     -10.548   6.418 131.193  0.00  0.00    -0.023 A 
ATOM     22  C   LIG A   1     -11.785   6.149 130.587  0.00  0.00    +0.034 A 
ATOM     23  C   LIG A   1     -12.008   6.654 129.297  0.00  0.00    +0.047 A 
ATOM     24  N   LIG A   1     -13.123   6.586 128.492  0.00  0.00    -0.361 N 
ATOM     25  H   LIG A   1     -13.985   6.121 128.745  0.00  0.00    +0.165 HD
ATOM     26  C   LIG A   1     -12.908   7.266 127.323  0.00  0.00    +0.083 A 
ATOM     27  C   LIG A   1     -11.622   7.753 127.352  0.00  0.00    +0.027 A 
ATOM     28  C   LIG A   1     -11.041   7.375 128.595  0.00  0.00    -0.000 A 
ATOM     29  C   LIG A   1      -9.786   7.587 129.195  0.00  0.00    +0.010 A 
ATOM     30  C   LIG A   1      -9.555   7.108 130.493  0.00  0.00    +0.008 A 
ENDBRANCH  20  21
ENDBRANCH   3  19
TORSDOF 3
ENDMDL
MODEL 7
REMARK VINA RESULT:      -8.0      5.257      8.630
REMARK  Name = NuBBE_1085
REMARK  6 active torsions:
REMARK  status: ('A' for Active; 'I' for Inactive)
REMARK    1  A    between atoms: C_1  and  C_2
REMARK    2  A    between atoms: C_2  and  C_3
REMARK    3  A    between atoms: C_4  and  C_5
REMARK    4  A    between atoms: C_10  and  C_11
REMARK    5  A    between atoms: C_10  and  C_23
REMARK    6  A    between atoms: C_12  and  C_13
REMARK                            x       y       z     vdW  Elec       q    Type
REMARK                         _______ _______ _______ _____ _____    ______ ____
ROOT
ATOM      1  C   LIG A   1      -5.859   2.659 131.048  0.00  0.00    +0.043 C 
ATOM      2  C   LIG A   1      -5.612   2.627 132.577  0.00  0.00    +0.027 C 
ATOM      3  C   LIG A   1      -4.312   3.432 132.913  0.00  0.00    +0.012 C 
ATOM      4  C   LIG A   1      -3.173   2.450 133.217  0.00  0.00    +0.020 C 
ATOM      5  C   LIG A   1      -4.025   4.121 131.586  0.00  0.00    -0.032 A 
ATOM      6  C   LIG A   1      -3.021   5.058 131.337  0.00  0.00    +0.031 A 
ATOM      7  C   LIG A   1      -2.922   5.540 130.024  0.00  0.00    +0.047 A 
ATOM      8  C   LIG A   1      -3.774   5.137 128.994  0.00  0.00    -0.000 A 
ATOM      9  C   LIG A   1      -3.382   5.843 127.822  0.00  0.00    +0.027 A 
ATOM     10  C   LIG A   1      -2.304   6.632 128.150  0.00  0.00    +0.083 A 
ATOM     11  N   LIG A   1      -2.032   6.441 129.478  0.00  0.00    -0.361 N 
ATOM     12  H   LIG A   1      -1.284   6.885 129.991  0.00  0.00    +0.165 HD
ATOM     13  C   LIG A   1      -4.779   4.186 129.267  0.00  0.00    +0.014 A 
ATOM     14  C   LIG A   1      -4.875   3.685 130.569  0.00  0.00    -0.036 A 
ENDROOT
BRANCH   1  18
ATOM     15  C   LIG A   1      -7.935   1.078 129.291  0.00  0.00    +0.038 C 
ATOM     16  C   LIG A   1      -6.549   0.617 129.651  0.00  0.00    -0.079 C 
ATOM     17  C   LIG A   1      -6.194  -0.737 129.093  0.00  0.00    +0.038 C 
ATOM     18  C   LIG A   1      -5.666   1.308 130.402  0.00  0.00    -0.020 C 
ENDBRANCH   1  18
BRANCH   3  19
ATOM     19  C   LIG A   1      -4.617   4.465 134.000  0.00  0.00    -0.015 C 
ATOM     20  C   LIG A   1      -5.567   5.408 134.148  0.00  0.00    +0.005 C 
BRANCH  20  21
ATOM     21  C   LIG A   1      -6.671   5.755 133.249  0.00  0.00    -0.023 A 
ATOM     22  C   LIG A   1      -7.990   5.430 133.600  0.00  0.00    +0.034 A 
ATOM     23  C   LIG A   1      -9.017   5.827 132.732  0.00  0.00    +0.047 A 
ATOM     24  N   LIG A   1     -10.383   5.687 132.842  0.00  0.00    -0.361 N 
ATOM     25  H   LIG A   1     -10.853   5.240 133.618  0.00  0.00    +0.165 HD
ATOM     26  C   LIG A   1     -11.009   6.270 131.772  0.00  0.00    +0.083 A 
ATOM     27  C   LIG A   1     -10.035   6.765 130.935  0.00  0.00    +0.027 A 
ATOM     28  C   LIG A   1      -8.772   6.493 131.530  0.00  0.00    -0.000 A 
ATOM     29  C   LIG A   1      -7.439   6.759 131.165  0.00  0.00    +0.010 A 
ATOM     30  C   LIG A   1      -6.401   6.390 132.033  0.00  0.00    +0.008 A 
ENDBRANCH  20  21
ENDBRANCH   3  19
TORSDOF 3
ENDMDL
MODEL 8
REMARK VINA RESULT:      -7.9      4.690      8.667
REMARK  Name = NuBBE_1085
REMARK  6 active torsions:
REMARK  status: ('A' for Active; 'I' for Inactive)
REMARK    1  A    between atoms: C_1  and  C_2
REMARK    2  A    between atoms: C_2  and  C_3
REMARK    3  A    between atoms: C_4  and  C_5
REMARK    4  A    between atoms: C_10  and  C_11
REMARK    5  A    between atoms: C_10  and  C_23
REMARK    6  A    between atoms: C_12  and  C_13
REMARK                            x       y       z     vdW  Elec       q    Type
REMARK                         _______ _______ _______ _____ _____    ______ ____
ROOT
ATOM      1  C   LIG A   1      -8.783   6.203 131.466  0.00  0.00    +0.043 C 
ATOM      2  C   LIG A   1      -8.380   5.985 132.946  0.00  0.00    +0.027 C 
ATOM      3  C   LIG A   1      -7.897   4.510 133.145  0.00  0.00    +0.012 C 
ATOM      4  C   LIG A   1      -8.997   3.708 133.852  0.00  0.00    +0.020 C 
ATOM      5  C   LIG A   1      -7.785   4.026 131.705  0.00  0.00    -0.032 A 
ATOM      6  C   LIG A   1      -7.292   2.792 131.281  0.00  0.00    +0.031 A 
ATOM      7  C   LIG A   1      -7.312   2.549 129.900  0.00  0.00    +0.047 A 
ATOM      8  C   LIG A   1      -7.781   3.474 128.965  0.00  0.00    -0.000 A 
ATOM      9  C   LIG A   1      -7.631   2.886 127.678  0.00  0.00    +0.027 A 
ATOM     10  C   LIG A   1      -7.104   1.627 127.851  0.00  0.00    +0.083 A 
ATOM     11  N   LIG A   1      -6.918   1.431 129.193  0.00  0.00    -0.361 N 
ATOM     12  H   LIG A   1      -6.553   0.589 129.616  0.00  0.00    +0.165 HD
ATOM     13  C   LIG A   1      -8.277   4.714 129.417  0.00  0.00    +0.014 A 
ATOM     14  C   LIG A   1      -8.279   4.960 130.794  0.00  0.00    -0.036 A 
ENDROOT
BRANCH   1  18
ATOM     15  C   LIG A   1     -10.226   7.868 129.221  0.00  0.00    +0.038 C 
ATOM     16  C   LIG A   1     -10.900   7.122 130.340  0.00  0.00    -0.079 C 
ATOM     17  C   LIG A   1     -12.403   7.234 130.327  0.00  0.00    +0.038 C 
ATOM     18  C   LIG A   1     -10.269   6.407 131.295  0.00  0.00    -0.020 C 
ENDBRANCH   1  18
BRANCH   3  19
ATOM     19  C   LIG A   1      -6.524   4.508 133.821  0.00  0.00    -0.015 C 
ATOM     20  C   LIG A   1      -5.289   4.865 133.421  0.00  0.00    +0.005 C 
BRANCH  20  21
ATOM     21  C   LIG A   1      -4.856   5.398 132.126  0.00  0.00    -0.023 A 
ATOM     22  C   LIG A   1      -4.111   4.593 131.251  0.00  0.00    +0.034 A 
ATOM     23  C   LIG A   1      -3.762   5.129 130.002  0.00  0.00    +0.047 A 
ATOM     24  N   LIG A   1      -3.086   4.562 128.945  0.00  0.00    -0.361 N 
ATOM     25  H   LIG A   1      -2.722   3.619 128.938  0.00  0.00    +0.165 HD
ATOM     26  C   LIG A   1      -3.013   5.443 127.899  0.00  0.00    +0.083 A 
ATOM     27  C   LIG A   1      -3.618   6.614 128.295  0.00  0.00    +0.027 A 
ATOM     28  C   LIG A   1      -4.097   6.429 129.622  0.00  0.00    -0.000 A 
ATOM     29  C   LIG A   1      -4.795   7.242 130.534  0.00  0.00    +0.010 A 
ATOM     30  C   LIG A   1      -5.171   6.714 131.778  0.00  0.00    +0.008 A 
ENDBRANCH  20  21
ENDBRANCH   3  19
TORSDOF 3
ENDMDL
MODEL 9
REMARK VINA RESULT:      -7.8      5.261      8.250
REMARK  Name = NuBBE_1085
REMARK  6 active torsions:
REMARK  status: ('A' for Active; 'I' for Inactive)
REMARK    1  A    between atoms: C_1  and  C_2
REMARK    2  A    between atoms: C_2  and  C_3
REMARK    3  A    between atoms: C_4  and  C_5
REMARK    4  A    between atoms: C_10  and  C_11
REMARK    5  A    between atoms: C_10  and  C_23
REMARK    6  A    between atoms: C_12  and  C_13
REMARK                            x       y       z     vdW  Elec       q    Type
REMARK                         _______ _______ _______ _____ _____    ______ ____
ROOT
ATOM      1  C   LIG A   1      -6.085  -2.260 131.976  0.00  0.00    +0.043 C 
ATOM      2  C   LIG A   1      -4.749  -1.491 131.828  0.00  0.00    +0.027 C 
ATOM      3  C   LIG A   1      -4.304  -1.499 130.327  0.00  0.00    +0.012 C 
ATOM      4  C   LIG A   1      -3.163  -2.508 130.143  0.00  0.00    +0.020 C 
ATOM      5  C   LIG A   1      -5.551  -2.038 129.640  0.00  0.00    -0.032 A 
ATOM      6  C   LIG A   1      -5.753  -2.163 128.265  0.00  0.00    +0.031 A 
ATOM      7  C   LIG A   1      -6.975  -2.718 127.856  0.00  0.00    +0.047 A 
ATOM      8  C   LIG A   1      -7.968  -3.124 128.749  0.00  0.00    -0.000 A 
ATOM      9  C   LIG A   1      -9.056  -3.616 127.974  0.00  0.00    +0.027 A 
ATOM     10  C   LIG A   1      -8.702  -3.521 126.648  0.00  0.00    +0.083 A 
ATOM     11  N   LIG A   1      -7.445  -2.981 126.587  0.00  0.00    -0.361 N 
ATOM     12  H   LIG A   1      -6.925  -2.805 125.739  0.00  0.00    +0.165 HD
ATOM     13  C   LIG A   1      -7.741  -2.993 130.135  0.00  0.00    +0.014 A 
ATOM     14  C   LIG A   1      -6.519  -2.459 130.553  0.00  0.00    -0.036 A 
ENDROOT
BRANCH   1  18
ATOM     15  C   LIG A   1      -7.985  -3.404 134.206  0.00  0.00    +0.038 C 
ATOM     16  C   LIG A   1      -6.731  -4.057 133.694  0.00  0.00    -0.079 C 
ATOM     17  C   LIG A   1      -6.412  -5.370 134.361  0.00  0.00    +0.038 C 
ATOM     18  C   LIG A   1      -5.926  -3.557 132.732  0.00  0.00    -0.020 C 
ENDBRANCH   1  18
BRANCH   3  19
ATOM     19  C   LIG A   1      -4.015  -0.068 129.871  0.00  0.00    -0.015 C 
ATOM     20  C   LIG A   1      -4.722   1.078 129.897  0.00  0.00    +0.005 C 
BRANCH  20  21
ATOM     21  C   LIG A   1      -6.077   1.315 130.404  0.00  0.00    -0.023 A 
ATOM     22  C   LIG A   1      -6.262   1.889 131.671  0.00  0.00    +0.034 A 
ATOM     23  C   LIG A   1      -7.575   2.143 132.091  0.00  0.00    +0.047 A 
ATOM     24  N   LIG A   1      -8.045   2.731 133.246  0.00  0.00    -0.361 N 
ATOM     25  H   LIG A   1      -7.458   3.072 133.994  0.00  0.00    +0.165 HD
ATOM     26  C   LIG A   1      -9.412   2.817 133.213  0.00  0.00    +0.083 A 
ATOM     27  C   LIG A   1      -9.840   2.244 132.038  0.00  0.00    +0.027 A 
ATOM     28  C   LIG A   1      -8.690   1.815 131.318  0.00  0.00    -0.000 A 
ATOM     29  C   LIG A   1      -8.489   1.187 130.075  0.00  0.00    +0.010 A 
ATOM     30  C   LIG A   1      -7.181   0.947 129.629  0.00  0.00    +0.008 A 
ENDBRANCH  20  21
ENDBRANCH   3  19
TORSDOF 3
ENDMDL
