MODEL 1
REMARK VINA RESULT:     -10.4      0.000      0.000
REMARK  Name = NuBBE_2229
REMARK  7 active torsions:
REMARK  status: ('A' for Active; 'I' for Inactive)
REMARK    1  A    between atoms: C_1  and  C_3
REMARK    2  A    between atoms: C_1  and  C_11
REMARK    3  A    between atoms: C_4  and  C_5
REMARK    4  A    between atoms: C_16  and  C_18
REMARK    5  A    between atoms: C_16  and  C_19
REMARK    6  A    between atoms: C_22  and  C_29
REMARK    7  A    between atoms: C_27  and  O_28
REMARK                            x       y       z     vdW  Elec       q    Type
REMARK                         _______ _______ _______ _____ _____    ______ ____
ROOT
ATOM      1  C   LIG A   1      -9.333   0.779 125.195  0.00  0.00    +0.105 A 
ATOM      2  C   LIG A   1      -9.126  -0.604 125.332  0.00  0.00    +0.142 A 
ATOM      3  C   LIG A   1      -8.492  -1.121 126.464  0.00  0.00    +0.040 A 
ATOM      4  C   LIG A   1      -8.356  -2.611 126.574  0.00  0.00    +0.037 C 
ATOM      5  C   LIG A   1      -7.581  -2.956 125.305  0.00  0.00    +0.040 C 
ATOM      6  C   LIG A   1      -8.513  -2.574 124.086  0.00  0.00    +0.108 C 
ATOM      7  O   LIG A   1      -9.466  -1.490 124.342  0.00  0.00    -0.485 OA
ATOM      8  C   LIG A   1      -7.725  -2.222 122.817  0.00  0.00    +0.056 C 
ATOM      9  C   LIG A   1      -9.407  -3.788 123.756  0.00  0.00    +0.056 C 
ATOM     10  C   LIG A   1      -6.184  -2.262 125.336  0.00  0.00    +0.012 C 
ATOM     11  C   LIG A   1      -5.482  -2.310 126.714  0.00  0.00    +0.048 C 
ATOM     12  C   LIG A   1      -6.395  -2.109 127.957  0.00  0.00    +0.108 C 
ATOM     13  C   LIG A   1      -7.625  -3.002 127.846  0.00  0.00    +0.056 C 
ATOM     14  O   LIG A   1      -6.804  -0.730 128.141  0.00  0.00    -0.485 OA
ATOM     15  C   LIG A   1      -7.777  -0.271 127.294  0.00  0.00    +0.132 A 
ATOM     16  C   LIG A   1      -7.924   1.102 127.171  0.00  0.00    +0.092 A 
ATOM     17  C   LIG A   1      -8.720   1.624 126.143  0.00  0.00    +0.135 A 
ATOM     18  C   LIG A   1      -5.605  -2.464 129.223  0.00  0.00    +0.056 C 
ENDROOT
BRANCH   1  19
ATOM     19  C   LIG A   1     -10.122   1.307 124.038  0.00  0.00    +0.193 C 
ATOM     20  O   LIG A   1     -11.347   1.414 124.095  0.00  0.00    -0.287 OA
BRANCH  19  21
ATOM     21  C   LIG A   1      -9.375   1.739 122.818  0.00  0.00    +0.052 C 
ATOM     22  C   LIG A   1      -8.807   2.956 122.742  0.00  0.00    +0.012 C 
BRANCH  22  23
ATOM     23  C   LIG A   1      -8.076   3.456 121.563  0.00  0.00    -0.025 A 
ATOM     24  C   LIG A   1      -8.798   3.847 120.425  0.00  0.00    +0.008 A 
ATOM     25  C   LIG A   1      -8.139   4.339 119.293  0.00  0.00    +0.001 A 
ATOM     26  C   LIG A   1      -6.751   4.457 119.287  0.00  0.00    +0.000 A 
ATOM     27  C   LIG A   1      -6.023   4.090 120.415  0.00  0.00    +0.001 A 
ATOM     28  C   LIG A   1      -6.682   3.601 121.546  0.00  0.00    +0.008 A 
ENDBRANCH  22  23
ENDBRANCH  19  21
ENDBRANCH   1  19
BRANCH  17  29
ATOM     29  O   LIG A   1      -8.800   2.988 126.029  0.00  0.00    -0.506 OA
ATOM     30  H   LIG A   1      -8.569   3.400 126.879  0.00  0.00    +0.292 HD
ENDBRANCH  17  29
TORSDOF 4
ENDMDL
MODEL 2
REMARK VINA RESULT:      -9.4      1.166      1.495
REMARK  Name = NuBBE_2229
REMARK  7 active torsions:
REMARK  status: ('A' for Active; 'I' for Inactive)
REMARK    1  A    between atoms: C_1  and  C_3
REMARK    2  A    between atoms: C_1  and  C_11
REMARK    3  A    between atoms: C_4  and  C_5
REMARK    4  A    between atoms: C_16  and  C_18
REMARK    5  A    between atoms: C_16  and  C_19
REMARK    6  A    between atoms: C_22  and  C_29
REMARK    7  A    between atoms: C_27  and  O_28
REMARK                            x       y       z     vdW  Elec       q    Type
REMARK                         _______ _______ _______ _____ _____    ______ ____
ROOT
ATOM      1  C   LIG A   1      -8.580   0.994 126.371  0.00  0.00    +0.105 A 
ATOM      2  C   LIG A   1      -8.359  -0.394 126.333  0.00  0.00    +0.142 A 
ATOM      3  C   LIG A   1      -8.073  -1.103 127.502  0.00  0.00    +0.040 A 
ATOM      4  C   LIG A   1      -7.907  -2.590 127.399  0.00  0.00    +0.037 C 
ATOM      5  C   LIG A   1      -6.771  -2.716 126.389  0.00  0.00    +0.040 C 
ATOM      6  C   LIG A   1      -7.308  -2.124 125.024  0.00  0.00    +0.108 C 
ATOM      7  O   LIG A   1      -8.343  -1.094 125.153  0.00  0.00    -0.485 OA
ATOM      8  C   LIG A   1      -6.191  -1.563 124.133  0.00  0.00    +0.056 C 
ATOM      9  C   LIG A   1      -8.003  -3.258 124.241  0.00  0.00    +0.056 C 
ATOM     10  C   LIG A   1      -5.482  -2.047 126.959  0.00  0.00    +0.012 C 
ATOM     11  C   LIG A   1      -5.227  -2.336 128.457  0.00  0.00    +0.048 C 
ATOM     12  C   LIG A   1      -6.480  -2.346 129.377  0.00  0.00    +0.108 C 
ATOM     13  C   LIG A   1      -7.577  -3.199 128.750  0.00  0.00    +0.056 C 
ATOM     14  O   LIG A   1      -6.989  -1.017 129.655  0.00  0.00    -0.485 OA
ATOM     15  C   LIG A   1      -7.682  -0.413 128.639  0.00  0.00    +0.132 A 
ATOM     16  C   LIG A   1      -7.849   0.962 128.707  0.00  0.00    +0.092 A 
ATOM     17  C   LIG A   1      -8.321   1.658 127.586  0.00  0.00    +0.135 A 
ATOM     18  C   LIG A   1      -6.094  -2.919 130.747  0.00  0.00    +0.056 C 
ENDROOT
BRANCH   1  19
ATOM     19  C   LIG A   1      -9.006   1.718 125.132  0.00  0.00    +0.193 C 
ATOM     20  O   LIG A   1     -10.197   1.860 124.852  0.00  0.00    -0.287 OA
BRANCH  19  21
ATOM     21  C   LIG A   1      -7.943   2.301 124.258  0.00  0.00    +0.052 C 
ATOM     22  C   LIG A   1      -8.243   2.859 123.072  0.00  0.00    +0.012 C 
BRANCH  22  23
ATOM     23  C   LIG A   1      -7.245   3.431 122.150  0.00  0.00    -0.025 A 
ATOM     24  C   LIG A   1      -7.610   3.689 120.821  0.00  0.00    +0.008 A 
ATOM     25  C   LIG A   1      -6.694   4.244 119.921  0.00  0.00    +0.001 A 
ATOM     26  C   LIG A   1      -5.403   4.557 120.341  0.00  0.00    +0.000 A 
ATOM     27  C   LIG A   1      -5.031   4.322 121.662  0.00  0.00    +0.001 A 
ATOM     28  C   LIG A   1      -5.949   3.771 122.560  0.00  0.00    +0.008 A 
ENDBRANCH  22  23
ENDBRANCH  19  21
ENDBRANCH   1  19
BRANCH  17  29
ATOM     29  O   LIG A   1      -8.426   3.022 127.682  0.00  0.00    -0.506 OA
ATOM     30  H   LIG A   1      -7.886   3.440 126.990  0.00  0.00    +0.292 HD
ENDBRANCH  17  29
TORSDOF 4
ENDMDL
MODEL 3
REMARK VINA RESULT:      -9.1      1.862      3.489
REMARK  Name = NuBBE_2229
REMARK  7 active torsions:
REMARK  status: ('A' for Active; 'I' for Inactive)
REMARK    1  A    between atoms: C_1  and  C_3
REMARK    2  A    between atoms: C_1  and  C_11
REMARK    3  A    between atoms: C_4  and  C_5
REMARK    4  A    between atoms: C_16  and  C_18
REMARK    5  A    between atoms: C_16  and  C_19
REMARK    6  A    between atoms: C_22  and  C_29
REMARK    7  A    between atoms: C_27  and  O_28
REMARK                            x       y       z     vdW  Elec       q    Type
REMARK                         _______ _______ _______ _____ _____    ______ ____
ROOT
ATOM      1  C   LIG A   1      -6.483   1.769 125.850  0.00  0.00    +0.105 A 
ATOM      2  C   LIG A   1      -7.677   1.095 125.543  0.00  0.00    +0.142 A 
ATOM      3  C   LIG A   1      -7.756  -0.297 125.642  0.00  0.00    +0.040 A 
ATOM      4  C   LIG A   1      -9.077  -0.948 125.357  0.00  0.00    +0.037 C 
ATOM      5  C   LIG A   1      -9.364  -0.481 123.934  0.00  0.00    +0.040 C 
ATOM      6  C   LIG A   1      -9.524   1.091 123.994  0.00  0.00    +0.108 C 
ATOM      7  O   LIG A   1      -8.783   1.754 125.071  0.00  0.00    -0.485 OA
ATOM      8  C   LIG A   1      -9.159   1.782 122.673  0.00  0.00    +0.056 C 
ATOM      9  C   LIG A   1     -11.001   1.419 124.299  0.00  0.00    +0.056 C 
ATOM     10  C   LIG A   1      -8.258  -1.015 122.971  0.00  0.00    +0.012 C 
ATOM     11  C   LIG A   1      -7.835  -2.478 123.240  0.00  0.00    +0.048 C 
ATOM     12  C   LIG A   1      -7.731  -2.900 124.733  0.00  0.00    +0.108 C 
ATOM     13  C   LIG A   1      -8.981  -2.458 125.484  0.00  0.00    +0.056 C 
ATOM     14  O   LIG A   1      -6.550  -2.371 125.389  0.00  0.00    -0.485 OA
ATOM     15  C   LIG A   1      -6.589  -1.042 125.718  0.00  0.00    +0.132 A 
ATOM     16  C   LIG A   1      -5.381  -0.413 125.984  0.00  0.00    +0.092 A 
ATOM     17  C   LIG A   1      -5.334   0.984 126.075  0.00  0.00    +0.135 A 
ATOM     18  C   LIG A   1      -7.584  -4.424 124.816  0.00  0.00    +0.056 C 
ENDROOT
BRANCH   1  19
ATOM     19  C   LIG A   1      -6.450   3.266 125.860  0.00  0.00    +0.193 C 
ATOM     20  O   LIG A   1      -6.496   3.899 126.914  0.00  0.00    -0.287 OA
BRANCH  19  21
ATOM     21  C   LIG A   1      -6.321   3.974 124.550  0.00  0.00    +0.052 C 
ATOM     22  C   LIG A   1      -5.954   3.317 123.435  0.00  0.00    +0.012 C 
BRANCH  22  23
ATOM     23  C   LIG A   1      -5.784   3.954 122.117  0.00  0.00    -0.025 A 
ATOM     24  C   LIG A   1      -6.736   3.719 121.115  0.00  0.00    +0.008 A 
ATOM     25  C   LIG A   1      -6.615   4.317 119.855  0.00  0.00    +0.001 A 
ATOM     26  C   LIG A   1      -5.545   5.168 119.585  0.00  0.00    +0.000 A 
ATOM     27  C   LIG A   1      -4.601   5.425 120.576  0.00  0.00    +0.001 A 
ATOM     28  C   LIG A   1      -4.726   4.829 121.834  0.00  0.00    +0.008 A 
ENDBRANCH  22  23
ENDBRANCH  19  21
ENDBRANCH   1  19
BRANCH  17  29
ATOM     29  O   LIG A   1      -4.113   1.567 126.292  0.00  0.00    -0.506 OA
ATOM     30  H   LIG A   1      -4.015   1.778 127.236  0.00  0.00    +0.292 HD
ENDBRANCH  17  29
TORSDOF 4
ENDMDL
MODEL 4
REMARK VINA RESULT:      -8.9      1.501      3.738
REMARK  Name = NuBBE_2229
REMARK  7 active torsions:
REMARK  status: ('A' for Active; 'I' for Inactive)
REMARK    1  A    between atoms: C_1  and  C_3
REMARK    2  A    between atoms: C_1  and  C_11
REMARK    3  A    between atoms: C_4  and  C_5
REMARK    4  A    between atoms: C_16  and  C_18
REMARK    5  A    between atoms: C_16  and  C_19
REMARK    6  A    between atoms: C_22  and  C_29
REMARK    7  A    between atoms: C_27  and  O_28
REMARK                            x       y       z     vdW  Elec       q    Type
REMARK                         _______ _______ _______ _____ _____    ______ ____
ROOT
ATOM      1  C   LIG A   1      -8.537  -0.464 125.711  0.00  0.00    +0.105 A 
ATOM      2  C   LIG A   1      -7.636  -0.050 126.707  0.00  0.00    +0.142 A 
ATOM      3  C   LIG A   1      -6.916  -0.988 127.451  0.00  0.00    +0.040 A 
ATOM      4  C   LIG A   1      -5.928  -0.477 128.457  0.00  0.00    +0.037 C 
ATOM      5  C   LIG A   1      -6.806   0.384 129.360  0.00  0.00    +0.040 C 
ATOM      6  C   LIG A   1      -7.351   1.570 128.468  0.00  0.00    +0.108 C 
ATOM      7  O   LIG A   1      -7.478   1.272 127.039  0.00  0.00    -0.485 OA
ATOM      8  C   LIG A   1      -8.697   2.120 128.959  0.00  0.00    +0.056 C 
ATOM      9  C   LIG A   1      -6.329   2.727 128.519  0.00  0.00    +0.056 C 
ATOM     10  C   LIG A   1      -7.891  -0.506 130.043  0.00  0.00    +0.012 C 
ATOM     11  C   LIG A   1      -7.368  -1.875 130.540  0.00  0.00    +0.048 C 
ATOM     12  C   LIG A   1      -6.346  -2.596 129.616  0.00  0.00    +0.108 C 
ATOM     13  C   LIG A   1      -5.254  -1.622 129.192  0.00  0.00    +0.056 C 
ATOM     14  O   LIG A   1      -6.962  -3.186 128.443  0.00  0.00    -0.485 OA
ATOM     15  C   LIG A   1      -7.318  -2.315 127.448  0.00  0.00    +0.132 A 
ATOM     16  C   LIG A   1      -8.232  -2.759 126.505  0.00  0.00    +0.092 A 
ATOM     17  C   LIG A   1      -8.819  -1.842 125.623  0.00  0.00    +0.135 A 
ATOM     18  C   LIG A   1      -5.726  -3.775 130.376  0.00  0.00    +0.056 C 
ENDROOT
BRANCH   1  19
ATOM     19  C   LIG A   1      -9.208   0.552 124.839  0.00  0.00    +0.193 C 
ATOM     20  O   LIG A   1     -10.392   0.849 124.998  0.00  0.00    -0.287 OA
BRANCH  19  21
ATOM     21  C   LIG A   1      -8.387   1.228 123.789  0.00  0.00    +0.052 C 
ATOM     22  C   LIG A   1      -8.857   2.290 123.112  0.00  0.00    +0.012 C 
BRANCH  22  23
ATOM     23  C   LIG A   1      -8.113   2.990 122.049  0.00  0.00    -0.025 A 
ATOM     24  C   LIG A   1      -6.722   3.122 122.160  0.00  0.00    +0.008 A 
ATOM     25  C   LIG A   1      -5.981   3.768 121.164  0.00  0.00    +0.001 A 
ATOM     26  C   LIG A   1      -6.622   4.282 120.039  0.00  0.00    +0.000 A 
ATOM     27  C   LIG A   1      -8.001   4.144 119.906  0.00  0.00    +0.001 A 
ATOM     28  C   LIG A   1      -8.738   3.496 120.900  0.00  0.00    +0.008 A 
ENDBRANCH  22  23
ENDBRANCH  19  21
ENDBRANCH   1  19
BRANCH  17  29
ATOM     29  O   LIG A   1      -9.752  -2.317 124.739  0.00  0.00    -0.506 OA
ATOM     30  H   LIG A   1     -10.442  -1.646 124.599  0.00  0.00    +0.292 HD
ENDBRANCH  17  29
TORSDOF 4
ENDMDL
MODEL 5
REMARK VINA RESULT:      -8.8      6.285      8.872
REMARK  Name = NuBBE_2229
REMARK  7 active torsions:
REMARK  status: ('A' for Active; 'I' for Inactive)
REMARK    1  A    between atoms: C_1  and  C_3
REMARK    2  A    between atoms: C_1  and  C_11
REMARK    3  A    between atoms: C_4  and  C_5
REMARK    4  A    between atoms: C_16  and  C_18
REMARK    5  A    between atoms: C_16  and  C_19
REMARK    6  A    between atoms: C_22  and  C_29
REMARK    7  A    between atoms: C_27  and  O_28
REMARK                            x       y       z     vdW  Elec       q    Type
REMARK                         _______ _______ _______ _____ _____    ______ ____
ROOT
ATOM      1  C   LIG A   1      -5.077   5.793 130.840  0.00  0.00    +0.105 A 
ATOM      2  C   LIG A   1      -5.244   4.580 130.152  0.00  0.00    +0.142 A 
ATOM      3  C   LIG A   1      -4.218   4.064 129.356  0.00  0.00    +0.040 A 
ATOM      4  C   LIG A   1      -4.441   2.736 128.696  0.00  0.00    +0.037 C 
ATOM      5  C   LIG A   1      -5.698   2.994 127.872  0.00  0.00    +0.040 C 
ATOM      6  C   LIG A   1      -6.860   3.303 128.899  0.00  0.00    +0.108 C 
ATOM      7  O   LIG A   1      -6.430   3.891 130.171  0.00  0.00    -0.485 OA
ATOM      8  C   LIG A   1      -7.959   4.198 128.311  0.00  0.00    +0.056 C 
ATOM      9  C   LIG A   1      -7.517   1.967 129.308  0.00  0.00    +0.056 C 
ATOM     10  C   LIG A   1      -5.415   4.104 126.813  0.00  0.00    +0.012 C 
ATOM     11  C   LIG A   1      -4.040   3.981 126.116  0.00  0.00    +0.048 C 
ATOM     12  C   LIG A   1      -2.849   3.549 127.018  0.00  0.00    +0.108 C 
ATOM     13  C   LIG A   1      -3.243   2.336 127.852  0.00  0.00    +0.056 C 
ATOM     14  O   LIG A   1      -2.384   4.613 127.888  0.00  0.00    -0.485 OA
ATOM     15  C   LIG A   1      -3.170   4.889 128.975  0.00  0.00    +0.132 A 
ATOM     16  C   LIG A   1      -2.988   6.111 129.604  0.00  0.00    +0.092 A 
ATOM     17  C   LIG A   1      -3.923   6.549 130.551  0.00  0.00    +0.135 A 
ATOM     18  C   LIG A   1      -1.645   3.205 126.132  0.00  0.00    +0.056 C 
ENDROOT
BRANCH   1  19
ATOM     19  C   LIG A   1      -6.135   6.270 131.786  0.00  0.00    +0.193 C 
ATOM     20  O   LIG A   1      -5.959   6.252 133.004  0.00  0.00    -0.287 OA
BRANCH  19  21
ATOM     21  C   LIG A   1      -7.404   6.805 131.206  0.00  0.00    +0.052 C 
ATOM     22  C   LIG A   1      -8.600   6.299 131.558  0.00  0.00    +0.012 C 
BRANCH  22  23
ATOM     23  C   LIG A   1      -9.888   6.761 131.011  0.00  0.00    -0.025 A 
ATOM     24  C   LIG A   1      -9.904   7.461 129.796  0.00  0.00    +0.008 A 
ATOM     25  C   LIG A   1     -11.109   7.904 129.239  0.00  0.00    +0.001 A 
ATOM     26  C   LIG A   1     -12.315   7.642 129.885  0.00  0.00    +0.000 A 
ATOM     27  C   LIG A   1     -12.317   6.933 131.083  0.00  0.00    +0.001 A 
ATOM     28  C   LIG A   1     -11.113   6.489 131.636  0.00  0.00    +0.008 A 
ENDBRANCH  22  23
ENDBRANCH  19  21
ENDBRANCH   1  19
BRANCH  17  29
ATOM     29  O   LIG A   1      -3.729   7.784 131.113  0.00  0.00    -0.506 OA
ATOM     30  H   LIG A   1      -3.031   7.730 131.789  0.00  0.00    +0.292 HD
ENDBRANCH  17  29
TORSDOF 4
ENDMDL
MODEL 6
REMARK VINA RESULT:      -8.4      5.464      8.066
REMARK  Name = NuBBE_2229
REMARK  7 active torsions:
REMARK  status: ('A' for Active; 'I' for Inactive)
REMARK    1  A    between atoms: C_1  and  C_3
REMARK    2  A    between atoms: C_1  and  C_11
REMARK    3  A    between atoms: C_4  and  C_5
REMARK    4  A    between atoms: C_16  and  C_18
REMARK    5  A    between atoms: C_16  and  C_19
REMARK    6  A    between atoms: C_22  and  C_29
REMARK    7  A    between atoms: C_27  and  O_28
REMARK                            x       y       z     vdW  Elec       q    Type
REMARK                         _______ _______ _______ _____ _____    ______ ____
ROOT
ATOM      1  C   LIG A   1      -6.543   4.913 130.893  0.00  0.00    +0.105 A 
ATOM      2  C   LIG A   1      -7.027   3.595 130.835  0.00  0.00    +0.142 A 
ATOM      3  C   LIG A   1      -6.448   2.661 129.972  0.00  0.00    +0.040 A 
ATOM      4  C   LIG A   1      -6.974   1.256 130.002  0.00  0.00    +0.037 C 
ATOM      5  C   LIG A   1      -8.451   1.460 129.681  0.00  0.00    +0.040 C 
ATOM      6  C   LIG A   1      -9.063   2.305 130.870  0.00  0.00    +0.108 C 
ATOM      7  O   LIG A   1      -8.119   3.189 131.559  0.00  0.00    -0.485 OA
ATOM      8  C   LIG A   1     -10.275   3.145 130.446  0.00  0.00    +0.056 C 
ATOM      9  C   LIG A   1      -9.534   1.330 131.969  0.00  0.00    +0.056 C 
ATOM     10  C   LIG A   1      -8.600   2.082 128.258  0.00  0.00    +0.012 C 
ATOM     11  C   LIG A   1      -7.649   1.477 127.198  0.00  0.00    +0.048 C 
ATOM     12  C   LIG A   1      -6.206   1.152 127.677  0.00  0.00    +0.108 C 
ATOM     13  C   LIG A   1      -6.256   0.381 128.990  0.00  0.00    +0.056 C 
ATOM     14  O   LIG A   1      -5.382   2.336 127.833  0.00  0.00    -0.485 OA
ATOM     15  C   LIG A   1      -5.629   3.099 128.943  0.00  0.00    +0.132 A 
ATOM     16  C   LIG A   1      -5.157   4.403 128.941  0.00  0.00    +0.092 A 
ATOM     17  C   LIG A   1      -5.592   5.298 129.928  0.00  0.00    +0.135 A 
ATOM     18  C   LIG A   1      -5.498   0.313 126.606  0.00  0.00    +0.056 C 
ENDROOT
BRANCH   1  19
ATOM     19  C   LIG A   1      -7.090   5.866 131.910  0.00  0.00    +0.193 C 
ATOM     20  O   LIG A   1      -6.460   6.144 132.930  0.00  0.00    -0.287 OA
BRANCH  19  21
ATOM     21  C   LIG A   1      -8.413   6.505 131.633  0.00  0.00    +0.052 C 
ATOM     22  C   LIG A   1      -8.931   6.526 130.392  0.00  0.00    +0.012 C 
BRANCH  22  23
ATOM     23  C   LIG A   1     -10.217   7.158 130.043  0.00  0.00    -0.025 A 
ATOM     24  C   LIG A   1     -11.331   6.943 130.866  0.00  0.00    +0.008 A 
ATOM     25  C   LIG A   1     -12.564   7.537 130.573  0.00  0.00    +0.001 A 
ATOM     26  C   LIG A   1     -12.695   8.363 129.459  0.00  0.00    +0.000 A 
ATOM     27  C   LIG A   1     -11.593   8.600 128.642  0.00  0.00    +0.001 A 
ATOM     28  C   LIG A   1     -10.362   8.009 128.938  0.00  0.00    +0.008 A 
ENDBRANCH  22  23
ENDBRANCH  19  21
ENDBRANCH   1  19
BRANCH  17  29
ATOM     29  O   LIG A   1      -5.137   6.589 129.861  0.00  0.00    -0.506 OA
ATOM     30  H   LIG A   1      -4.951   6.917 130.757  0.00  0.00    +0.292 HD
ENDBRANCH  17  29
TORSDOF 4
ENDMDL
MODEL 7
REMARK VINA RESULT:      -8.4      3.098      6.061
REMARK  Name = NuBBE_2229
REMARK  7 active torsions:
REMARK  status: ('A' for Active; 'I' for Inactive)
REMARK    1  A    between atoms: C_1  and  C_3
REMARK    2  A    between atoms: C_1  and  C_11
REMARK    3  A    between atoms: C_4  and  C_5
REMARK    4  A    between atoms: C_16  and  C_18
REMARK    5  A    between atoms: C_16  and  C_19
REMARK    6  A    between atoms: C_22  and  C_29
REMARK    7  A    between atoms: C_27  and  O_28
REMARK                            x       y       z     vdW  Elec       q    Type
REMARK                         _______ _______ _______ _____ _____    ______ ____
ROOT
ATOM      1  C   LIG A   1      -7.212   3.237 124.372  0.00  0.00    +0.105 A 
ATOM      2  C   LIG A   1      -7.242   3.262 125.777  0.00  0.00    +0.142 A 
ATOM      3  C   LIG A   1      -6.250   3.930 126.499  0.00  0.00    +0.040 A 
ATOM      4  C   LIG A   1      -6.374   3.967 127.994  0.00  0.00    +0.037 C 
ATOM      5  C   LIG A   1      -6.407   2.484 128.349  0.00  0.00    +0.040 C 
ATOM      6  C   LIG A   1      -7.721   1.890 127.700  0.00  0.00    +0.108 C 
ATOM      7  O   LIG A   1      -8.191   2.580 126.495  0.00  0.00    -0.485 OA
ATOM      8  C   LIG A   1      -7.606   0.394 127.374  0.00  0.00    +0.056 C 
ATOM      9  C   LIG A   1      -8.881   2.059 128.704  0.00  0.00    +0.056 C 
ATOM     10  C   LIG A   1      -5.069   1.808 127.915  0.00  0.00    +0.012 C 
ATOM     11  C   LIG A   1      -3.807   2.651 128.211  0.00  0.00    +0.048 C 
ATOM     12  C   LIG A   1      -3.932   4.182 127.970  0.00  0.00    +0.108 C 
ATOM     13  C   LIG A   1      -5.206   4.707 128.621  0.00  0.00    +0.056 C 
ATOM     14  O   LIG A   1      -3.917   4.537 126.564  0.00  0.00    -0.485 OA
ATOM     15  C   LIG A   1      -5.068   4.286 125.867  0.00  0.00    +0.132 A 
ATOM     16  C   LIG A   1      -4.983   4.243 124.483  0.00  0.00    +0.092 A 
ATOM     17  C   LIG A   1      -6.061   3.746 123.738  0.00  0.00    +0.135 A 
ATOM     18  C   LIG A   1      -2.710   4.888 128.573  0.00  0.00    +0.056 C 
ENDROOT
BRANCH   1  19
ATOM     19  C   LIG A   1      -8.346   2.625 123.610  0.00  0.00    +0.193 C 
ATOM     20  O   LIG A   1      -8.995   3.279 122.793  0.00  0.00    -0.287 OA
BRANCH  19  21
ATOM     21  C   LIG A   1      -8.647   1.179 123.840  0.00  0.00    +0.052 C 
ATOM     22  C   LIG A   1      -7.703   0.235 123.677  0.00  0.00    +0.012 C 
BRANCH  22  23
ATOM     23  C   LIG A   1      -7.935  -1.209 123.863  0.00  0.00    -0.025 A 
ATOM     24  C   LIG A   1      -6.982  -1.971 124.553  0.00  0.00    +0.008 A 
ATOM     25  C   LIG A   1      -7.174  -3.342 124.761  0.00  0.00    +0.001 A 
ATOM     26  C   LIG A   1      -8.328  -3.965 124.291  0.00  0.00    +0.000 A 
ATOM     27  C   LIG A   1      -9.291  -3.218 123.619  0.00  0.00    +0.001 A 
ATOM     28  C   LIG A   1      -9.099  -1.848 123.415  0.00  0.00    +0.008 A 
ENDBRANCH  22  23
ENDBRANCH  19  21
ENDBRANCH   1  19
BRANCH  17  29
ATOM     29  O   LIG A   1      -5.915   3.678 122.377  0.00  0.00    -0.506 OA
ATOM     30  H   LIG A   1      -5.240   4.316 122.088  0.00  0.00    +0.292 HD
ENDBRANCH  17  29
TORSDOF 4
ENDMDL
MODEL 8
REMARK VINA RESULT:      -8.3      2.499      7.911
REMARK  Name = NuBBE_2229
REMARK  7 active torsions:
REMARK  status: ('A' for Active; 'I' for Inactive)
REMARK    1  A    between atoms: C_1  and  C_3
REMARK    2  A    between atoms: C_1  and  C_11
REMARK    3  A    between atoms: C_4  and  C_5
REMARK    4  A    between atoms: C_16  and  C_18
REMARK    5  A    between atoms: C_16  and  C_19
REMARK    6  A    between atoms: C_22  and  C_29
REMARK    7  A    between atoms: C_27  and  O_28
REMARK                            x       y       z     vdW  Elec       q    Type
REMARK                         _______ _______ _______ _____ _____    ______ ____
ROOT
ATOM      1  C   LIG A   1      -8.108  -1.288 125.665  0.00  0.00    +0.105 A 
ATOM      2  C   LIG A   1      -8.164   0.015 126.190  0.00  0.00    +0.142 A 
ATOM      3  C   LIG A   1      -7.871   1.120 125.386  0.00  0.00    +0.040 A 
ATOM      4  C   LIG A   1      -8.007   2.485 125.993  0.00  0.00    +0.037 C 
ATOM      5  C   LIG A   1      -7.056   2.403 127.183  0.00  0.00    +0.040 C 
ATOM      6  C   LIG A   1      -7.641   1.304 128.158  0.00  0.00    +0.108 C 
ATOM      7  O   LIG A   1      -8.435   0.254 127.513  0.00  0.00    -0.485 OA
ATOM      8  C   LIG A   1      -6.562   0.625 129.012  0.00  0.00    +0.056 C 
ATOM      9  C   LIG A   1      -8.636   1.986 129.121  0.00  0.00    +0.056 C 
ATOM     10  C   LIG A   1      -5.601   2.158 126.678  0.00  0.00    +0.012 C 
ATOM     11  C   LIG A   1      -5.215   2.984 125.428  0.00  0.00    +0.048 C 
ATOM     12  C   LIG A   1      -6.318   3.145 124.344  0.00  0.00    +0.108 C 
ATOM     13  C   LIG A   1      -7.628   3.566 124.997  0.00  0.00    +0.056 C 
ATOM     14  O   LIG A   1      -6.523   1.940 123.562  0.00  0.00    -0.485 OA
ATOM     15  C   LIG A   1      -7.212   0.931 124.181  0.00  0.00    +0.132 A 
ATOM     16  C   LIG A   1      -7.102  -0.343 123.644  0.00  0.00    +0.092 A 
ATOM     17  C   LIG A   1      -7.572  -1.444 124.371  0.00  0.00    +0.135 A 
ATOM     18  C   LIG A   1      -5.875   4.207 123.329  0.00  0.00    +0.056 C 
ENDROOT
BRANCH   1  19
ATOM     19  C   LIG A   1      -8.544  -2.451 126.501  0.00  0.00    +0.193 C 
ATOM     20  O   LIG A   1      -9.568  -3.081 126.236  0.00  0.00    -0.287 OA
BRANCH  19  21
ATOM     21  C   LIG A   1      -7.679  -2.852 127.652  0.00  0.00    +0.052 C 
ATOM     22  C   LIG A   1      -8.178  -2.959 128.896  0.00  0.00    +0.012 C 
BRANCH  22  23
ATOM     23  C   LIG A   1      -7.380  -3.326 130.080  0.00  0.00    -0.025 A 
ATOM     24  C   LIG A   1      -6.336  -4.251 129.942  0.00  0.00    +0.008 A 
ATOM     25  C   LIG A   1      -5.548  -4.614 131.040  0.00  0.00    +0.001 A 
ATOM     26  C   LIG A   1      -5.788  -4.046 132.290  0.00  0.00    +0.000 A 
ATOM     27  C   LIG A   1      -6.810  -3.113 132.439  0.00  0.00    +0.001 A 
ATOM     28  C   LIG A   1      -7.593  -2.750 131.340  0.00  0.00    +0.008 A 
ENDBRANCH  22  23
ENDBRANCH  19  21
ENDBRANCH   1  19
BRANCH  17  29
ATOM     29  O   LIG A   1      -7.401  -2.689 123.823  0.00  0.00    -0.506 OA
ATOM     30  H   LIG A   1      -6.454  -2.906 123.796  0.00  0.00    +0.292 HD
ENDBRANCH  17  29
TORSDOF 4
ENDMDL
MODEL 9
REMARK VINA RESULT:      -8.3      6.529     10.120
REMARK  Name = NuBBE_2229
REMARK  7 active torsions:
REMARK  status: ('A' for Active; 'I' for Inactive)
REMARK    1  A    between atoms: C_1  and  C_3
REMARK    2  A    between atoms: C_1  and  C_11
REMARK    3  A    between atoms: C_4  and  C_5
REMARK    4  A    between atoms: C_16  and  C_18
REMARK    5  A    between atoms: C_16  and  C_19
REMARK    6  A    between atoms: C_22  and  C_29
REMARK    7  A    between atoms: C_27  and  O_28
REMARK                            x       y       z     vdW  Elec       q    Type
REMARK                         _______ _______ _______ _____ _____    ______ ____
ROOT
ATOM      1  C   LIG A   1      -7.072   2.586 130.896  0.00  0.00    +0.105 A 
ATOM      2  C   LIG A   1      -7.782   3.505 131.687  0.00  0.00    +0.142 A 
ATOM      3  C   LIG A   1      -8.955   4.097 131.213  0.00  0.00    +0.040 A 
ATOM      4  C   LIG A   1      -9.696   5.024 132.131  0.00  0.00    +0.037 C 
ATOM      5  C   LIG A   1      -8.638   6.077 132.445  0.00  0.00    +0.040 C 
ATOM      6  C   LIG A   1      -7.477   5.337 133.224  0.00  0.00    +0.108 C 
ATOM      7  O   LIG A   1      -7.325   3.912 132.915  0.00  0.00    -0.485 OA
ATOM      8  C   LIG A   1      -6.110   6.009 133.043  0.00  0.00    +0.056 C 
ATOM      9  C   LIG A   1      -7.811   5.359 134.731  0.00  0.00    +0.056 C 
ATOM     10  C   LIG A   1      -8.216   6.808 131.133  0.00  0.00    +0.012 C 
ATOM     11  C   LIG A   1      -9.393   7.146 130.189  0.00  0.00    +0.048 C 
ATOM     12  C   LIG A   1     -10.507   6.067 130.066  0.00  0.00    +0.108 C 
ATOM     13  C   LIG A   1     -10.928   5.597 131.453  0.00  0.00    +0.056 C 
ATOM     14  O   LIG A   1     -10.105   4.929 129.262  0.00  0.00    -0.485 OA
ATOM     15  C   LIG A   1      -9.247   4.043 129.858  0.00  0.00    +0.132 A 
ATOM     16  C   LIG A   1      -8.547   3.176 129.033  0.00  0.00    +0.092 A 
ATOM     17  C   LIG A   1      -7.481   2.431 129.556  0.00  0.00    +0.135 A 
ATOM     18  C   LIG A   1     -11.711   6.668 129.331  0.00  0.00    +0.056 C 
ENDROOT
BRANCH   1  19
ATOM     19  C   LIG A   1      -5.888   1.868 131.464  0.00  0.00    +0.193 C 
ATOM     20  O   LIG A   1      -5.884   0.643 131.592  0.00  0.00    -0.287 OA
BRANCH  19  21
ATOM     21  C   LIG A   1      -4.689   2.678 131.840  0.00  0.00    +0.052 C 
ATOM     22  C   LIG A   1      -4.258   3.688 131.064  0.00  0.00    +0.012 C 
BRANCH  22  23
ATOM     23  C   LIG A   1      -3.072   4.512 131.360  0.00  0.00    -0.025 A 
ATOM     24  C   LIG A   1      -2.774   5.604 130.534  0.00  0.00    +0.008 A 
ATOM     25  C   LIG A   1      -1.664   6.417 130.792  0.00  0.00    +0.001 A 
ATOM     26  C   LIG A   1      -0.844   6.153 131.887  0.00  0.00    +0.000 A 
ATOM     27  C   LIG A   1      -1.137   5.082 132.726  0.00  0.00    +0.001 A 
ATOM     28  C   LIG A   1      -2.248   4.274 132.469  0.00  0.00    +0.008 A 
ENDBRANCH  22  23
ENDBRANCH  19  21
ENDBRANCH   1  19
BRANCH  17  29
ATOM     29  O   LIG A   1      -6.787   1.622 128.695  0.00  0.00    -0.506 OA
ATOM     30  H   LIG A   1      -5.901   1.992 128.542  0.00  0.00    +0.292 HD
ENDBRANCH  17  29
TORSDOF 4
ENDMDL
