MODEL 1
REMARK VINA RESULT:      -6.6      0.000      0.000
REMARK  Name = NuBBE_964
REMARK  4 active torsions:
REMARK  status: ('A' for Active; 'I' for Inactive)
REMARK    1  A    between atoms: C_1  and  O_2
REMARK    2  A    between atoms: O_2  and  C_3
REMARK    3  A    between atoms: C_12  and  O_13
REMARK    4  A    between atoms: O_13  and  C_14
REMARK                            x       y       z     vdW  Elec       q    Type
REMARK                         _______ _______ _______ _____ _____    ______ ____
ROOT
ATOM      1  C   LIG A   1     -12.095   7.547 129.860  0.00  0.00    +0.122 A 
ATOM      2  C   LIG A   1     -10.735   7.743 129.613  0.00  0.00    +0.074 A 
ATOM      3  C   LIG A   1      -9.751   7.196 130.426  0.00  0.00    +0.082 A 
ATOM      4  N   LIG A   1      -8.486   7.452 130.090  0.00  0.00    -0.212 NA
ATOM      5  C   LIG A   1      -7.563   6.931 130.909  0.00  0.00    +0.231 A 
ATOM      6  O   LIG A   1      -6.230   7.128 130.712  0.00  0.00    -0.445 OA
ATOM      7  C   LIG A   1      -5.578   6.499 131.717  0.00  0.00    +0.198 A 
ATOM      8  C   LIG A   1      -6.475   5.892 132.566  0.00  0.00    +0.055 A 
ATOM      9  C   LIG A   1      -7.775   6.153 132.046  0.00  0.00    +0.082 A 
ATOM     10  C   LIG A   1      -9.118   5.868 132.367  0.00  0.00    +0.141 A 
ATOM     11  C   LIG A   1     -10.135   6.418 131.542  0.00  0.00    +0.043 A 
ATOM     12  C   LIG A   1     -11.511   6.217 131.784  0.00  0.00    +0.017 A 
ATOM     13  C   LIG A   1     -12.478   6.775 130.950  0.00  0.00    +0.046 A 
ENDROOT
BRANCH   1  15
ATOM     14  C   LIG A   1     -13.117   9.452 128.868  0.00  0.00    +0.277 C 
ATOM     15  O   LIG A   1     -13.128   8.050 129.118  0.00  0.00    -0.495 OA
ENDBRANCH   1  15
BRANCH  10  16
ATOM     16  O   LIG A   1      -9.557   5.162 133.480  0.00  0.00    -0.494 OA
ATOM     17  C   LIG A   1      -9.224   3.782 133.524  0.00  0.00    +0.277 C 
ENDBRANCH  10  16
TORSDOF 2
ENDMDL
MODEL 2
REMARK VINA RESULT:      -6.3      2.236      2.687
REMARK  Name = NuBBE_964
REMARK  4 active torsions:
REMARK  status: ('A' for Active; 'I' for Inactive)
REMARK    1  A    between atoms: C_1  and  O_2
REMARK    2  A    between atoms: O_2  and  C_3
REMARK    3  A    between atoms: C_12  and  O_13
REMARK    4  A    between atoms: O_13  and  C_14
REMARK                            x       y       z     vdW  Elec       q    Type
REMARK                         _______ _______ _______ _____ _____    ______ ____
ROOT
ATOM      1  C   LIG A   1     -12.703   8.978 129.132  0.00  0.00    +0.122 A 
ATOM      2  C   LIG A   1     -11.775   8.323 128.321  0.00  0.00    +0.074 A 
ATOM      3  C   LIG A   1     -10.997   7.272 128.790  0.00  0.00    +0.082 A 
ATOM      4  N   LIG A   1     -10.144   6.725 127.923  0.00  0.00    -0.212 NA
ATOM      5  C   LIG A   1      -9.391   5.732 128.414  0.00  0.00    +0.231 A 
ATOM      6  O   LIG A   1      -8.457   5.092 127.658  0.00  0.00    -0.445 OA
ATOM      7  C   LIG A   1      -7.861   4.172 128.450  0.00  0.00    +0.198 A 
ATOM      8  C   LIG A   1      -8.400   4.204 129.714  0.00  0.00    +0.055 A 
ATOM      9  C   LIG A   1      -9.411   5.208 129.706  0.00  0.00    +0.082 A 
ATOM     10  C   LIG A   1     -10.340   5.780 130.599  0.00  0.00    +0.141 A 
ATOM     11  C   LIG A   1     -11.145   6.852 130.133  0.00  0.00    +0.043 A 
ATOM     12  C   LIG A   1     -12.089   7.513 130.946  0.00  0.00    +0.017 A 
ATOM     13  C   LIG A   1     -12.860   8.562 130.449  0.00  0.00    +0.046 A 
ENDROOT
BRANCH   1  15
ATOM     14  C   LIG A   1     -13.641  11.091 129.686  0.00  0.00    +0.277 C 
ATOM     15  O   LIG A   1     -13.505  10.021 128.758  0.00  0.00    -0.495 OA
ENDBRANCH   1  15
BRANCH  10  16
ATOM     16  O   LIG A   1     -10.488   5.450 131.941  0.00  0.00    -0.494 OA
ATOM     17  C   LIG A   1      -9.433   5.840 132.807  0.00  0.00    +0.277 C 
ENDBRANCH  10  16
TORSDOF 2
ENDMDL
MODEL 3
REMARK VINA RESULT:      -6.2      2.096      3.477
REMARK  Name = NuBBE_964
REMARK  4 active torsions:
REMARK  status: ('A' for Active; 'I' for Inactive)
REMARK    1  A    between atoms: C_1  and  O_2
REMARK    2  A    between atoms: O_2  and  C_3
REMARK    3  A    between atoms: C_12  and  O_13
REMARK    4  A    between atoms: O_13  and  C_14
REMARK                            x       y       z     vdW  Elec       q    Type
REMARK                         _______ _______ _______ _____ _____    ______ ____
ROOT
ATOM      1  C   LIG A   1     -12.499   7.992 128.726  0.00  0.00    +0.122 A 
ATOM      2  C   LIG A   1     -12.604   6.687 129.211  0.00  0.00    +0.074 A 
ATOM      3  C   LIG A   1     -11.500   5.978 129.668  0.00  0.00    +0.082 A 
ATOM      4  N   LIG A   1     -11.723   4.739 130.107  0.00  0.00    -0.212 NA
ATOM      5  C   LIG A   1     -10.635   4.075 130.515  0.00  0.00    +0.231 A 
ATOM      6  O   LIG A   1     -10.699   2.792 130.967  0.00  0.00    -0.445 OA
ATOM      7  C   LIG A   1      -9.438   2.409 131.272  0.00  0.00    +0.198 A 
ATOM      8  C   LIG A   1      -8.553   3.433 131.026  0.00  0.00    +0.055 A 
ATOM      9  C   LIG A   1      -9.319   4.533 130.544  0.00  0.00    +0.082 A 
ATOM     10  C   LIG A   1      -9.107   5.856 130.104  0.00  0.00    +0.141 A 
ATOM     11  C   LIG A   1     -10.227   6.594 129.638  0.00  0.00    +0.043 A 
ATOM     12  C   LIG A   1     -10.127   7.915 129.153  0.00  0.00    +0.017 A 
ATOM     13  C   LIG A   1     -11.252   8.605 128.704  0.00  0.00    +0.046 A 
ENDROOT
BRANCH   1  15
ATOM     14  C   LIG A   1     -13.633  10.081 128.774  0.00  0.00    +0.277 C 
ATOM     15  O   LIG A   1     -13.527   8.760 128.254  0.00  0.00    -0.495 OA
ENDBRANCH   1  15
BRANCH  10  16
ATOM     16  O   LIG A   1      -7.876   6.491 129.997  0.00  0.00    -0.494 OA
ATOM     17  C   LIG A   1      -7.225   6.816 131.217  0.00  0.00    +0.277 C 
ENDBRANCH  10  16
TORSDOF 2
ENDMDL
MODEL 4
REMARK VINA RESULT:      -6.1      9.200     10.133
REMARK  Name = NuBBE_964
REMARK  4 active torsions:
REMARK  status: ('A' for Active; 'I' for Inactive)
REMARK    1  A    between atoms: C_1  and  O_2
REMARK    2  A    between atoms: O_2  and  C_3
REMARK    3  A    between atoms: C_12  and  O_13
REMARK    4  A    between atoms: O_13  and  C_14
REMARK                            x       y       z     vdW  Elec       q    Type
REMARK                         _______ _______ _______ _____ _____    ______ ____
ROOT
ATOM      1  C   LIG A   1      -6.988   4.207 120.211  0.00  0.00    +0.122 A 
ATOM      2  C   LIG A   1      -8.079   3.577 120.813  0.00  0.00    +0.074 A 
ATOM      3  C   LIG A   1      -8.021   3.078 122.108  0.00  0.00    +0.082 A 
ATOM      4  N   LIG A   1      -9.127   2.496 122.575  0.00  0.00    -0.212 NA
ATOM      5  C   LIG A   1      -9.029   2.003 123.816  0.00  0.00    +0.231 A 
ATOM      6  O   LIG A   1     -10.065   1.358 124.420  0.00  0.00    -0.445 OA
ATOM      7  C   LIG A   1      -9.637   0.966 125.642  0.00  0.00    +0.198 A 
ATOM      8  C   LIG A   1      -8.332   1.352 125.841  0.00  0.00    +0.055 A 
ATOM      9  C   LIG A   1      -7.923   2.042 124.664  0.00  0.00    +0.082 A 
ATOM     10  C   LIG A   1      -6.774   2.688 124.162  0.00  0.00    +0.141 A 
ATOM     11  C   LIG A   1      -6.820   3.207 122.842  0.00  0.00    +0.043 A 
ATOM     12  C   LIG A   1      -5.722   3.850 122.232  0.00  0.00    +0.017 A 
ATOM     13  C   LIG A   1      -5.808   4.345 120.932  0.00  0.00    +0.046 A 
ENDROOT
BRANCH   1  15
ATOM     14  C   LIG A   1      -5.908   5.643 118.654  0.00  0.00    +0.277 C 
ATOM     15  O   LIG A   1      -6.954   4.722 118.945  0.00  0.00    -0.495 OA
ENDBRANCH   1  15
BRANCH  10  16
ATOM     16  O   LIG A   1      -5.550   2.792 124.812  0.00  0.00    -0.494 OA
ATOM     17  C   LIG A   1      -5.480   3.726 125.881  0.00  0.00    +0.277 C 
ENDBRANCH  10  16
TORSDOF 2
ENDMDL
MODEL 5
REMARK VINA RESULT:      -6.0      2.006      5.345
REMARK  Name = NuBBE_964
REMARK  4 active torsions:
REMARK  status: ('A' for Active; 'I' for Inactive)
REMARK    1  A    between atoms: C_1  and  O_2
REMARK    2  A    between atoms: O_2  and  C_3
REMARK    3  A    between atoms: C_12  and  O_13
REMARK    4  A    between atoms: O_13  and  C_14
REMARK                            x       y       z     vdW  Elec       q    Type
REMARK                         _______ _______ _______ _____ _____    ______ ____
ROOT
ATOM      1  C   LIG A   1      -8.911   4.843 132.021  0.00  0.00    +0.122 A 
ATOM      2  C   LIG A   1      -8.747   4.987 130.642  0.00  0.00    +0.074 A 
ATOM      3  C   LIG A   1      -9.588   5.786 129.878  0.00  0.00    +0.082 A 
ATOM      4  N   LIG A   1      -9.333   5.846 128.570  0.00  0.00    -0.212 NA
ATOM      5  C   LIG A   1     -10.177   6.603 127.859  0.00  0.00    +0.231 A 
ATOM      6  O   LIG A   1     -10.061   6.742 126.509  0.00  0.00    -0.445 OA
ATOM      7  C   LIG A   1     -11.072   7.541 126.099  0.00  0.00    +0.198 A 
ATOM      8  C   LIG A   1     -11.845   7.926 127.169  0.00  0.00    +0.055 A 
ATOM      9  C   LIG A   1     -11.267   7.334 128.329  0.00  0.00    +0.082 A 
ATOM     10  C   LIG A   1     -11.503   7.281 129.718  0.00  0.00    +0.141 A 
ATOM     11  C   LIG A   1     -10.649   6.473 130.513  0.00  0.00    +0.043 A 
ATOM     12  C   LIG A   1     -10.807   6.329 131.907  0.00  0.00    +0.017 A 
ATOM     13  C   LIG A   1      -9.947   5.524 132.651  0.00  0.00    +0.046 A 
ENDROOT
BRANCH   1  15
ATOM     14  C   LIG A   1      -8.539   3.998 134.211  0.00  0.00    +0.277 C 
ATOM     15  O   LIG A   1      -8.137   4.077 132.848  0.00  0.00    -0.495 OA
ENDBRANCH   1  15
BRANCH  10  16
ATOM     16  O   LIG A   1     -12.561   7.885 130.387  0.00  0.00    -0.494 OA
ATOM     17  C   LIG A   1     -12.808   9.249 130.078  0.00  0.00    +0.277 C 
ENDBRANCH  10  16
TORSDOF 2
ENDMDL
MODEL 6
REMARK VINA RESULT:      -5.9      1.482      5.386
REMARK  Name = NuBBE_964
REMARK  4 active torsions:
REMARK  status: ('A' for Active; 'I' for Inactive)
REMARK    1  A    between atoms: C_1  and  O_2
REMARK    2  A    between atoms: O_2  and  C_3
REMARK    3  A    between atoms: C_12  and  O_13
REMARK    4  A    between atoms: O_13  and  C_14
REMARK                            x       y       z     vdW  Elec       q    Type
REMARK                         _______ _______ _______ _____ _____    ______ ____
ROOT
ATOM      1  C   LIG A   1      -4.739   6.776 131.491  0.00  0.00    +0.122 A 
ATOM      2  C   LIG A   1      -5.849   7.190 130.753  0.00  0.00    +0.074 A 
ATOM      3  C   LIG A   1      -7.148   6.890 131.143  0.00  0.00    +0.082 A 
ATOM      4  N   LIG A   1      -8.129   7.338 130.358  0.00  0.00    -0.212 NA
ATOM      5  C   LIG A   1      -9.366   7.010 130.748  0.00  0.00    +0.231 A 
ATOM      6  O   LIG A   1     -10.468   7.374 130.035  0.00  0.00    -0.445 OA
ATOM      7  C   LIG A   1     -11.547   6.869 130.678  0.00  0.00    +0.198 A 
ATOM      8  C   LIG A   1     -11.158   6.182 131.804  0.00  0.00    +0.055 A 
ATOM      9  C   LIG A   1      -9.738   6.275 131.873  0.00  0.00    +0.082 A 
ATOM     10  C   LIG A   1      -8.689   5.835 132.706  0.00  0.00    +0.141 A 
ATOM     11  C   LIG A   1      -7.356   6.138 132.323  0.00  0.00    +0.043 A 
ATOM     12  C   LIG A   1      -6.231   5.727 133.069  0.00  0.00    +0.017 A 
ATOM     13  C   LIG A   1      -4.939   6.045 132.657  0.00  0.00    +0.046 A 
ENDROOT
BRANCH   1  15
ATOM     14  C   LIG A   1      -2.762   8.013 131.953  0.00  0.00    +0.277 C 
ATOM     15  O   LIG A   1      -3.430   7.020 131.181  0.00  0.00    -0.495 OA
ENDBRANCH   1  15
BRANCH  10  16
ATOM     16  O   LIG A   1      -8.828   5.045 133.841  0.00  0.00    -0.494 OA
ATOM     17  C   LIG A   1      -9.149   3.679 133.625  0.00  0.00    +0.277 C 
ENDBRANCH  10  16
TORSDOF 2
ENDMDL
MODEL 7
REMARK VINA RESULT:      -5.7      1.471      2.967
REMARK  Name = NuBBE_964
REMARK  4 active torsions:
REMARK  status: ('A' for Active; 'I' for Inactive)
REMARK    1  A    between atoms: C_1  and  O_2
REMARK    2  A    between atoms: O_2  and  C_3
REMARK    3  A    between atoms: C_12  and  O_13
REMARK    4  A    between atoms: O_13  and  C_14
REMARK                            x       y       z     vdW  Elec       q    Type
REMARK                         _______ _______ _______ _____ _____    ______ ____
ROOT
ATOM      1  C   LIG A   1     -11.737   6.998 130.301  0.00  0.00    +0.122 A 
ATOM      2  C   LIG A   1     -11.407   6.313 131.471  0.00  0.00    +0.074 A 
ATOM      3  C   LIG A   1     -10.092   6.169 131.896  0.00  0.00    +0.082 A 
ATOM      4  N   LIG A   1      -9.900   5.494 133.030  0.00  0.00    -0.212 NA
ATOM      5  C   LIG A   1      -8.620   5.351 133.398  0.00  0.00    +0.231 A 
ATOM      6  O   LIG A   1      -8.263   4.665 134.518  0.00  0.00    -0.445 OA
ATOM      7  C   LIG A   1      -6.912   4.685 134.588  0.00  0.00    +0.198 A 
ATOM      8  C   LIG A   1      -6.386   5.380 133.525  0.00  0.00    +0.055 A 
ATOM      9  C   LIG A   1      -7.487   5.835 132.744  0.00  0.00    +0.082 A 
ATOM     10  C   LIG A   1      -7.714   6.571 131.563  0.00  0.00    +0.141 A 
ATOM     11  C   LIG A   1      -9.052   6.730 131.119  0.00  0.00    +0.043 A 
ATOM     12  C   LIG A   1      -9.392   7.427 129.940  0.00  0.00    +0.017 A 
ATOM     13  C   LIG A   1     -10.720   7.559 129.538  0.00  0.00    +0.046 A 
ENDROOT
BRANCH   1  15
ATOM     14  C   LIG A   1     -13.209   6.838 128.441  0.00  0.00    +0.277 C 
ATOM     15  O   LIG A   1     -12.998   7.184 129.805  0.00  0.00    -0.495 OA
ENDBRANCH   1  15
BRANCH  10  16
ATOM     16  O   LIG A   1      -6.732   7.093 130.730  0.00  0.00    -0.494 OA
ATOM     17  C   LIG A   1      -5.674   6.216 130.373  0.00  0.00    +0.277 C 
ENDBRANCH  10  16
TORSDOF 2
ENDMDL
MODEL 8
REMARK VINA RESULT:      -5.7      9.276     10.676
REMARK  Name = NuBBE_964
REMARK  4 active torsions:
REMARK  status: ('A' for Active; 'I' for Inactive)
REMARK    1  A    between atoms: C_1  and  O_2
REMARK    2  A    between atoms: O_2  and  C_3
REMARK    3  A    between atoms: C_12  and  O_13
REMARK    4  A    between atoms: O_13  and  C_14
REMARK                            x       y       z     vdW  Elec       q    Type
REMARK                         _______ _______ _______ _____ _____    ______ ____
ROOT
ATOM      1  C   LIG A   1      -7.872  -2.970 129.061  0.00  0.00    +0.122 A 
ATOM      2  C   LIG A   1      -7.460  -1.739 128.547  0.00  0.00    +0.074 A 
ATOM      3  C   LIG A   1      -7.821  -1.311 127.276  0.00  0.00    +0.082 A 
ATOM      4  N   LIG A   1      -7.366  -0.117 126.894  0.00  0.00    -0.212 NA
ATOM      5  C   LIG A   1      -7.711   0.254 125.655  0.00  0.00    +0.231 A 
ATOM      6  O   LIG A   1      -7.302   1.435 125.114  0.00  0.00    -0.445 OA
ATOM      7  C   LIG A   1      -7.794   1.493 123.855  0.00  0.00    +0.198 A 
ATOM      8  C   LIG A   1      -8.523   0.361 123.571  0.00  0.00    +0.055 A 
ATOM      9  C   LIG A   1      -8.491  -0.453 124.740  0.00  0.00    +0.082 A 
ATOM     10  C   LIG A   1      -8.987  -1.700 125.173  0.00  0.00    +0.141 A 
ATOM     11  C   LIG A   1      -8.629  -2.148 126.472  0.00  0.00    +0.043 A 
ATOM     12  C   LIG A   1      -9.049  -3.389 126.998  0.00  0.00    +0.017 A 
ATOM     13  C   LIG A   1      -8.675  -3.792 128.278  0.00  0.00    +0.046 A 
ENDROOT
BRANCH   1  15
ATOM     14  C   LIG A   1      -7.204  -2.530 131.299  0.00  0.00    +0.277 C 
ATOM     15  O   LIG A   1      -7.562  -3.472 130.294  0.00  0.00    -0.495 OA
ENDBRANCH   1  15
BRANCH  10  16
ATOM     16  O   LIG A   1      -9.733  -2.589 124.409  0.00  0.00    -0.494 OA
ATOM     17  C   LIG A   1      -9.078  -3.161 123.286  0.00  0.00    +0.277 C 
ENDBRANCH  10  16
TORSDOF 2
ENDMDL
MODEL 9
REMARK VINA RESULT:      -5.7      9.370     10.015
REMARK  Name = NuBBE_964
REMARK  4 active torsions:
REMARK  status: ('A' for Active; 'I' for Inactive)
REMARK    1  A    between atoms: C_1  and  O_2
REMARK    2  A    between atoms: O_2  and  C_3
REMARK    3  A    between atoms: C_12  and  O_13
REMARK    4  A    between atoms: O_13  and  C_14
REMARK                            x       y       z     vdW  Elec       q    Type
REMARK                         _______ _______ _______ _____ _____    ______ ____
ROOT
ATOM      1  C   LIG A   1      -8.579   2.548 122.529  0.00  0.00    +0.122 A 
ATOM      2  C   LIG A   1      -9.325   1.458 122.982  0.00  0.00    +0.074 A 
ATOM      3  C   LIG A   1      -8.823   0.555 123.910  0.00  0.00    +0.082 A 
ATOM      4  N   LIG A   1      -9.628  -0.447 124.267  0.00  0.00    -0.212 NA
ATOM      5  C   LIG A   1      -9.104  -1.314 125.142  0.00  0.00    +0.231 A 
ATOM      6  O   LIG A   1      -9.795  -2.402 125.582  0.00  0.00    -0.445 OA
ATOM      7  C   LIG A   1      -8.983  -3.079 126.427  0.00  0.00    +0.198 A 
ATOM      8  C   LIG A   1      -7.771  -2.440 126.544  0.00  0.00    +0.055 A 
ATOM      9  C   LIG A   1      -7.837  -1.278 125.723  0.00  0.00    +0.082 A 
ATOM     10  C   LIG A   1      -7.012  -0.195 125.355  0.00  0.00    +0.141 A 
ATOM     11  C   LIG A   1      -7.513   0.739 124.411  0.00  0.00    +0.043 A 
ATOM     12  C   LIG A   1      -6.766   1.845 123.955  0.00  0.00    +0.017 A 
ATOM     13  C   LIG A   1      -7.295   2.739 123.026  0.00  0.00    +0.046 A 
ENDROOT
BRANCH   1  15
ATOM     14  C   LIG A   1      -8.069   3.817 120.585  0.00  0.00    +0.277 C 
ATOM     15  O   LIG A   1      -8.989   3.481 121.617  0.00  0.00    -0.495 OA
ENDBRANCH   1  15
BRANCH  10  16
ATOM     16  O   LIG A   1      -5.700   0.005 125.767  0.00  0.00    -0.494 OA
ATOM     17  C   LIG A   1      -5.519   0.451 127.103  0.00  0.00    +0.277 C 
ENDBRANCH  10  16
TORSDOF 2
ENDMDL
