MODEL 1
REMARK VINA RESULT:      -9.3      0.000      0.000
REMARK  Name = NuBBE_318
REMARK  19 active torsions:
REMARK  status: ('A' for Active; 'I' for Inactive)
REMARK    1  A    between atoms: C_1  and  O_2
REMARK    2  A    between atoms: O_2  and  C_3
REMARK    3  A    between atoms: C_4  and  O_55
REMARK    4  A    between atoms: C_7  and  C_8
REMARK    5  A    between atoms: C_12  and  O_16
REMARK    6  A    between atoms: C_14  and  O_15
REMARK    7  A    between atoms: O_16  and  C_17
REMARK    8  A    between atoms: C_21  and  O_22
REMARK    9  A    between atoms: O_22  and  C_23
REMARK   10  A    between atoms: C_26  and  C_37
REMARK   11  A    between atoms: C_28  and  O_36
REMARK   12  A    between atoms: C_30  and  O_35
REMARK   13  A    between atoms: C_32  and  O_34
REMARK   14  A    between atoms: C_37  and  O_38
REMARK   15  A    between atoms: O_38  and  C_39
REMARK   16  A    between atoms: C_42  and  C_53
REMARK   17  A    between atoms: C_44  and  O_52
REMARK   18  A    between atoms: C_46  and  O_51
REMARK   19  A    between atoms: C_48  and  O_50
REMARK                            x       y       z     vdW  Elec       q    Type
REMARK                         _______ _______ _______ _____ _____    ______ ____
ROOT
ATOM      1  C   LIG A   1      -7.768   3.109 128.877  0.00  0.00    +0.340 C 
ATOM      2  O   LIG A   1      -7.497   4.378 129.482  0.00  0.00    -0.331 OA
ATOM      3  C   LIG A   1      -8.542   4.869 130.337  0.00  0.00    +0.179 C 
ATOM      4  C   LIG A   1      -8.708   3.904 131.521  0.00  0.00    +0.177 C 
ATOM      5  C   LIG A   1      -9.059   2.513 130.983  0.00  0.00    +0.180 C 
ATOM      6  C   LIG A   1      -8.082   2.021 129.919  0.00  0.00    +0.214 C 
ENDROOT
BRANCH   4   7
ATOM      7  O   LIG A   1      -9.752   4.289 132.422  0.00  0.00    -0.387 OA
ATOM      8  H   LIG A   1      -9.466   5.124 132.847  0.00  0.00    +0.210 HD
ENDBRANCH   4   7
BRANCH   5   9
ATOM      9  O   LIG A   1      -9.071   1.555 132.058  0.00  0.00    -0.386 OA
ATOM     10  H   LIG A   1      -8.378   1.859 132.678  0.00  0.00    +0.210 HD
ENDBRANCH   5   9
BRANCH   6  11
ATOM     11  O   LIG A   1      -8.667   0.872 129.267  0.00  0.00    -0.383 OA
ATOM     12  H   LIG A   1      -8.416   0.105 129.815  0.00  0.00    +0.210 HD
ENDBRANCH   6  11
BRANCH   3  13
ATOM     13  C   LIG A   1      -8.125   6.289 130.785  0.00  0.00    +0.197 C 
BRANCH  13  14
ATOM     14  O   LIG A   1      -9.228   7.202 130.949  0.00  0.00    -0.346 OA
BRANCH  14  15
ATOM     15  C   LIG A   1     -10.148   7.101 129.822  0.00  0.00    +0.282 C 
ATOM     16  O   LIG A   1      -9.938   8.218 128.962  0.00  0.00    -0.343 OA
ATOM     17  C   LIG A   1     -10.867   8.342 127.880  0.00  0.00    +0.149 C 
ATOM     18  C   LIG A   1     -12.294   8.509 128.428  0.00  0.00    +0.174 C 
ATOM     19  C   LIG A   1     -12.680   7.338 129.327  0.00  0.00    +0.179 C 
ATOM     20  C   LIG A   1     -11.599   7.029 130.378  0.00  0.00    +0.201 C 
ATOM     21  C   LIG A   1     -10.705   7.227 126.848  0.00  0.00    +0.040 C 
BRANCH  18  22
ATOM     22  O   LIG A   1     -12.374   9.711 129.210  0.00  0.00    -0.387 OA
ATOM     23  H   LIG A   1     -12.650   9.464 130.111  0.00  0.00    +0.210 HD
ENDBRANCH  18  22
BRANCH  19  24
ATOM     24  O   LIG A   1     -12.954   6.172 128.537  0.00  0.00    -0.386 OA
ATOM     25  H   LIG A   1     -13.914   6.225 128.350  0.00  0.00    +0.210 HD
ENDBRANCH  19  24
BRANCH  20  26
ATOM     26  O   LIG A   1     -11.892   5.716 130.909  0.00  0.00    -0.384 OA
ATOM     27  H   LIG A   1     -12.710   5.804 131.430  0.00  0.00    +0.210 HD
ENDBRANCH  20  26
ENDBRANCH  14  15
ENDBRANCH  13  14
ENDBRANCH   3  13
BRANCH   1  28
ATOM     28  O   LIG A   1      -6.596   2.657 128.174  0.00  0.00    -0.453 OA
BRANCH  28  39
ATOM     29  C   LIG A   1      -5.613   3.533 126.167  0.00  0.00    +0.181 A 
ATOM     30  O   LIG A   1      -5.526   3.657 124.778  0.00  0.00    -0.451 OA
ATOM     31  C   LIG A   1      -6.612   3.285 124.024  0.00  0.00    +0.146 A 
ATOM     32  C   LIG A   1      -6.653   3.682 122.685  0.00  0.00    +0.092 A 
ATOM     33  C   LIG A   1      -7.767   3.348 121.905  0.00  0.00    +0.127 A 
ATOM     34  C   LIG A   1      -8.812   2.615 122.470  0.00  0.00    +0.092 A 
ATOM     35  C   LIG A   1      -8.762   2.216 123.796  0.00  0.00    +0.135 A 
ATOM     36  C   LIG A   1      -7.643   2.529 124.559  0.00  0.00    +0.109 A 
ATOM     37  C   LIG A   1      -7.450   2.019 125.901  0.00  0.00    +0.238 A 
ATOM     38  O   LIG A   1      -7.982   0.942 126.221  0.00  0.00    -0.283 OA
ATOM     39  C   LIG A   1      -6.538   2.771 126.796  0.00  0.00    +0.214 A 
BRANCH  29  44
ATOM     40  C   LIG A   1      -3.781   6.283 128.058  0.00  0.00    +0.162 A 
ATOM     41  C   LIG A   1      -2.489   5.755 128.115  0.00  0.00    +0.159 A 
ATOM     42  C   LIG A   1      -2.207   4.494 127.612  0.00  0.00    +0.050 A 
ATOM     43  C   LIG A   1      -3.223   3.755 127.002  0.00  0.00    +0.015 A 
ATOM     44  C   LIG A   1      -4.520   4.276 126.864  0.00  0.00    +0.025 A 
ATOM     45  C   LIG A   1      -4.785   5.546 127.423  0.00  0.00    +0.061 A 
BRANCH  41  46
ATOM     46  O   LIG A   1      -1.470   6.473 128.678  0.00  0.00    -0.503 OA
ATOM     47  H   LIG A   1      -1.131   5.908 129.397  0.00  0.00    +0.292 HD
ENDBRANCH  41  46
BRANCH  40  49
ATOM     48  C   LIG A   1      -4.414   7.560 129.942  0.00  0.00    +0.277 C 
ATOM     49  O   LIG A   1      -3.935   7.534 128.599  0.00  0.00    -0.491 OA
ENDBRANCH  40  49
ENDBRANCH  29  44
BRANCH  33  50
ATOM     50  O   LIG A   1      -7.772   3.753 120.594  0.00  0.00    -0.495 OA
ATOM     51  C   LIG A   1      -6.485   4.136 120.097  0.00  0.00    +0.277 C 
ENDBRANCH  33  50
BRANCH  35  52
ATOM     52  O   LIG A   1      -9.833   1.562 124.325  0.00  0.00    -0.506 OA
ATOM     53  H   LIG A   1     -10.597   1.641 123.732  0.00  0.00    +0.292 HD
ENDBRANCH  35  52
ENDBRANCH  28  39
ENDBRANCH   1  28
TORSDOF 16
ENDMDL
MODEL 2
REMARK VINA RESULT:      -8.9      1.275      1.906
REMARK  Name = NuBBE_318
REMARK  19 active torsions:
REMARK  status: ('A' for Active; 'I' for Inactive)
REMARK    1  A    between atoms: C_1  and  O_2
REMARK    2  A    between atoms: O_2  and  C_3
REMARK    3  A    between atoms: C_4  and  O_55
REMARK    4  A    between atoms: C_7  and  C_8
REMARK    5  A    between atoms: C_12  and  O_16
REMARK    6  A    between atoms: C_14  and  O_15
REMARK    7  A    between atoms: O_16  and  C_17
REMARK    8  A    between atoms: C_21  and  O_22
REMARK    9  A    between atoms: O_22  and  C_23
REMARK   10  A    between atoms: C_26  and  C_37
REMARK   11  A    between atoms: C_28  and  O_36
REMARK   12  A    between atoms: C_30  and  O_35
REMARK   13  A    between atoms: C_32  and  O_34
REMARK   14  A    between atoms: C_37  and  O_38
REMARK   15  A    between atoms: O_38  and  C_39
REMARK   16  A    between atoms: C_42  and  C_53
REMARK   17  A    between atoms: C_44  and  O_52
REMARK   18  A    between atoms: C_46  and  O_51
REMARK   19  A    between atoms: C_48  and  O_50
REMARK                            x       y       z     vdW  Elec       q    Type
REMARK                         _______ _______ _______ _____ _____    ______ ____
ROOT
ATOM      1  C   LIG A   1      -8.112   1.439 129.016  0.00  0.00    +0.340 C 
ATOM      2  O   LIG A   1      -8.369   2.844 129.118  0.00  0.00    -0.331 OA
ATOM      3  C   LIG A   1      -9.426   3.196 130.026  0.00  0.00    +0.179 C 
ATOM      4  C   LIG A   1      -9.020   2.773 131.445  0.00  0.00    +0.177 C 
ATOM      5  C   LIG A   1      -8.774   1.260 131.463  0.00  0.00    +0.180 C 
ATOM      6  C   LIG A   1      -7.799   0.803 130.381  0.00  0.00    +0.214 C 
ENDROOT
BRANCH   4   7
ATOM      7  O   LIG A   1     -10.025   3.053 132.427  0.00  0.00    -0.387 OA
ATOM      8  H   LIG A   1     -10.844   2.607 132.128  0.00  0.00    +0.210 HD
ENDBRANCH   4   7
BRANCH   5   9
ATOM      9  O   LIG A   1      -8.246   0.860 132.741  0.00  0.00    -0.386 OA
ATOM     10  H   LIG A   1      -8.551  -0.061 132.866  0.00  0.00    +0.210 HD
ENDBRANCH   5   9
BRANCH   6  11
ATOM     11  O   LIG A   1      -7.881  -0.636 130.282  0.00  0.00    -0.383 OA
ATOM     12  H   LIG A   1      -7.060  -0.974 130.689  0.00  0.00    +0.210 HD
ENDBRANCH   6  11
BRANCH   3  13
ATOM     13  C   LIG A   1      -9.636   4.722 129.899  0.00  0.00    +0.197 C 
BRANCH  13  14
ATOM     14  O   LIG A   1     -10.911   5.183 130.388  0.00  0.00    -0.346 OA
BRANCH  14  15
ATOM     15  C   LIG A   1     -11.343   6.366 129.652  0.00  0.00    +0.282 C 
ATOM     16  O   LIG A   1     -12.321   5.971 128.692  0.00  0.00    -0.343 OA
ATOM     17  C   LIG A   1     -12.741   6.998 127.788  0.00  0.00    +0.149 C 
ATOM     18  C   LIG A   1     -11.541   7.500 126.967  0.00  0.00    +0.174 C 
ATOM     19  C   LIG A   1     -10.430   8.017 127.877  0.00  0.00    +0.179 C 
ATOM     20  C   LIG A   1     -10.092   7.027 129.005  0.00  0.00    +0.201 C 
ATOM     21  C   LIG A   1     -13.541   8.094 128.489  0.00  0.00    +0.040 C 
BRANCH  18  22
ATOM     22  O   LIG A   1     -11.006   6.422 126.184  0.00  0.00    -0.387 OA
ATOM     23  H   LIG A   1     -10.433   6.808 125.496  0.00  0.00    +0.210 HD
ENDBRANCH  18  22
BRANCH  19  24
ATOM     24  O   LIG A   1     -10.787   9.294 128.425  0.00  0.00    -0.386 OA
ATOM     25  H   LIG A   1     -11.567   9.573 127.901  0.00  0.00    +0.210 HD
ENDBRANCH  19  24
BRANCH  20  26
ATOM     26  O   LIG A   1      -9.319   7.755 129.987  0.00  0.00    -0.384 OA
ATOM     27  H   LIG A   1      -9.958   8.146 130.608  0.00  0.00    +0.210 HD
ENDBRANCH  20  26
ENDBRANCH  14  15
ENDBRANCH  13  14
ENDBRANCH   3  13
BRANCH   1  28
ATOM     28  O   LIG A   1      -6.943   1.226 128.203  0.00  0.00    -0.453 OA
BRANCH  28  39
ATOM     29  C   LIG A   1      -6.154   2.583 126.388  0.00  0.00    +0.181 A 
ATOM     30  O   LIG A   1      -6.140   2.980 125.048  0.00  0.00    -0.451 OA
ATOM     31  C   LIG A   1      -7.205   2.627 124.255  0.00  0.00    +0.146 A 
ATOM     32  C   LIG A   1      -7.347   3.264 123.020  0.00  0.00    +0.092 A 
ATOM     33  C   LIG A   1      -8.445   2.950 122.210  0.00  0.00    +0.127 A 
ATOM     34  C   LIG A   1      -9.372   1.998 122.639  0.00  0.00    +0.092 A 
ATOM     35  C   LIG A   1      -9.220   1.363 123.862  0.00  0.00    +0.135 A 
ATOM     36  C   LIG A   1      -8.116   1.661 124.651  0.00  0.00    +0.109 A 
ATOM     37  C   LIG A   1      -7.808   0.933 125.865  0.00  0.00    +0.238 A 
ATOM     38  O   LIG A   1      -8.196  -0.243 125.979  0.00  0.00    -0.283 OA
ATOM     39  C   LIG A   1      -6.956   1.607 126.873  0.00  0.00    +0.214 A 
BRANCH  29  44
ATOM     40  C   LIG A   1      -4.571   5.166 128.695  0.00  0.00    +0.162 A 
ATOM     41  C   LIG A   1      -3.234   4.762 128.671  0.00  0.00    +0.159 A 
ATOM     42  C   LIG A   1      -2.839   3.631 127.976  0.00  0.00    +0.050 A 
ATOM     43  C   LIG A   1      -3.786   2.902 127.254  0.00  0.00    +0.015 A 
ATOM     44  C   LIG A   1      -5.129   3.310 127.197  0.00  0.00    +0.025 A 
ATOM     45  C   LIG A   1      -5.508   4.444 127.949  0.00  0.00    +0.061 A 
BRANCH  41  46
ATOM     46  O   LIG A   1      -2.282   5.478 129.344  0.00  0.00    -0.503 OA
ATOM     47  H   LIG A   1      -2.261   6.348 128.901  0.00  0.00    +0.292 HD
ENDBRANCH  41  46
BRANCH  40  49
ATOM     48  C   LIG A   1      -5.610   6.085 130.607  0.00  0.00    +0.277 C 
ATOM     49  O   LIG A   1      -4.838   6.295 129.427  0.00  0.00    -0.491 OA
ENDBRANCH  40  49
ENDBRANCH  29  44
BRANCH  33  50
ATOM     50  O   LIG A   1      -8.552   3.593 121.003  0.00  0.00    -0.495 OA
ATOM     51  C   LIG A   1      -7.296   3.964 120.426  0.00  0.00    +0.277 C 
ENDBRANCH  33  50
BRANCH  35  52
ATOM     52  O   LIG A   1     -10.184   0.493 124.272  0.00  0.00    -0.506 OA
ATOM     53  H   LIG A   1      -9.932  -0.415 124.044  0.00  0.00    +0.292 HD
ENDBRANCH  35  52
ENDBRANCH  28  39
ENDBRANCH   1  28
TORSDOF 16
ENDMDL
MODEL 3
REMARK VINA RESULT:      -8.5      2.600      3.955
REMARK  Name = NuBBE_318
REMARK  19 active torsions:
REMARK  status: ('A' for Active; 'I' for Inactive)
REMARK    1  A    between atoms: C_1  and  O_2
REMARK    2  A    between atoms: O_2  and  C_3
REMARK    3  A    between atoms: C_4  and  O_55
REMARK    4  A    between atoms: C_7  and  C_8
REMARK    5  A    between atoms: C_12  and  O_16
REMARK    6  A    between atoms: C_14  and  O_15
REMARK    7  A    between atoms: O_16  and  C_17
REMARK    8  A    between atoms: C_21  and  O_22
REMARK    9  A    between atoms: O_22  and  C_23
REMARK   10  A    between atoms: C_26  and  C_37
REMARK   11  A    between atoms: C_28  and  O_36
REMARK   12  A    between atoms: C_30  and  O_35
REMARK   13  A    between atoms: C_32  and  O_34
REMARK   14  A    between atoms: C_37  and  O_38
REMARK   15  A    between atoms: O_38  and  C_39
REMARK   16  A    between atoms: C_42  and  C_53
REMARK   17  A    between atoms: C_44  and  O_52
REMARK   18  A    between atoms: C_46  and  O_51
REMARK   19  A    between atoms: C_48  and  O_50
REMARK                            x       y       z     vdW  Elec       q    Type
REMARK                         _______ _______ _______ _____ _____    ______ ____
ROOT
ATOM      1  C   LIG A   1      -7.392   3.106 131.482  0.00  0.00    +0.340 C 
ATOM      2  O   LIG A   1      -7.246   4.454 131.020  0.00  0.00    -0.331 OA
ATOM      3  C   LIG A   1      -8.387   5.295 131.253  0.00  0.00    +0.179 C 
ATOM      4  C   LIG A   1      -8.602   5.428 132.768  0.00  0.00    +0.177 C 
ATOM      5  C   LIG A   1      -8.828   4.034 133.363  0.00  0.00    +0.180 C 
ATOM      6  C   LIG A   1      -7.736   3.039 132.981  0.00  0.00    +0.214 C 
ENDROOT
BRANCH   4   7
ATOM      7  O   LIG A   1      -9.741   6.227 133.109  0.00  0.00    -0.387 OA
ATOM      8  H   LIG A   1     -10.198   5.769 133.844  0.00  0.00    +0.210 HD
ENDBRANCH   4   7
BRANCH   5   9
ATOM      9  O   LIG A   1      -8.881   4.111 134.800  0.00  0.00    -0.386 OA
ATOM     10  H   LIG A   1      -8.369   3.340 135.116  0.00  0.00    +0.210 HD
ENDBRANCH   5   9
BRANCH   6  11
ATOM     11  O   LIG A   1      -8.198   1.712 133.318  0.00  0.00    -0.383 OA
ATOM     12  H   LIG A   1      -9.047   1.841 133.781  0.00  0.00    +0.210 HD
ENDBRANCH   6  11
BRANCH   3  13
ATOM     13  C   LIG A   1      -8.089   6.653 130.576  0.00  0.00    +0.197 C 
BRANCH  13  14
ATOM     14  O   LIG A   1      -9.176   7.596 130.646  0.00  0.00    -0.346 OA
BRANCH  14  15
ATOM     15  C   LIG A   1     -10.140   7.347 129.579  0.00  0.00    +0.282 C 
ATOM     16  O   LIG A   1     -10.034   8.394 128.618  0.00  0.00    -0.343 OA
ATOM     17  C   LIG A   1     -11.017   8.372 127.578  0.00  0.00    +0.149 C 
ATOM     18  C   LIG A   1     -12.425   8.510 128.181  0.00  0.00    +0.174 C 
ATOM     19  C   LIG A   1     -12.701   7.403 129.195  0.00  0.00    +0.179 C 
ATOM     20  C   LIG A   1     -11.557   7.246 130.212  0.00  0.00    +0.201 C 
ATOM     21  C   LIG A   1     -10.838   7.182 126.638  0.00  0.00    +0.040 C 
BRANCH  18  22
ATOM     22  O   LIG A   1     -12.539   9.770 128.861  0.00  0.00    -0.387 OA
ATOM     23  H   LIG A   1     -13.230  10.290 128.412  0.00  0.00    +0.210 HD
ENDBRANCH  18  22
BRANCH  19  24
ATOM     24  O   LIG A   1     -12.942   6.159 128.521  0.00  0.00    -0.386 OA
ATOM     25  H   LIG A   1     -13.097   5.516 129.245  0.00  0.00    +0.210 HD
ENDBRANCH  19  24
BRANCH  20  26
ATOM     26  O   LIG A   1     -11.749   5.970 130.867  0.00  0.00    -0.384 OA
ATOM     27  H   LIG A   1     -11.017   5.873 131.502  0.00  0.00    +0.210 HD
ENDBRANCH  20  26
ENDBRANCH  14  15
ENDBRANCH  13  14
ENDBRANCH   3  13
BRANCH   1  28
ATOM     28  O   LIG A   1      -6.141   2.412 131.332  0.00  0.00    -0.453 OA
BRANCH  28  39
ATOM     29  C   LIG A   1      -5.382   1.755 129.152  0.00  0.00    +0.181 A 
ATOM     30  O   LIG A   1      -5.212   0.823 128.124  0.00  0.00    -0.451 OA
ATOM     31  C   LIG A   1      -5.988  -0.311 128.141  0.00  0.00    +0.146 A 
ATOM     32  C   LIG A   1      -6.046  -1.087 126.981  0.00  0.00    +0.092 A 
ATOM     33  C   LIG A   1      -6.859  -2.227 126.961  0.00  0.00    +0.127 A 
ATOM     34  C   LIG A   1      -7.587  -2.578 128.099  0.00  0.00    +0.092 A 
ATOM     35  C   LIG A   1      -7.518  -1.809 129.249  0.00  0.00    +0.135 A 
ATOM     36  C   LIG A   1      -6.691  -0.692 129.273  0.00  0.00    +0.109 A 
ATOM     37  C   LIG A   1      -6.449   0.072 130.480  0.00  0.00    +0.238 A 
ATOM     38  O   LIG A   1      -6.549  -0.494 131.582  0.00  0.00    -0.283 OA
ATOM     39  C   LIG A   1      -5.995   1.474 130.325  0.00  0.00    +0.214 A 
BRANCH  29  44
ATOM     40  C   LIG A   1      -4.656   5.070 127.426  0.00  0.00    +0.162 A 
ATOM     41  C   LIG A   1      -3.526   5.496 128.128  0.00  0.00    +0.159 A 
ATOM     42  C   LIG A   1      -3.027   4.766 129.195  0.00  0.00    +0.050 A 
ATOM     43  C   LIG A   1      -3.641   3.563 129.551  0.00  0.00    +0.015 A 
ATOM     44  C   LIG A   1      -4.739   3.065 128.831  0.00  0.00    +0.025 A 
ATOM     45  C   LIG A   1      -5.248   3.852 127.774  0.00  0.00    +0.061 A 
BRANCH  41  46
ATOM     46  O   LIG A   1      -2.888   6.654 127.778  0.00  0.00    -0.503 OA
ATOM     47  H   LIG A   1      -2.740   6.580 126.815  0.00  0.00    +0.292 HD
ENDBRANCH  41  46
BRANCH  40  49
ATOM     48  C   LIG A   1      -5.909   5.270 125.434  0.00  0.00    +0.277 C 
ATOM     49  O   LIG A   1      -5.059   5.885 126.399  0.00  0.00    -0.491 OA
ENDBRANCH  40  49
ENDBRANCH  29  44
BRANCH  33  50
ATOM     50  O   LIG A   1      -6.892  -2.966 125.805  0.00  0.00    -0.495 OA
ATOM     51  C   LIG A   1      -6.383  -2.278 124.658  0.00  0.00    +0.277 C 
ENDBRANCH  33  50
BRANCH  35  52
ATOM     52  O   LIG A   1      -8.297  -2.149 130.313  0.00  0.00    -0.506 OA
ATOM     53  H   LIG A   1      -7.798  -2.711 130.926  0.00  0.00    +0.292 HD
ENDBRANCH  35  52
ENDBRANCH  28  39
ENDBRANCH   1  28
TORSDOF 16
ENDMDL
MODEL 4
REMARK VINA RESULT:      -8.5      2.460      3.938
REMARK  Name = NuBBE_318
REMARK  19 active torsions:
REMARK  status: ('A' for Active; 'I' for Inactive)
REMARK    1  A    between atoms: C_1  and  O_2
REMARK    2  A    between atoms: O_2  and  C_3
REMARK    3  A    between atoms: C_4  and  O_55
REMARK    4  A    between atoms: C_7  and  C_8
REMARK    5  A    between atoms: C_12  and  O_16
REMARK    6  A    between atoms: C_14  and  O_15
REMARK    7  A    between atoms: O_16  and  C_17
REMARK    8  A    between atoms: C_21  and  O_22
REMARK    9  A    between atoms: O_22  and  C_23
REMARK   10  A    between atoms: C_26  and  C_37
REMARK   11  A    between atoms: C_28  and  O_36
REMARK   12  A    between atoms: C_30  and  O_35
REMARK   13  A    between atoms: C_32  and  O_34
REMARK   14  A    between atoms: C_37  and  O_38
REMARK   15  A    between atoms: O_38  and  C_39
REMARK   16  A    between atoms: C_42  and  C_53
REMARK   17  A    between atoms: C_44  and  O_52
REMARK   18  A    between atoms: C_46  and  O_51
REMARK   19  A    between atoms: C_48  and  O_50
REMARK                            x       y       z     vdW  Elec       q    Type
REMARK                         _______ _______ _______ _____ _____    ______ ____
ROOT
ATOM      1  C   LIG A   1      -7.969   2.445 129.808  0.00  0.00    +0.340 C 
ATOM      2  O   LIG A   1      -7.652   3.841 129.868  0.00  0.00    -0.331 OA
ATOM      3  C   LIG A   1      -8.676   4.663 130.449  0.00  0.00    +0.179 C 
ATOM      4  C   LIG A   1      -8.873   4.248 131.915  0.00  0.00    +0.177 C 
ATOM      5  C   LIG A   1      -9.274   2.770 131.964  0.00  0.00    +0.180 C 
ATOM      6  C   LIG A   1      -8.318   1.866 131.190  0.00  0.00    +0.214 C 
ENDROOT
BRANCH   4   7
ATOM      7  O   LIG A   1      -9.900   4.992 132.580  0.00  0.00    -0.387 OA
ATOM      8  H   LIG A   1     -10.659   5.041 131.962  0.00  0.00    +0.210 HD
ENDBRANCH   4   7
BRANCH   5   9
ATOM      9  O   LIG A   1      -9.317   2.313 133.329  0.00  0.00    -0.386 OA
ATOM     10  H   LIG A   1      -9.458   1.347 133.270  0.00  0.00    +0.210 HD
ENDBRANCH   5   9
BRANCH   6  11
ATOM     11  O   LIG A   1      -8.946   0.574 131.036  0.00  0.00    -0.383 OA
ATOM     12  H   LIG A   1      -8.625   0.036 131.784  0.00  0.00    +0.210 HD
ENDBRANCH   6  11
BRANCH   3  13
ATOM     13  C   LIG A   1      -8.208   6.130 130.307  0.00  0.00    +0.197 C 
BRANCH  13  14
ATOM     14  O   LIG A   1      -9.232   7.104 130.586  0.00  0.00    -0.346 OA
BRANCH  14  15
ATOM     15  C   LIG A   1     -10.248   7.092 129.539  0.00  0.00    +0.282 C 
ATOM     16  O   LIG A   1     -10.032   8.211 128.682  0.00  0.00    -0.343 OA
ATOM     17  C   LIG A   1     -11.037   8.422 127.686  0.00  0.00    +0.149 C 
ATOM     18  C   LIG A   1     -12.398   8.676 128.356  0.00  0.00    +0.174 C 
ATOM     19  C   LIG A   1     -12.789   7.515 129.266  0.00  0.00    +0.179 C 
ATOM     20  C   LIG A   1     -11.649   7.109 130.216  0.00  0.00    +0.201 C 
ATOM     21  C   LIG A   1     -11.042   7.322 126.627  0.00  0.00    +0.040 C 
BRANCH  18  22
ATOM     22  O   LIG A   1     -12.326   9.864 129.161  0.00  0.00    -0.387 OA
ATOM     23  H   LIG A   1     -12.286   9.590 130.095  0.00  0.00    +0.210 HD
ENDBRANCH  18  22
BRANCH  19  24
ATOM     24  O   LIG A   1     -13.211   6.389 128.483  0.00  0.00    -0.386 OA
ATOM     25  H   LIG A   1     -12.375   5.981 128.174  0.00  0.00    +0.210 HD
ENDBRANCH  19  24
BRANCH  20  26
ATOM     26  O   LIG A   1     -11.989   5.808 130.749  0.00  0.00    -0.384 OA
ATOM     27  H   LIG A   1     -12.102   5.924 131.709  0.00  0.00    +0.210 HD
ENDBRANCH  20  26
ENDBRANCH  14  15
ENDBRANCH  13  14
ENDBRANCH   3  13
BRANCH   1  28
ATOM     28  O   LIG A   1      -6.816   1.713 129.352  0.00  0.00    -0.453 OA
BRANCH  28  39
ATOM     29  C   LIG A   1      -6.932   1.030 127.055  0.00  0.00    +0.181 A 
ATOM     30  O   LIG A   1      -7.067   0.069 126.050  0.00  0.00    -0.451 OA
ATOM     31  C   LIG A   1      -7.595  -1.154 126.387  0.00  0.00    +0.146 A 
ATOM     32  C   LIG A   1      -8.012  -2.000 125.357  0.00  0.00    +0.092 A 
ATOM     33  C   LIG A   1      -8.588  -3.235 125.676  0.00  0.00    +0.127 A 
ATOM     34  C   LIG A   1      -8.725  -3.610 127.014  0.00  0.00    +0.092 A 
ATOM     35  C   LIG A   1      -8.302  -2.770 128.032  0.00  0.00    +0.135 A 
ATOM     36  C   LIG A   1      -7.709  -1.555 127.709  0.00  0.00    +0.109 A 
ATOM     37  C   LIG A   1      -7.106  -0.694 128.706  0.00  0.00    +0.238 A 
ATOM     38  O   LIG A   1      -6.662  -1.200 129.752  0.00  0.00    -0.283 OA
ATOM     39  C   LIG A   1      -6.963   0.743 128.377  0.00  0.00    +0.214 A 
BRANCH  29  44
ATOM     40  C   LIG A   1      -5.262   4.391 126.412  0.00  0.00    +0.162 A 
ATOM     41  C   LIG A   1      -6.178   4.983 125.540  0.00  0.00    +0.159 A 
ATOM     42  C   LIG A   1      -7.298   4.295 125.101  0.00  0.00    +0.050 A 
ATOM     43  C   LIG A   1      -7.536   3.000 125.567  0.00  0.00    +0.015 A 
ATOM     44  C   LIG A   1      -6.675   2.392 126.495  0.00  0.00    +0.025 A 
ATOM     45  C   LIG A   1      -5.521   3.104 126.892  0.00  0.00    +0.061 A 
BRANCH  41  46
ATOM     46  O   LIG A   1      -5.985   6.262 125.095  0.00  0.00    -0.503 OA
ATOM     47  H   LIG A   1      -5.178   6.220 124.547  0.00  0.00    +0.292 HD
ENDBRANCH  41  46
BRANCH  40  49
ATOM     48  C   LIG A   1      -3.080   4.462 127.315  0.00  0.00    +0.277 C 
ATOM     49  O   LIG A   1      -4.189   5.169 126.764  0.00  0.00    -0.491 OA
ENDBRANCH  40  49
ENDBRANCH  29  44
BRANCH  33  50
ATOM     50  O   LIG A   1      -8.984  -4.041 124.639  0.00  0.00    -0.495 OA
ATOM     51  C   LIG A   1      -9.443  -3.326 123.487  0.00  0.00    +0.277 C 
ENDBRANCH  33  50
BRANCH  35  52
ATOM     52  O   LIG A   1      -8.519  -3.144 129.323  0.00  0.00    -0.506 OA
ATOM     53  H   LIG A   1      -7.888  -3.834 129.580  0.00  0.00    +0.292 HD
ENDBRANCH  35  52
ENDBRANCH  28  39
ENDBRANCH   1  28
TORSDOF 16
ENDMDL
MODEL 5
REMARK VINA RESULT:      -8.4      3.587      7.785
REMARK  Name = NuBBE_318
REMARK  19 active torsions:
REMARK  status: ('A' for Active; 'I' for Inactive)
REMARK    1  A    between atoms: C_1  and  O_2
REMARK    2  A    between atoms: O_2  and  C_3
REMARK    3  A    between atoms: C_4  and  O_55
REMARK    4  A    between atoms: C_7  and  C_8
REMARK    5  A    between atoms: C_12  and  O_16
REMARK    6  A    between atoms: C_14  and  O_15
REMARK    7  A    between atoms: O_16  and  C_17
REMARK    8  A    between atoms: C_21  and  O_22
REMARK    9  A    between atoms: O_22  and  C_23
REMARK   10  A    between atoms: C_26  and  C_37
REMARK   11  A    between atoms: C_28  and  O_36
REMARK   12  A    between atoms: C_30  and  O_35
REMARK   13  A    between atoms: C_32  and  O_34
REMARK   14  A    between atoms: C_37  and  O_38
REMARK   15  A    between atoms: O_38  and  C_39
REMARK   16  A    between atoms: C_42  and  C_53
REMARK   17  A    between atoms: C_44  and  O_52
REMARK   18  A    between atoms: C_46  and  O_51
REMARK   19  A    between atoms: C_48  and  O_50
REMARK                            x       y       z     vdW  Elec       q    Type
REMARK                         _______ _______ _______ _____ _____    ______ ____
ROOT
ATOM      1  C   LIG A   1      -7.729   3.106 127.678  0.00  0.00    +0.340 C 
ATOM      2  O   LIG A   1      -7.060   2.299 126.702  0.00  0.00    -0.331 OA
ATOM      3  C   LIG A   1      -7.669   2.303 125.400  0.00  0.00    +0.179 C 
ATOM      4  C   LIG A   1      -7.608   3.728 124.830  0.00  0.00    +0.177 C 
ATOM      5  C   LIG A   1      -8.352   4.676 125.778  0.00  0.00    +0.180 C 
ATOM      6  C   LIG A   1      -7.873   4.570 127.224  0.00  0.00    +0.214 C 
ENDROOT
BRANCH   4   7
ATOM      7  O   LIG A   1      -8.220   3.848 123.541  0.00  0.00    -0.387 OA
ATOM      8  H   LIG A   1      -9.189   3.846 123.687  0.00  0.00    +0.210 HD
ENDBRANCH   4   7
BRANCH   5   9
ATOM      9  O   LIG A   1      -8.181   6.040 125.349  0.00  0.00    -0.386 OA
ATOM     10  H   LIG A   1      -8.190   6.569 126.171  0.00  0.00    +0.210 HD
ENDBRANCH   5   9
BRANCH   6  11
ATOM     11  O   LIG A   1      -8.829   5.252 128.065  0.00  0.00    -0.383 OA
ATOM     12  H   LIG A   1      -9.563   4.621 128.192  0.00  0.00    +0.210 HD
ENDBRANCH   6  11
BRANCH   3  13
ATOM     13  C   LIG A   1      -6.888   1.286 124.536  0.00  0.00    +0.197 C 
BRANCH  13  14
ATOM     14  O   LIG A   1      -7.726   0.363 123.813  0.00  0.00    -0.346 OA
BRANCH  14  15
ATOM     15  C   LIG A   1      -7.597  -0.982 124.362  0.00  0.00    +0.282 C 
ATOM     16  O   LIG A   1      -7.595  -1.914 123.282  0.00  0.00    -0.343 OA
ATOM     17  C   LIG A   1      -7.620  -3.293 123.664  0.00  0.00    +0.149 C 
ATOM     18  C   LIG A   1      -8.899  -3.595 124.463  0.00  0.00    +0.174 C 
ATOM     19  C   LIG A   1      -9.002  -2.701 125.696  0.00  0.00    +0.179 C 
ATOM     20  C   LIG A   1      -8.763  -1.218 125.363  0.00  0.00    +0.201 C 
ATOM     21  C   LIG A   1      -6.324  -3.729 124.344  0.00  0.00    +0.040 C 
BRANCH  18  22
ATOM     22  O   LIG A   1     -10.052  -3.349 123.642  0.00  0.00    -0.387 OA
ATOM     23  H   LIG A   1     -10.581  -2.652 124.071  0.00  0.00    +0.210 HD
ENDBRANCH  18  22
BRANCH  19  24
ATOM     24  O   LIG A   1      -8.082  -3.139 126.707  0.00  0.00    -0.386 OA
ATOM     25  H   LIG A   1      -7.312  -3.479 126.204  0.00  0.00    +0.210 HD
ENDBRANCH  19  24
BRANCH  20  26
ATOM     26  O   LIG A   1      -8.523  -0.539 126.617  0.00  0.00    -0.384 OA
ATOM     27  H   LIG A   1      -8.011  -1.155 127.171  0.00  0.00    +0.210 HD
ENDBRANCH  20  26
ENDBRANCH  14  15
ENDBRANCH  13  14
ENDBRANCH   3  13
BRANCH   1  28
ATOM     28  O   LIG A   1      -6.946   3.142 128.885  0.00  0.00    -0.453 OA
BRANCH  28  39
ATOM     29  C   LIG A   1      -4.902   1.978 129.357  0.00  0.00    +0.181 A 
ATOM     30  O   LIG A   1      -4.177   0.855 129.767  0.00  0.00    -0.451 OA
ATOM     31  C   LIG A   1      -4.812  -0.364 129.764  0.00  0.00    +0.146 A 
ATOM     32  C   LIG A   1      -4.029  -1.515 129.876  0.00  0.00    +0.092 A 
ATOM     33  C   LIG A   1      -4.648  -2.770 129.837  0.00  0.00    +0.127 A 
ATOM     34  C   LIG A   1      -6.036  -2.854 129.703  0.00  0.00    +0.092 A 
ATOM     35  C   LIG A   1      -6.807  -1.707 129.601  0.00  0.00    +0.135 A 
ATOM     36  C   LIG A   1      -6.190  -0.464 129.664  0.00  0.00    +0.109 A 
ATOM     37  C   LIG A   1      -6.940   0.775 129.719  0.00  0.00    +0.238 A 
ATOM     38  O   LIG A   1      -8.087   0.766 130.199  0.00  0.00    -0.283 OA
ATOM     39  C   LIG A   1      -6.253   2.014 129.284  0.00  0.00    +0.214 A 
BRANCH  29  44
ATOM     40  C   LIG A   1      -2.963   5.212 129.886  0.00  0.00    +0.162 A 
ATOM     41  C   LIG A   1      -2.418   5.408 128.615  0.00  0.00    +0.159 A 
ATOM     42  C   LIG A   1      -2.609   4.482 127.602  0.00  0.00    +0.050 A 
ATOM     43  C   LIG A   1      -3.392   3.351 127.843  0.00  0.00    +0.015 A 
ATOM     44  C   LIG A   1      -4.013   3.148 129.086  0.00  0.00    +0.025 A 
ATOM     45  C   LIG A   1      -3.766   4.089 130.110  0.00  0.00    +0.061 A 
BRANCH  41  46
ATOM     46  O   LIG A   1      -1.675   6.524 128.345  0.00  0.00    -0.503 OA
ATOM     47  H   LIG A   1      -0.922   6.483 128.966  0.00  0.00    +0.292 HD
ENDBRANCH  41  46
BRANCH  40  49
ATOM     48  C   LIG A   1      -3.129   5.916 132.135  0.00  0.00    +0.277 C 
ATOM     49  O   LIG A   1      -2.694   6.193 130.806  0.00  0.00    -0.491 OA
ENDBRANCH  40  49
ENDBRANCH  29  44
BRANCH  33  50
ATOM     50  O   LIG A   1      -3.849  -3.880 129.951  0.00  0.00    -0.495 OA
ATOM     51  C   LIG A   1      -2.814  -3.955 128.965  0.00  0.00    +0.277 C 
ENDBRANCH  33  50
BRANCH  35  52
ATOM     52  O   LIG A   1      -8.148  -1.836 129.402  0.00  0.00    -0.506 OA
ATOM     53  H   LIG A   1      -8.404  -2.770 129.449  0.00  0.00    +0.292 HD
ENDBRANCH  35  52
ENDBRANCH  28  39
ENDBRANCH   1  28
TORSDOF 16
ENDMDL
MODEL 6
REMARK VINA RESULT:      -8.4      3.650      5.528
REMARK  Name = NuBBE_318
REMARK  19 active torsions:
REMARK  status: ('A' for Active; 'I' for Inactive)
REMARK    1  A    between atoms: C_1  and  O_2
REMARK    2  A    between atoms: O_2  and  C_3
REMARK    3  A    between atoms: C_4  and  O_55
REMARK    4  A    between atoms: C_7  and  C_8
REMARK    5  A    between atoms: C_12  and  O_16
REMARK    6  A    between atoms: C_14  and  O_15
REMARK    7  A    between atoms: O_16  and  C_17
REMARK    8  A    between atoms: C_21  and  O_22
REMARK    9  A    between atoms: O_22  and  C_23
REMARK   10  A    between atoms: C_26  and  C_37
REMARK   11  A    between atoms: C_28  and  O_36
REMARK   12  A    between atoms: C_30  and  O_35
REMARK   13  A    between atoms: C_32  and  O_34
REMARK   14  A    between atoms: C_37  and  O_38
REMARK   15  A    between atoms: O_38  and  C_39
REMARK   16  A    between atoms: C_42  and  C_53
REMARK   17  A    between atoms: C_44  and  O_52
REMARK   18  A    between atoms: C_46  and  O_51
REMARK   19  A    between atoms: C_48  and  O_50
REMARK                            x       y       z     vdW  Elec       q    Type
REMARK                         _______ _______ _______ _____ _____    ______ ____
ROOT
ATOM      1  C   LIG A   1      -8.312   2.421 130.814  0.00  0.00    +0.340 C 
ATOM      2  O   LIG A   1      -9.249   3.320 130.208  0.00  0.00    -0.331 OA
ATOM      3  C   LIG A   1     -10.158   3.947 131.127  0.00  0.00    +0.179 C 
ATOM      4  C   LIG A   1      -9.353   4.825 132.097  0.00  0.00    +0.177 C 
ATOM      5  C   LIG A   1      -8.348   3.944 132.848  0.00  0.00    +0.180 C 
ATOM      6  C   LIG A   1      -7.482   3.101 131.916  0.00  0.00    +0.214 C 
ENDROOT
BRANCH   4   7
ATOM      7  O   LIG A   1     -10.168   5.475 133.079  0.00  0.00    -0.387 OA
ATOM      8  H   LIG A   1      -9.906   6.419 133.084  0.00  0.00    +0.210 HD
ENDBRANCH   4   7
BRANCH   5   9
ATOM      9  O   LIG A   1      -7.477   4.762 133.653  0.00  0.00    -0.386 OA
ATOM     10  H   LIG A   1      -8.042   5.492 133.977  0.00  0.00    +0.210 HD
ENDBRANCH   5   9
BRANCH   6  11
ATOM     11  O   LIG A   1      -6.809   2.100 132.711  0.00  0.00    -0.383 OA
ATOM     12  H   LIG A   1      -5.968   2.508 132.989  0.00  0.00    +0.210 HD
ENDBRANCH   6  11
BRANCH   3  13
ATOM     13  C   LIG A   1     -11.158   4.766 130.279  0.00  0.00    +0.197 C 
BRANCH  13  14
ATOM     14  O   LIG A   1     -11.660   5.946 130.937  0.00  0.00    -0.346 OA
BRANCH  14  15
ATOM     15  C   LIG A   1     -11.734   7.062 130.000  0.00  0.00    +0.282 C 
ATOM     16  O   LIG A   1     -12.975   6.985 129.300  0.00  0.00    -0.343 OA
ATOM     17  C   LIG A   1     -13.137   7.930 128.238  0.00  0.00    +0.149 C 
ATOM     18  C   LIG A   1     -12.051   7.715 127.171  0.00  0.00    +0.174 C 
ATOM     19  C   LIG A   1     -10.654   7.833 127.776  0.00  0.00    +0.179 C 
ATOM     20  C   LIG A   1     -10.501   6.993 129.056  0.00  0.00    +0.201 C 
ATOM     21  C   LIG A   1     -13.255   9.363 128.752  0.00  0.00    +0.040 C 
BRANCH  18  22
ATOM     22  O   LIG A   1     -12.179   6.401 126.608  0.00  0.00    -0.387 OA
ATOM     23  H   LIG A   1     -11.298   6.120 126.299  0.00  0.00    +0.210 HD
ENDBRANCH  18  22
BRANCH  19  24
ATOM     24  O   LIG A   1     -10.341   9.208 128.042  0.00  0.00    -0.386 OA
ATOM     25  H   LIG A   1     -10.744   9.384 128.917  0.00  0.00    +0.210 HD
ENDBRANCH  19  24
BRANCH  20  26
ATOM     26  O   LIG A   1      -9.304   7.457 129.722  0.00  0.00    -0.384 OA
ATOM     27  H   LIG A   1      -8.813   6.662 129.996  0.00  0.00    +0.210 HD
ENDBRANCH  20  26
ENDBRANCH  14  15
ENDBRANCH  13  14
ENDBRANCH   3  13
BRANCH   1  28
ATOM     28  O   LIG A   1      -7.367   1.978 129.823  0.00  0.00    -0.453 OA
BRANCH  28  39
ATOM     29  C   LIG A   1      -7.406  -0.379 129.371  0.00  0.00    +0.181 A 
ATOM     30  O   LIG A   1      -7.719  -1.487 128.580  0.00  0.00    -0.451 OA
ATOM     31  C   LIG A   1      -7.992  -1.279 127.250  0.00  0.00    +0.146 A 
ATOM     32  C   LIG A   1      -8.005  -2.386 126.397  0.00  0.00    +0.092 A 
ATOM     33  C   LIG A   1      -8.243  -2.195 125.031  0.00  0.00    +0.127 A 
ATOM     34  C   LIG A   1      -8.477  -0.908 124.542  0.00  0.00    +0.092 A 
ATOM     35  C   LIG A   1      -8.470   0.185 125.394  0.00  0.00    +0.135 A 
ATOM     36  C   LIG A   1      -8.258  -0.012 126.753  0.00  0.00    +0.109 A 
ATOM     37  C   LIG A   1      -8.387   1.055 127.724  0.00  0.00    +0.238 A 
ATOM     38  O   LIG A   1      -9.144   2.010 127.475  0.00  0.00    -0.283 OA
ATOM     39  C   LIG A   1      -7.678   0.898 129.016  0.00  0.00    +0.214 A 
BRANCH  29  44
ATOM     40  C   LIG A   1      -7.131  -1.593 132.970  0.00  0.00    +0.162 A 
ATOM     41  C   LIG A   1      -5.758  -1.467 133.191  0.00  0.00    +0.159 A 
ATOM     42  C   LIG A   1      -4.903  -1.058 132.180  0.00  0.00    +0.050 A 
ATOM     43  C   LIG A   1      -5.428  -0.729 130.928  0.00  0.00    +0.015 A 
ATOM     44  C   LIG A   1      -6.810  -0.779 130.682  0.00  0.00    +0.025 A 
ATOM     45  C   LIG A   1      -7.650  -1.238 131.721  0.00  0.00    +0.061 A 
BRANCH  41  46
ATOM     46  O   LIG A   1      -5.224  -1.752 134.418  0.00  0.00    -0.503 OA
ATOM     47  H   LIG A   1      -5.960  -2.140 134.929  0.00  0.00    +0.292 HD
ENDBRANCH  41  46
BRANCH  40  49
ATOM     48  C   LIG A   1      -8.256  -3.389 134.014  0.00  0.00    +0.277 C 
ATOM     49  O   LIG A   1      -7.870  -2.018 134.045  0.00  0.00    -0.491 OA
ENDBRANCH  40  49
ENDBRANCH  29  44
BRANCH  33  50
ATOM     50  O   LIG A   1      -8.250  -3.304 124.224  0.00  0.00    -0.495 OA
ATOM     51  C   LIG A   1      -9.372  -3.372 123.337  0.00  0.00    +0.277 C 
ENDBRANCH  33  50
BRANCH  35  52
ATOM     52  O   LIG A   1      -8.634   1.429 124.865  0.00  0.00    -0.506 OA
ATOM     53  H   LIG A   1      -9.017   1.365 123.976  0.00  0.00    +0.292 HD
ENDBRANCH  35  52
ENDBRANCH  28  39
ENDBRANCH   1  28
TORSDOF 16
ENDMDL
MODEL 7
REMARK VINA RESULT:      -8.3      4.327      8.951
REMARK  Name = NuBBE_318
REMARK  19 active torsions:
REMARK  status: ('A' for Active; 'I' for Inactive)
REMARK    1  A    between atoms: C_1  and  O_2
REMARK    2  A    between atoms: O_2  and  C_3
REMARK    3  A    between atoms: C_4  and  O_55
REMARK    4  A    between atoms: C_7  and  C_8
REMARK    5  A    between atoms: C_12  and  O_16
REMARK    6  A    between atoms: C_14  and  O_15
REMARK    7  A    between atoms: O_16  and  C_17
REMARK    8  A    between atoms: C_21  and  O_22
REMARK    9  A    between atoms: O_22  and  C_23
REMARK   10  A    between atoms: C_26  and  C_37
REMARK   11  A    between atoms: C_28  and  O_36
REMARK   12  A    between atoms: C_30  and  O_35
REMARK   13  A    between atoms: C_32  and  O_34
REMARK   14  A    between atoms: C_37  and  O_38
REMARK   15  A    between atoms: O_38  and  C_39
REMARK   16  A    between atoms: C_42  and  C_53
REMARK   17  A    between atoms: C_44  and  O_52
REMARK   18  A    between atoms: C_46  and  O_51
REMARK   19  A    between atoms: C_48  and  O_50
REMARK                            x       y       z     vdW  Elec       q    Type
REMARK                         _______ _______ _______ _____ _____    ______ ____
ROOT
ATOM      1  C   LIG A   1      -5.912   2.923 126.026  0.00  0.00    +0.340 C 
ATOM      2  O   LIG A   1      -7.024   2.035 125.863  0.00  0.00    -0.331 OA
ATOM      3  C   LIG A   1      -8.124   2.583 125.119  0.00  0.00    +0.179 C 
ATOM      4  C   LIG A   1      -7.654   2.881 123.687  0.00  0.00    +0.177 C 
ATOM      5  C   LIG A   1      -6.489   3.876 123.742  0.00  0.00    +0.180 C 
ATOM      6  C   LIG A   1      -5.370   3.432 124.679  0.00  0.00    +0.214 C 
ENDROOT
BRANCH   4   7
ATOM      7  O   LIG A   1      -8.673   3.462 122.867  0.00  0.00    -0.387 OA
ATOM      8  H   LIG A   1      -9.533   3.176 123.238  0.00  0.00    +0.210 HD
ENDBRANCH   4   7
BRANCH   5   9
ATOM      9  O   LIG A   1      -5.930   4.056 122.428  0.00  0.00    -0.386 OA
ATOM     10  H   LIG A   1      -6.696   4.234 121.846  0.00  0.00    +0.210 HD
ENDBRANCH   5   9
BRANCH   6  11
ATOM     11  O   LIG A   1      -4.493   4.559 124.898  0.00  0.00    -0.383 OA
ATOM     12  H   LIG A   1      -3.879   4.280 125.604  0.00  0.00    +0.210 HD
ENDBRANCH   6  11
BRANCH   3  13
ATOM     13  C   LIG A   1      -9.261   1.537 125.163  0.00  0.00    +0.197 C 
BRANCH  13  14
ATOM     14  O   LIG A   1      -9.075   0.507 126.154  0.00  0.00    -0.346 OA
BRANCH  14  15
ATOM     15  C   LIG A   1      -8.686  -0.748 125.521  0.00  0.00    +0.282 C 
ATOM     16  O   LIG A   1      -9.788  -1.651 125.589  0.00  0.00    -0.343 OA
ATOM     17  C   LIG A   1      -9.517  -2.982 125.137  0.00  0.00    +0.149 C 
ATOM     18  C   LIG A   1      -8.413  -3.617 126.000  0.00  0.00    +0.174 C 
ATOM     19  C   LIG A   1      -7.139  -2.777 125.969  0.00  0.00    +0.179 C 
ATOM     20  C   LIG A   1      -7.416  -1.287 126.238  0.00  0.00    +0.201 C 
ATOM     21  C   LIG A   1      -9.266  -3.042 123.632  0.00  0.00    +0.040 C 
BRANCH  18  22
ATOM     22  O   LIG A   1      -8.854  -3.701 127.364  0.00  0.00    -0.387 OA
ATOM     23  H   LIG A   1      -8.077  -3.574 127.938  0.00  0.00    +0.210 HD
ENDBRANCH  18  22
BRANCH  19  24
ATOM     24  O   LIG A   1      -6.466  -2.939 124.713  0.00  0.00    -0.386 OA
ATOM     25  H   LIG A   1      -7.109  -3.423 124.153  0.00  0.00    +0.210 HD
ENDBRANCH  19  24
BRANCH  20  26
ATOM     26  O   LIG A   1      -6.235  -0.560 125.829  0.00  0.00    -0.384 OA
ATOM     27  H   LIG A   1      -5.626  -0.571 126.589  0.00  0.00    +0.210 HD
ENDBRANCH  20  26
ENDBRANCH  14  15
ENDBRANCH  13  14
ENDBRANCH   3  13
BRANCH   1  28
ATOM     28  O   LIG A   1      -4.824   2.215 126.649  0.00  0.00    -0.453 OA
BRANCH  28  39
ATOM     29  C   LIG A   1      -4.595   2.246 129.037  0.00  0.00    +0.181 A 
ATOM     30  O   LIG A   1      -4.034   2.722 130.225  0.00  0.00    -0.451 OA
ATOM     31  C   LIG A   1      -3.384   3.932 130.198  0.00  0.00    +0.146 A 
ATOM     32  C   LIG A   1      -3.091   4.552 131.415  0.00  0.00    +0.092 A 
ATOM     33  C   LIG A   1      -2.463   5.802 131.413  0.00  0.00    +0.127 A 
ATOM     34  C   LIG A   1      -2.127   6.406 130.199  0.00  0.00    +0.092 A 
ATOM     35  C   LIG A   1      -2.412   5.782 128.996  0.00  0.00    +0.135 A 
ATOM     36  C   LIG A   1      -3.014   4.530 129.004  0.00  0.00    +0.109 A 
ATOM     37  C   LIG A   1      -3.205   3.750 127.797  0.00  0.00    +0.238 A 
ATOM     38  O   LIG A   1      -2.432   3.922 126.839  0.00  0.00    -0.283 OA
ATOM     39  C   LIG A   1      -4.261   2.711 127.811  0.00  0.00    +0.214 A 
BRANCH  29  44
ATOM     40  C   LIG A   1      -5.904  -1.282 129.615  0.00  0.00    +0.162 A 
ATOM     41  C   LIG A   1      -7.281  -1.054 129.656  0.00  0.00    +0.159 A 
ATOM     42  C   LIG A   1      -7.798   0.228 129.566  0.00  0.00    +0.050 A 
ATOM     43  C   LIG A   1      -6.931   1.309 129.392  0.00  0.00    +0.015 A 
ATOM     44  C   LIG A   1      -5.544   1.117 129.280  0.00  0.00    +0.025 A 
ATOM     45  C   LIG A   1      -5.045  -0.197 129.416  0.00  0.00    +0.061 A 
BRANCH  41  46
ATOM     46  O   LIG A   1      -8.153  -2.099 129.792  0.00  0.00    -0.503 OA
ATOM     47  H   LIG A   1      -8.789  -1.995 129.059  0.00  0.00    +0.292 HD
ENDBRANCH  41  46
BRANCH  40  49
ATOM     48  C   LIG A   1      -4.539  -3.020 128.779  0.00  0.00    +0.277 C 
ATOM     49  O   LIG A   1      -5.515  -2.593 129.725  0.00  0.00    -0.491 OA
ENDBRANCH  40  49
ENDBRANCH  29  44
BRANCH  33  50
ATOM     50  O   LIG A   1      -2.189   6.381 132.626  0.00  0.00    -0.495 OA
ATOM     51  C   LIG A   1      -0.937   7.075 132.672  0.00  0.00    +0.277 C 
ENDBRANCH  33  50
BRANCH  35  52
ATOM     52  O   LIG A   1      -2.130   6.437 127.835  0.00  0.00    -0.506 OA
ATOM     53  H   LIG A   1      -1.170   6.499 127.713  0.00  0.00    +0.292 HD
ENDBRANCH  35  52
ENDBRANCH  28  39
ENDBRANCH   1  28
TORSDOF 16
ENDMDL
MODEL 8
REMARK VINA RESULT:      -8.3      2.754      4.850
REMARK  Name = NuBBE_318
REMARK  19 active torsions:
REMARK  status: ('A' for Active; 'I' for Inactive)
REMARK    1  A    between atoms: C_1  and  O_2
REMARK    2  A    between atoms: O_2  and  C_3
REMARK    3  A    between atoms: C_4  and  O_55
REMARK    4  A    between atoms: C_7  and  C_8
REMARK    5  A    between atoms: C_12  and  O_16
REMARK    6  A    between atoms: C_14  and  O_15
REMARK    7  A    between atoms: O_16  and  C_17
REMARK    8  A    between atoms: C_21  and  O_22
REMARK    9  A    between atoms: O_22  and  C_23
REMARK   10  A    between atoms: C_26  and  C_37
REMARK   11  A    between atoms: C_28  and  O_36
REMARK   12  A    between atoms: C_30  and  O_35
REMARK   13  A    between atoms: C_32  and  O_34
REMARK   14  A    between atoms: C_37  and  O_38
REMARK   15  A    between atoms: O_38  and  C_39
REMARK   16  A    between atoms: C_42  and  C_53
REMARK   17  A    between atoms: C_44  and  O_52
REMARK   18  A    between atoms: C_46  and  O_51
REMARK   19  A    between atoms: C_48  and  O_50
REMARK                            x       y       z     vdW  Elec       q    Type
REMARK                         _______ _______ _______ _____ _____    ______ ____
ROOT
ATOM      1  C   LIG A   1      -7.374   3.642 130.705  0.00  0.00    +0.340 C 
ATOM      2  O   LIG A   1      -8.652   4.279 130.587  0.00  0.00    -0.331 OA
ATOM      3  C   LIG A   1      -9.244   4.671 131.837  0.00  0.00    +0.179 C 
ATOM      4  C   LIG A   1      -8.346   5.726 132.499  0.00  0.00    +0.177 C 
ATOM      5  C   LIG A   1      -6.954   5.125 132.725  0.00  0.00    +0.180 C 
ATOM      6  C   LIG A   1      -6.356   4.514 131.461  0.00  0.00    +0.214 C 
ENDROOT
BRANCH   4   7
ATOM      7  O   LIG A   1      -8.833   6.164 133.773  0.00  0.00    -0.387 OA
ATOM      8  H   LIG A   1      -8.152   5.923 134.434  0.00  0.00    +0.210 HD
ENDBRANCH   4   7
BRANCH   5   9
ATOM      9  O   LIG A   1      -6.049   6.138 133.205  0.00  0.00    -0.386 OA
ATOM     10  H   LIG A   1      -5.224   5.660 133.422  0.00  0.00    +0.210 HD
ENDBRANCH   5   9
BRANCH   6  11
ATOM     11  O   LIG A   1      -5.216   3.714 131.844  0.00  0.00    -0.383 OA
ATOM     12  H   LIG A   1      -4.982   4.006 132.745  0.00  0.00    +0.210 HD
ENDBRANCH   6  11
BRANCH   3  13
ATOM     13  C   LIG A   1     -10.655   5.213 131.514  0.00  0.00    +0.197 C 
BRANCH  13  14
ATOM     14  O   LIG A   1     -11.060   5.022 130.144  0.00  0.00    -0.346 OA
BRANCH  14  15
ATOM     15  C   LIG A   1     -11.397   6.300 129.528  0.00  0.00    +0.282 C 
ATOM     16  O   LIG A   1     -12.618   6.149 128.807  0.00  0.00    -0.343 OA
ATOM     17  C   LIG A   1     -13.010   7.280 128.023  0.00  0.00    +0.149 C 
ATOM     18  C   LIG A   1     -11.941   7.579 126.959  0.00  0.00    +0.174 C 
ATOM     19  C   LIG A   1     -10.579   7.827 127.601  0.00  0.00    +0.179 C 
ATOM     20  C   LIG A   1     -10.209   6.737 128.623  0.00  0.00    +0.201 C 
ATOM     21  C   LIG A   1     -13.404   8.475 128.888  0.00  0.00    +0.040 C 
BRANCH  18  22
ATOM     22  O   LIG A   1     -11.814   6.458 126.071  0.00  0.00    -0.387 OA
ATOM     23  H   LIG A   1     -12.525   5.827 126.283  0.00  0.00    +0.210 HD
ENDBRANCH  18  22
BRANCH  19  24
ATOM     24  O   LIG A   1     -10.547   9.121 128.221  0.00  0.00    -0.386 OA
ATOM     25  H   LIG A   1     -11.387   9.543 127.944  0.00  0.00    +0.210 HD
ENDBRANCH  19  24
BRANCH  20  26
ATOM     26  O   LIG A   1      -9.112   7.253 129.411  0.00  0.00    -0.384 OA
ATOM     27  H   LIG A   1      -9.010   6.652 130.170  0.00  0.00    +0.210 HD
ENDBRANCH  20  26
ENDBRANCH  14  15
ENDBRANCH  13  14
ENDBRANCH   3  13
BRANCH   1  28
ATOM     28  O   LIG A   1      -6.822   3.438 129.392  0.00  0.00    -0.453 OA
BRANCH  28  39
ATOM     29  C   LIG A   1      -7.898   1.454 128.577  0.00  0.00    +0.181 A 
ATOM     30  O   LIG A   1      -8.648   0.745 127.635  0.00  0.00    -0.451 OA
ATOM     31  C   LIG A   1      -8.755   1.263 126.367  0.00  0.00    +0.146 A 
ATOM     32  C   LIG A   1      -9.236   0.431 125.352  0.00  0.00    +0.092 A 
ATOM     33  C   LIG A   1      -9.318   0.924 124.045  0.00  0.00    +0.127 A 
ATOM     34  C   LIG A   1      -8.933   2.238 123.775  0.00  0.00    +0.092 A 
ATOM     35  C   LIG A   1      -8.466   3.061 124.787  0.00  0.00    +0.135 A 
ATOM     36  C   LIG A   1      -8.409   2.575 126.088  0.00  0.00    +0.109 A 
ATOM     37  C   LIG A   1      -8.078   3.418 127.219  0.00  0.00    +0.238 A 
ATOM     38  O   LIG A   1      -8.317   4.636 127.155  0.00  0.00    -0.283 OA
ATOM     39  C   LIG A   1      -7.557   2.756 128.438  0.00  0.00    +0.214 A 
BRANCH  29  44
ATOM     40  C   LIG A   1      -5.976  -0.726 131.038  0.00  0.00    +0.162 A 
ATOM     41  C   LIG A   1      -6.968  -1.003 131.981  0.00  0.00    +0.159 A 
ATOM     42  C   LIG A   1      -8.233  -0.447 131.876  0.00  0.00    +0.050 A 
ATOM     43  C   LIG A   1      -8.535   0.374 130.788  0.00  0.00    +0.015 A 
ATOM     44  C   LIG A   1      -7.587   0.626 129.782  0.00  0.00    +0.025 A 
ATOM     45  C   LIG A   1      -6.295   0.077 129.938  0.00  0.00    +0.061 A 
BRANCH  41  46
ATOM     46  O   LIG A   1      -6.707  -1.830 133.039  0.00  0.00    -0.503 OA
ATOM     47  H   LIG A   1      -6.539  -1.232 133.792  0.00  0.00    +0.292 HD
ENDBRANCH  41  46
BRANCH  40  49
ATOM     48  C   LIG A   1      -4.221  -2.028 130.141  0.00  0.00    +0.277 C 
ATOM     49  O   LIG A   1      -4.763  -1.326 131.258  0.00  0.00    -0.491 OA
ENDBRANCH  40  49
ENDBRANCH  29  44
BRANCH  33  50
ATOM     50  O   LIG A   1      -9.795   0.080 123.074  0.00  0.00    -0.495 OA
ATOM     51  C   LIG A   1      -9.085  -1.160 122.978  0.00  0.00    +0.277 C 
ENDBRANCH  33  50
BRANCH  35  52
ATOM     52  O   LIG A   1      -8.036   4.313 124.467  0.00  0.00    -0.506 OA
ATOM     53  H   LIG A   1      -7.310   4.263 123.827  0.00  0.00    +0.292 HD
ENDBRANCH  35  52
ENDBRANCH  28  39
ENDBRANCH   1  28
TORSDOF 16
ENDMDL
MODEL 9
REMARK VINA RESULT:      -8.1      3.994      8.253
REMARK  Name = NuBBE_318
REMARK  19 active torsions:
REMARK  status: ('A' for Active; 'I' for Inactive)
REMARK    1  A    between atoms: C_1  and  O_2
REMARK    2  A    between atoms: O_2  and  C_3
REMARK    3  A    between atoms: C_4  and  O_55
REMARK    4  A    between atoms: C_7  and  C_8
REMARK    5  A    between atoms: C_12  and  O_16
REMARK    6  A    between atoms: C_14  and  O_15
REMARK    7  A    between atoms: O_16  and  C_17
REMARK    8  A    between atoms: C_21  and  O_22
REMARK    9  A    between atoms: O_22  and  C_23
REMARK   10  A    between atoms: C_26  and  C_37
REMARK   11  A    between atoms: C_28  and  O_36
REMARK   12  A    between atoms: C_30  and  O_35
REMARK   13  A    between atoms: C_32  and  O_34
REMARK   14  A    between atoms: C_37  and  O_38
REMARK   15  A    between atoms: O_38  and  C_39
REMARK   16  A    between atoms: C_42  and  C_53
REMARK   17  A    between atoms: C_44  and  O_52
REMARK   18  A    between atoms: C_46  and  O_51
REMARK   19  A    between atoms: C_48  and  O_50
REMARK                            x       y       z     vdW  Elec       q    Type
REMARK                         _______ _______ _______ _____ _____    ______ ____
ROOT
ATOM      1  C   LIG A   1      -7.475   1.089 127.573  0.00  0.00    +0.340 C 
ATOM      2  O   LIG A   1      -7.138   2.161 128.462  0.00  0.00    -0.331 OA
ATOM      3  C   LIG A   1      -6.578   3.318 127.820  0.00  0.00    +0.179 C 
ATOM      4  C   LIG A   1      -7.630   3.917 126.874  0.00  0.00    +0.177 C 
ATOM      5  C   LIG A   1      -8.024   2.861 125.836  0.00  0.00    +0.180 C 
ATOM      6  C   LIG A   1      -8.445   1.535 126.464  0.00  0.00    +0.214 C 
ENDROOT
BRANCH   4   7
ATOM      7  O   LIG A   1      -7.158   5.064 126.158  0.00  0.00    -0.387 OA
ATOM      8  H   LIG A   1      -7.481   5.852 126.642  0.00  0.00    +0.210 HD
ENDBRANCH   4   7
BRANCH   5   9
ATOM      9  O   LIG A   1      -9.118   3.342 125.031  0.00  0.00    -0.386 OA
ATOM     10  H   LIG A   1      -9.868   2.751 125.241  0.00  0.00    +0.210 HD
ENDBRANCH   5   9
BRANCH   6  11
ATOM     11  O   LIG A   1      -8.488   0.537 125.421  0.00  0.00    -0.383 OA
ATOM     12  H   LIG A   1      -7.558   0.294 125.252  0.00  0.00    +0.210 HD
ENDBRANCH   6  11
BRANCH   3  13
ATOM     13  C   LIG A   1      -6.164   4.297 128.942  0.00  0.00    +0.197 C 
BRANCH  13  14
ATOM     14  O   LIG A   1      -7.115   5.354 129.181  0.00  0.00    -0.346 OA
BRANCH  14  15
ATOM     15  C   LIG A   1      -7.969   5.027 130.317  0.00  0.00    +0.282 C 
ATOM     16  O   LIG A   1      -7.322   4.024 131.098  0.00  0.00    -0.343 OA
ATOM     17  C   LIG A   1      -8.099   3.489 132.173  0.00  0.00    +0.149 C 
ATOM     18  C   LIG A   1      -9.371   2.822 131.623  0.00  0.00    +0.174 C 
ATOM     19  C   LIG A   1     -10.202   3.810 130.808  0.00  0.00    +0.179 C 
ATOM     20  C   LIG A   1      -9.354   4.572 129.775  0.00  0.00    +0.201 C 
ATOM     21  C   LIG A   1      -8.343   4.515 133.278  0.00  0.00    +0.040 C 
BRANCH  18  22
ATOM     22  O   LIG A   1      -9.011   1.731 130.761  0.00  0.00    -0.387 OA
ATOM     23  H   LIG A   1      -9.509   0.945 131.050  0.00  0.00    +0.210 HD
ENDBRANCH  18  22
BRANCH  19  24
ATOM     24  O   LIG A   1     -10.875   4.731 131.678  0.00  0.00    -0.386 OA
ATOM     25  H   LIG A   1     -11.632   4.221 132.035  0.00  0.00    +0.210 HD
ENDBRANCH  19  24
BRANCH  20  26
ATOM     26  O   LIG A   1     -10.142   5.703 129.337  0.00  0.00    -0.384 OA
ATOM     27  H   LIG A   1      -9.550   6.262 128.803  0.00  0.00    +0.210 HD
ENDBRANCH  20  26
ENDBRANCH  14  15
ENDBRANCH  13  14
ENDBRANCH   3  13
BRANCH   1  28
ATOM     28  O   LIG A   1      -8.161   0.059 128.308  0.00  0.00    -0.453 OA
BRANCH  28  39
ATOM     29  C   LIG A   1      -7.250  -2.161 128.298  0.00  0.00    +0.181 A 
ATOM     30  O   LIG A   1      -6.513  -3.204 128.864  0.00  0.00    -0.451 OA
ATOM     31  C   LIG A   1      -6.254  -3.158 130.213  0.00  0.00    +0.146 A 
ATOM     32  C   LIG A   1      -5.792  -4.320 130.836  0.00  0.00    +0.092 A 
ATOM     33  C   LIG A   1      -5.557  -4.309 132.216  0.00  0.00    +0.127 A 
ATOM     34  C   LIG A   1      -5.774  -3.139 132.946  0.00  0.00    +0.092 A 
ATOM     35  C   LIG A   1      -6.224  -1.988 132.321  0.00  0.00    +0.135 A 
ATOM     36  C   LIG A   1      -6.432  -1.996 130.947  0.00  0.00    +0.109 A 
ATOM     37  C   LIG A   1      -6.754  -0.796 130.201  0.00  0.00    +0.238 A 
ATOM     38  O   LIG A   1      -6.378   0.305 130.638  0.00  0.00    -0.283 OA
ATOM     39  C   LIG A   1      -7.435  -0.961 128.895  0.00  0.00    +0.214 A 
BRANCH  29  44
ATOM     40  C   LIG A   1      -7.287  -2.702 124.529  0.00  0.00    +0.162 A 
ATOM     41  C   LIG A   1      -8.622  -3.055 124.322  0.00  0.00    +0.159 A 
ATOM     42  C   LIG A   1      -9.502  -3.187 125.384  0.00  0.00    +0.050 A 
ATOM     43  C   LIG A   1      -9.057  -2.925 126.682  0.00  0.00    +0.015 A 
ATOM     44  C   LIG A   1      -7.740  -2.503 126.928  0.00  0.00    +0.025 A 
ATOM     45  C   LIG A   1      -6.857  -2.417 125.829  0.00  0.00    +0.061 A 
BRANCH  41  46
ATOM     46  O   LIG A   1      -9.091  -3.285 123.057  0.00  0.00    -0.503 OA
ATOM     47  H   LIG A   1     -10.028  -3.013 123.082  0.00  0.00    +0.292 HD
ENDBRANCH  41  46
BRANCH  40  49
ATOM     48  C   LIG A   1      -6.440  -1.318 122.812  0.00  0.00    +0.277 C 
ATOM     49  O   LIG A   1      -6.514  -2.615 123.399  0.00  0.00    -0.491 OA
ENDBRANCH  40  49
ENDBRANCH  29  44
BRANCH  33  50
ATOM     50  O   LIG A   1      -5.103  -5.468 132.795  0.00  0.00    -0.495 OA
ATOM     51  C   LIG A   1      -5.333  -5.543 134.206  0.00  0.00    +0.277 C 
ENDBRANCH  33  50
BRANCH  35  52
ATOM     52  O   LIG A   1      -6.488  -0.889 133.081  0.00  0.00    -0.506 OA
ATOM     53  H   LIG A   1      -5.898  -0.868 133.851  0.00  0.00    +0.292 HD
ENDBRANCH  35  52
ENDBRANCH  28  39
ENDBRANCH   1  28
TORSDOF 16
ENDMDL
