MODEL 1
REMARK VINA RESULT:      -6.7      0.000      0.000
REMARK  Name = NuBBE_193
REMARK  13 active torsions:
REMARK  status: ('A' for Active; 'I' for Inactive)
REMARK    1  A    between atoms: O_1  and  C_2
REMARK    2  A    between atoms: C_6  and  O_15
REMARK    3  A    between atoms: C_10  and  C_11
REMARK    4  A    between atoms: C_11  and  O_12
REMARK    5  A    between atoms: O_12  and  C_13
REMARK    6  A    between atoms: O_15  and  C_16
REMARK    7  A    between atoms: C_19  and  C_30
REMARK    8  A    between atoms: C_21  and  O_29
REMARK    9  A    between atoms: C_23  and  O_28
REMARK   10  A    between atoms: C_25  and  O_27
REMARK   11  A    between atoms: C_30  and  O_31
REMARK   12  A    between atoms: C_35  and  C_36
REMARK   13  A    between atoms: C_36  and  O_37
REMARK                            x       y       z     vdW  Elec       q    Type
REMARK                         _______ _______ _______ _____ _____    ______ ____
ROOT
ATOM      1  C   LIG A   1      -4.316   5.841 133.203  0.00  0.00    +0.146 C 
ATOM      2  C   LIG A   1      -5.834   5.956 132.906  0.00  0.00    +0.075 C 
ATOM      3  C   LIG A   1      -5.907   6.772 131.584  0.00  0.00    +0.096 C 
ATOM      4  C   LIG A   1      -7.116   6.345 130.718  0.00  0.00    +0.317 C 
ATOM      5  O   LIG A   1      -7.132   4.931 130.465  0.00  0.00    -0.470 OA
ATOM      6  C   LIG A   1      -7.004   4.175 131.597  0.00  0.00    +0.201 C 
ATOM      7  C   LIG A   1      -6.468   4.592 132.756  0.00  0.00    +0.077 C 
ATOM      8  C   LIG A   1      -3.669   6.078 131.879  0.00  0.00    +0.006 C 
ATOM      9  C   LIG A   1      -4.527   6.577 130.978  0.00  0.00    -0.036 C 
ENDROOT
BRANCH   1  10
ATOM     10  O   LIG A   1      -3.870   6.843 134.104  0.00  0.00    -0.387 OA
ATOM     11  H   LIG A   1      -4.626   7.124 134.645  0.00  0.00    +0.210 HD
ENDBRANCH   1  10
BRANCH   7  12
ATOM     12  C   LIG A   1      -6.459   3.691 133.932  0.00  0.00    +0.338 C 
ATOM     13  O   LIG A   1      -7.002   3.968 134.997  0.00  0.00    -0.245 OA
BRANCH  12  14
ATOM     14  O   LIG A   1      -5.689   2.607 133.681  0.00  0.00    -0.465 OA
ATOM     15  C   LIG A   1      -6.196   1.347 134.118  0.00  0.00    +0.280 C 
ENDBRANCH  12  14
ENDBRANCH   7  12
BRANCH   4  16
ATOM     16  O   LIG A   1      -8.329   6.775 131.366  0.00  0.00    -0.309 OA
BRANCH  16  17
ATOM     17  C   LIG A   1      -9.509   6.315 130.686  0.00  0.00    +0.286 C 
ATOM     18  O   LIG A   1      -9.593   7.018 129.443  0.00  0.00    -0.340 OA
ATOM     19  C   LIG A   1     -10.768   6.732 128.692  0.00  0.00    +0.178 C 
ATOM     20  C   LIG A   1     -11.996   7.245 129.454  0.00  0.00    +0.177 C 
ATOM     21  C   LIG A   1     -12.063   6.527 130.799  0.00  0.00    +0.179 C 
ATOM     22  C   LIG A   1     -10.748   6.605 131.582  0.00  0.00    +0.201 C 
BRANCH  22  23
ATOM     23  O   LIG A   1     -10.849   5.670 132.673  0.00  0.00    -0.384 OA
ATOM     24  H   LIG A   1     -10.595   4.806 132.288  0.00  0.00    +0.210 HD
ENDBRANCH  22  23
BRANCH  21  25
ATOM     25  O   LIG A   1     -13.125   7.086 131.593  0.00  0.00    -0.386 OA
ATOM     26  H   LIG A   1     -13.934   6.965 131.054  0.00  0.00    +0.210 HD
ENDBRANCH  21  25
BRANCH  20  27
ATOM     27  O   LIG A   1     -13.229   6.988 128.771  0.00  0.00    -0.387 OA
ATOM     28  H   LIG A   1     -13.507   7.837 128.362  0.00  0.00    +0.210 HD
ENDBRANCH  20  27
BRANCH  19  29
ATOM     29  C   LIG A   1     -10.628   7.411 127.325  0.00  0.00    +0.190 C 
BRANCH  29  30
ATOM     30  O   LIG A   1     -11.353   6.707 126.321  0.00  0.00    -0.392 OA
ATOM     31  H   LIG A   1     -12.302   6.849 126.500  0.00  0.00    +0.209 HD
ENDBRANCH  29  30
ENDBRANCH  19  29
ENDBRANCH  16  17
ENDBRANCH   4  16
BRANCH   9  32
ATOM     32  C   LIG A   1      -4.188   6.992 129.588  0.00  0.00    +0.187 C 
BRANCH  32  33
ATOM     33  O   LIG A   1      -4.471   8.368 129.421  0.00  0.00    -0.391 OA
ATOM     34  H   LIG A   1      -5.328   8.539 129.850  0.00  0.00    +0.210 HD
ENDBRANCH  32  33
ENDBRANCH   9  32
TORSDOF 12
ENDMDL
MODEL 2
REMARK VINA RESULT:      -6.7      4.081      5.962
REMARK  Name = NuBBE_193
REMARK  13 active torsions:
REMARK  status: ('A' for Active; 'I' for Inactive)
REMARK    1  A    between atoms: O_1  and  C_2
REMARK    2  A    between atoms: C_6  and  O_15
REMARK    3  A    between atoms: C_10  and  C_11
REMARK    4  A    between atoms: C_11  and  O_12
REMARK    5  A    between atoms: O_12  and  C_13
REMARK    6  A    between atoms: O_15  and  C_16
REMARK    7  A    between atoms: C_19  and  C_30
REMARK    8  A    between atoms: C_21  and  O_29
REMARK    9  A    between atoms: C_23  and  O_28
REMARK   10  A    between atoms: C_25  and  O_27
REMARK   11  A    between atoms: C_30  and  O_31
REMARK   12  A    between atoms: C_35  and  C_36
REMARK   13  A    between atoms: C_36  and  O_37
REMARK                            x       y       z     vdW  Elec       q    Type
REMARK                         _______ _______ _______ _____ _____    ______ ____
ROOT
ATOM      1  C   LIG A   1      -5.609   3.911 124.592  0.00  0.00    +0.146 C 
ATOM      2  C   LIG A   1      -5.964   4.363 126.032  0.00  0.00    +0.075 C 
ATOM      3  C   LIG A   1      -7.415   3.845 126.251  0.00  0.00    +0.096 C 
ATOM      4  C   LIG A   1      -7.664   3.460 127.729  0.00  0.00    +0.317 C 
ATOM      5  O   LIG A   1      -6.692   2.524 128.219  0.00  0.00    -0.470 OA
ATOM      6  C   LIG A   1      -5.400   2.910 127.988  0.00  0.00    +0.201 C 
ATOM      7  C   LIG A   1      -5.004   3.779 127.043  0.00  0.00    +0.077 C 
ATOM      8  C   LIG A   1      -6.558   2.793 124.318  0.00  0.00    +0.006 C 
ATOM      9  C   LIG A   1      -7.547   2.735 125.221  0.00  0.00    -0.036 C 
ENDROOT
BRANCH   1  10
ATOM     10  O   LIG A   1      -5.839   4.937 123.638  0.00  0.00    -0.387 OA
ATOM     11  H   LIG A   1      -6.484   5.560 124.011  0.00  0.00    +0.210 HD
ENDBRANCH   1  10
BRANCH   7  12
ATOM     12  C   LIG A   1      -3.579   4.168 126.949  0.00  0.00    +0.338 C 
ATOM     13  O   LIG A   1      -3.143   5.237 127.366  0.00  0.00    -0.245 OA
BRANCH  12  14
ATOM     14  O   LIG A   1      -2.887   3.235 126.256  0.00  0.00    -0.465 OA
ATOM     15  C   LIG A   1      -1.543   2.995 126.672  0.00  0.00    +0.280 C 
ENDBRANCH  12  14
ENDBRANCH   7  12
BRANCH   4  16
ATOM     16  O   LIG A   1      -7.684   4.660 128.526  0.00  0.00    -0.309 OA
BRANCH  16  17
ATOM     17  C   LIG A   1      -9.009   5.008 128.963  0.00  0.00    +0.286 C 
ATOM     18  O   LIG A   1      -9.428   6.147 128.206  0.00  0.00    -0.340 OA
ATOM     19  C   LIG A   1     -10.696   6.667 128.593  0.00  0.00    +0.178 C 
ATOM     20  C   LIG A   1     -10.604   7.225 130.018  0.00  0.00    +0.177 C 
ATOM     21  C   LIG A   1     -10.212   6.086 130.955  0.00  0.00    +0.179 C 
ATOM     22  C   LIG A   1      -8.966   5.329 130.485  0.00  0.00    +0.201 C 
BRANCH  22  23
ATOM     23  O   LIG A   1      -8.873   4.131 131.281  0.00  0.00    -0.384 OA
ATOM     24  H   LIG A   1      -8.939   3.396 130.637  0.00  0.00    +0.210 HD
ENDBRANCH  22  23
BRANCH  21  25
ATOM     25  O   LIG A   1      -9.984   6.605 132.279  0.00  0.00    -0.386 OA
ATOM     26  H   LIG A   1     -10.756   7.179 132.461  0.00  0.00    +0.210 HD
ENDBRANCH  21  25
BRANCH  20  27
ATOM     27  O   LIG A   1     -11.844   7.761 130.493  0.00  0.00    -0.387 OA
ATOM     28  H   LIG A   1     -12.161   7.154 131.199  0.00  0.00    +0.210 HD
ENDBRANCH  20  27
BRANCH  19  29
ATOM     29  C   LIG A   1     -11.082   7.756 127.585  0.00  0.00    +0.190 C 
BRANCH  29  30
ATOM     30  O   LIG A   1     -11.142   9.037 128.207  0.00  0.00    -0.392 OA
ATOM     31  H   LIG A   1     -12.001   9.433 127.966  0.00  0.00    +0.209 HD
ENDBRANCH  29  30
ENDBRANCH  19  29
ENDBRANCH  16  17
ENDBRANCH   4  16
BRANCH   9  32
ATOM     32  C   LIG A   1      -8.695   1.786 125.198  0.00  0.00    +0.187 C 
BRANCH  32  33
ATOM     33  O   LIG A   1      -9.820   2.417 124.615  0.00  0.00    -0.391 OA
ATOM     34  H   LIG A   1     -10.608   2.091 125.085  0.00  0.00    +0.210 HD
ENDBRANCH  32  33
ENDBRANCH   9  32
TORSDOF 12
ENDMDL
MODEL 3
REMARK VINA RESULT:      -6.7      7.673      9.611
REMARK  Name = NuBBE_193
REMARK  13 active torsions:
REMARK  status: ('A' for Active; 'I' for Inactive)
REMARK    1  A    between atoms: O_1  and  C_2
REMARK    2  A    between atoms: C_6  and  O_15
REMARK    3  A    between atoms: C_10  and  C_11
REMARK    4  A    between atoms: C_11  and  O_12
REMARK    5  A    between atoms: O_12  and  C_13
REMARK    6  A    between atoms: O_15  and  C_16
REMARK    7  A    between atoms: C_19  and  C_30
REMARK    8  A    between atoms: C_21  and  O_29
REMARK    9  A    between atoms: C_23  and  O_28
REMARK   10  A    between atoms: C_25  and  O_27
REMARK   11  A    between atoms: C_30  and  O_31
REMARK   12  A    between atoms: C_35  and  C_36
REMARK   13  A    between atoms: C_36  and  O_37
REMARK                            x       y       z     vdW  Elec       q    Type
REMARK                         _______ _______ _______ _____ _____    ______ ____
ROOT
ATOM      1  C   LIG A   1      -8.549  -3.259 125.430  0.00  0.00    +0.146 C 
ATOM      2  C   LIG A   1      -7.565  -2.062 125.488  0.00  0.00    +0.075 C 
ATOM      3  C   LIG A   1      -7.702  -1.520 126.940  0.00  0.00    +0.096 C 
ATOM      4  C   LIG A   1      -6.366  -0.937 127.459  0.00  0.00    +0.317 C 
ATOM      5  O   LIG A   1      -5.283  -1.873 127.346  0.00  0.00    -0.470 OA
ATOM      6  C   LIG A   1      -5.167  -2.424 126.100  0.00  0.00    +0.201 C 
ATOM      7  C   LIG A   1      -6.150  -2.499 125.187  0.00  0.00    +0.077 C 
ATOM      8  C   LIG A   1      -8.740  -3.640 126.861  0.00  0.00    +0.006 C 
ATOM      9  C   LIG A   1      -8.274  -2.705 127.701  0.00  0.00    -0.036 C 
ENDROOT
BRANCH   1  10
ATOM     10  O   LIG A   1      -9.810  -2.890 124.894  0.00  0.00    -0.387 OA
ATOM     11  H   LIG A   1     -10.420  -2.732 125.633  0.00  0.00    +0.210 HD
ENDBRANCH   1  10
BRANCH   7  12
ATOM     12  C   LIG A   1      -5.868  -3.055 123.844  0.00  0.00    +0.338 C 
ATOM     13  O   LIG A   1      -6.034  -2.423 122.805  0.00  0.00    -0.245 OA
BRANCH  12  14
ATOM     14  O   LIG A   1      -5.519  -4.358 123.944  0.00  0.00    -0.465 OA
ATOM     15  C   LIG A   1      -4.217  -4.709 123.474  0.00  0.00    +0.280 C 
ENDBRANCH  12  14
ENDBRANCH   7  12
BRANCH   4  16
ATOM     16  O   LIG A   1      -6.081   0.282 126.743  0.00  0.00    -0.309 OA
BRANCH  16  17
ATOM     17  C   LIG A   1      -7.200   1.185 126.727  0.00  0.00    +0.286 C 
ATOM     18  O   LIG A   1      -7.484   1.495 125.360  0.00  0.00    -0.340 OA
ATOM     19  C   LIG A   1      -8.519   2.457 125.185  0.00  0.00    +0.178 C 
ATOM     20  C   LIG A   1      -8.059   3.807 125.749  0.00  0.00    +0.177 C 
ATOM     21  C   LIG A   1      -7.770   3.633 127.238  0.00  0.00    +0.179 C 
ATOM     22  C   LIG A   1      -6.822   2.464 127.527  0.00  0.00    +0.201 C 
BRANCH  22  23
ATOM     23  O   LIG A   1      -6.857   2.234 128.950  0.00  0.00    -0.384 OA
ATOM     24  H   LIG A   1      -7.803   2.097 129.159  0.00  0.00    +0.210 HD
ENDBRANCH  22  23
BRANCH  21  25
ATOM     25  O   LIG A   1      -7.206   4.847 127.766  0.00  0.00    -0.386 OA
ATOM     26  H   LIG A   1      -6.355   4.957 127.292  0.00  0.00    +0.210 HD
ENDBRANCH  21  25
BRANCH  20  27
ATOM     27  O   LIG A   1      -9.049   4.835 125.625  0.00  0.00    -0.387 OA
ATOM     28  H   LIG A   1      -9.163   5.225 126.520  0.00  0.00    +0.210 HD
ENDBRANCH  20  27
BRANCH  19  29
ATOM     29  C   LIG A   1      -8.827   2.548 123.686  0.00  0.00    +0.190 C 
BRANCH  29  30
ATOM     30  O   LIG A   1      -8.253   3.718 123.111  0.00  0.00    -0.392 OA
ATOM     31  H   LIG A   1      -8.517   3.735 122.172  0.00  0.00    +0.209 HD
ENDBRANCH  29  30
ENDBRANCH  19  29
ENDBRANCH  16  17
ENDBRANCH   4  16
BRANCH   9  32
ATOM     32  C   LIG A   1      -8.372  -2.742 129.187  0.00  0.00    +0.187 C 
BRANCH  32  33
ATOM     33  O   LIG A   1      -7.388  -3.616 129.706  0.00  0.00    -0.391 OA
ATOM     34  H   LIG A   1      -6.807  -3.867 128.966  0.00  0.00    +0.210 HD
ENDBRANCH  32  33
ENDBRANCH   9  32
TORSDOF 12
ENDMDL
MODEL 4
REMARK VINA RESULT:      -6.7      2.427      4.211
REMARK  Name = NuBBE_193
REMARK  13 active torsions:
REMARK  status: ('A' for Active; 'I' for Inactive)
REMARK    1  A    between atoms: O_1  and  C_2
REMARK    2  A    between atoms: C_6  and  O_15
REMARK    3  A    between atoms: C_10  and  C_11
REMARK    4  A    between atoms: C_11  and  O_12
REMARK    5  A    between atoms: O_12  and  C_13
REMARK    6  A    between atoms: O_15  and  C_16
REMARK    7  A    between atoms: C_19  and  C_30
REMARK    8  A    between atoms: C_21  and  O_29
REMARK    9  A    between atoms: C_23  and  O_28
REMARK   10  A    between atoms: C_25  and  O_27
REMARK   11  A    between atoms: C_30  and  O_31
REMARK   12  A    between atoms: C_35  and  C_36
REMARK   13  A    between atoms: C_36  and  O_37
REMARK                            x       y       z     vdW  Elec       q    Type
REMARK                         _______ _______ _______ _____ _____    ______ ____
ROOT
ATOM      1  C   LIG A   1      -2.189   6.115 128.728  0.00  0.00    +0.146 C 
ATOM      2  C   LIG A   1      -3.540   6.356 129.450  0.00  0.00    +0.075 C 
ATOM      3  C   LIG A   1      -4.533   5.389 128.743  0.00  0.00    +0.096 C 
ATOM      4  C   LIG A   1      -5.615   4.870 129.720  0.00  0.00    +0.317 C 
ATOM      5  O   LIG A   1      -5.046   4.274 130.896  0.00  0.00    -0.470 OA
ATOM      6  C   LIG A   1      -4.118   5.067 131.514  0.00  0.00    +0.201 C 
ATOM      7  C   LIG A   1      -3.432   6.062 130.929  0.00  0.00    +0.077 C 
ATOM      8  C   LIG A   1      -2.345   4.766 128.110  0.00  0.00    +0.006 C 
ATOM      9  C   LIG A   1      -3.618   4.348 128.118  0.00  0.00    -0.036 C 
ENDROOT
BRANCH   1  10
ATOM     10  O   LIG A   1      -1.961   7.058 127.691  0.00  0.00    -0.387 OA
ATOM     11  H   LIG A   1      -1.665   7.890 128.096  0.00  0.00    +0.210 HD
ENDBRANCH   1  10
BRANCH   7  12
ATOM     12  C   LIG A   1      -2.508   6.894 131.734  0.00  0.00    +0.338 C 
ATOM     13  O   LIG A   1      -2.687   8.090 131.942  0.00  0.00    -0.245 OA
BRANCH  12  14
ATOM     14  O   LIG A   1      -1.423   6.170 132.091  0.00  0.00    -0.465 OA
ATOM     15  C   LIG A   1      -0.495   6.802 132.973  0.00  0.00    +0.280 C 
ENDBRANCH  12  14
ENDBRANCH   7  12
BRANCH   4  16
ATOM     16  O   LIG A   1      -6.497   5.959 130.059  0.00  0.00    -0.309 OA
BRANCH  16  17
ATOM     17  C   LIG A   1      -7.792   5.505 130.487  0.00  0.00    +0.286 C 
ATOM     18  O   LIG A   1      -8.770   6.163 129.677  0.00  0.00    -0.340 OA
ATOM     19  C   LIG A   1     -10.116   5.881 130.045  0.00  0.00    +0.178 C 
ATOM     20  C   LIG A   1     -10.392   6.454 131.441  0.00  0.00    +0.177 C 
ATOM     21  C   LIG A   1      -9.441   5.788 132.431  0.00  0.00    +0.179 C 
ATOM     22  C   LIG A   1      -7.975   5.860 131.991  0.00  0.00    +0.201 C 
BRANCH  22  23
ATOM     23  O   LIG A   1      -7.231   4.969 132.844  0.00  0.00    -0.384 OA
ATOM     24  H   LIG A   1      -7.413   4.074 132.492  0.00  0.00    +0.210 HD
ENDBRANCH  22  23
BRANCH  21  25
ATOM     25  O   LIG A   1      -9.581   6.402 133.725  0.00  0.00    -0.386 OA
ATOM     26  H   LIG A   1     -10.445   6.862 133.694  0.00  0.00    +0.210 HD
ENDBRANCH  21  25
BRANCH  20  27
ATOM     27  O   LIG A   1     -11.727   6.204 131.897  0.00  0.00    -0.387 OA
ATOM     28  H   LIG A   1     -12.253   7.005 131.681  0.00  0.00    +0.210 HD
ENDBRANCH  20  27
BRANCH  19  29
ATOM     29  C   LIG A   1     -11.032   6.506 128.988  0.00  0.00    +0.190 C 
BRANCH  29  30
ATOM     30  O   LIG A   1     -12.332   5.921 129.020  0.00  0.00    -0.392 OA
ATOM     31  H   LIG A   1     -12.311   5.145 128.430  0.00  0.00    +0.209 HD
ENDBRANCH  29  30
ENDBRANCH  19  29
ENDBRANCH  16  17
ENDBRANCH   4  16
BRANCH   9  32
ATOM     32  C   LIG A   1      -4.125   3.082 127.518  0.00  0.00    +0.187 C 
BRANCH  32  33
ATOM     33  O   LIG A   1      -3.075   2.432 126.826  0.00  0.00    -0.391 OA
ATOM     34  H   LIG A   1      -3.193   1.475 126.958  0.00  0.00    +0.210 HD
ENDBRANCH  32  33
ENDBRANCH   9  32
TORSDOF 12
ENDMDL
MODEL 5
REMARK VINA RESULT:      -6.7      1.474      3.981
REMARK  Name = NuBBE_193
REMARK  13 active torsions:
REMARK  status: ('A' for Active; 'I' for Inactive)
REMARK    1  A    between atoms: O_1  and  C_2
REMARK    2  A    between atoms: C_6  and  O_15
REMARK    3  A    between atoms: C_10  and  C_11
REMARK    4  A    between atoms: C_11  and  O_12
REMARK    5  A    between atoms: O_12  and  C_13
REMARK    6  A    between atoms: O_15  and  C_16
REMARK    7  A    between atoms: C_19  and  C_30
REMARK    8  A    between atoms: C_21  and  O_29
REMARK    9  A    between atoms: C_23  and  O_28
REMARK   10  A    between atoms: C_25  and  O_27
REMARK   11  A    between atoms: C_30  and  O_31
REMARK   12  A    between atoms: C_35  and  C_36
REMARK   13  A    between atoms: C_36  and  O_37
REMARK                            x       y       z     vdW  Elec       q    Type
REMARK                         _______ _______ _______ _____ _____    ______ ____
ROOT
ATOM      1  C   LIG A   1      -6.040   3.166 129.962  0.00  0.00    +0.146 C 
ATOM      2  C   LIG A   1      -6.633   4.588 130.143  0.00  0.00    +0.075 C 
ATOM      3  C   LIG A   1      -7.709   4.419 131.253  0.00  0.00    +0.096 C 
ATOM      4  C   LIG A   1      -7.834   5.693 132.123  0.00  0.00    +0.317 C 
ATOM      5  O   LIG A   1      -6.573   6.104 132.671  0.00  0.00    -0.470 OA
ATOM      6  C   LIG A   1      -5.579   6.203 131.736  0.00  0.00    +0.201 C 
ATOM      7  C   LIG A   1      -5.565   5.579 130.547  0.00  0.00    +0.077 C 
ATOM      8  C   LIG A   1      -6.376   2.469 131.238  0.00  0.00    +0.006 C 
ATOM      9  C   LIG A   1      -7.280   3.145 131.962  0.00  0.00    -0.036 C 
ENDROOT
BRANCH   1  10
ATOM     10  O   LIG A   1      -6.656   2.463 128.894  0.00  0.00    -0.387 OA
ATOM     11  H   LIG A   1      -6.669   1.518 129.119  0.00  0.00    +0.210 HD
ENDBRANCH   1  10
BRANCH   7  12
ATOM     12  C   LIG A   1      -4.460   5.833 129.594  0.00  0.00    +0.338 C 
ATOM     13  O   LIG A   1      -4.639   6.083 128.406  0.00  0.00    -0.245 OA
BRANCH  12  14
ATOM     14  O   LIG A   1      -3.268   5.640 130.203  0.00  0.00    -0.465 OA
ATOM     15  C   LIG A   1      -2.159   6.375 129.687  0.00  0.00    +0.280 C 
ENDBRANCH  12  14
ENDBRANCH   7  12
BRANCH   4  16
ATOM     16  O   LIG A   1      -8.428   6.740 131.331  0.00  0.00    -0.309 OA
BRANCH  16  17
ATOM     17  C   LIG A   1      -9.622   6.311 130.656  0.00  0.00    +0.286 C 
ATOM     18  O   LIG A   1      -9.683   7.002 129.405  0.00  0.00    -0.340 OA
ATOM     19  C   LIG A   1     -10.867   6.746 128.657  0.00  0.00    +0.178 C 
ATOM     20  C   LIG A   1     -12.078   7.307 129.412  0.00  0.00    +0.177 C 
ATOM     21  C   LIG A   1     -12.167   6.607 130.766  0.00  0.00    +0.179 C 
ATOM     22  C   LIG A   1     -10.851   6.652 131.548  0.00  0.00    +0.201 C 
BRANCH  22  23
ATOM     23  O   LIG A   1     -10.982   5.732 132.650  0.00  0.00    -0.384 OA
ATOM     24  H   LIG A   1     -11.241   4.882 132.239  0.00  0.00    +0.210 HD
ENDBRANCH  22  23
BRANCH  21  25
ATOM     25  O   LIG A   1     -13.211   7.208 131.554  0.00  0.00    -0.386 OA
ATOM     26  H   LIG A   1     -14.045   6.861 131.174  0.00  0.00    +0.210 HD
ENDBRANCH  21  25
BRANCH  20  27
ATOM     27  O   LIG A   1     -13.319   7.082 128.733  0.00  0.00    -0.387 OA
ATOM     28  H   LIG A   1     -13.248   6.200 128.304  0.00  0.00    +0.210 HD
ENDBRANCH  20  27
BRANCH  19  29
ATOM     29  C   LIG A   1     -10.705   7.405 127.283  0.00  0.00    +0.190 C 
BRANCH  29  30
ATOM     30  O   LIG A   1     -11.416   6.686 126.278  0.00  0.00    -0.392 OA
ATOM     31  H   LIG A   1     -11.781   7.345 125.658  0.00  0.00    +0.209 HD
ENDBRANCH  29  30
ENDBRANCH  19  29
ENDBRANCH  16  17
ENDBRANCH   4  16
BRANCH   9  32
ATOM     32  C   LIG A   1      -7.881   2.693 133.248  0.00  0.00    +0.187 C 
BRANCH  32  33
ATOM     33  O   LIG A   1      -7.133   1.608 133.766  0.00  0.00    -0.391 OA
ATOM     34  H   LIG A   1      -7.769   0.978 134.149  0.00  0.00    +0.210 HD
ENDBRANCH  32  33
ENDBRANCH   9  32
TORSDOF 12
ENDMDL
MODEL 6
REMARK VINA RESULT:      -6.7      2.580      4.946
REMARK  Name = NuBBE_193
REMARK  13 active torsions:
REMARK  status: ('A' for Active; 'I' for Inactive)
REMARK    1  A    between atoms: O_1  and  C_2
REMARK    2  A    between atoms: C_6  and  O_15
REMARK    3  A    between atoms: C_10  and  C_11
REMARK    4  A    between atoms: C_11  and  O_12
REMARK    5  A    between atoms: O_12  and  C_13
REMARK    6  A    between atoms: O_15  and  C_16
REMARK    7  A    between atoms: C_19  and  C_30
REMARK    8  A    between atoms: C_21  and  O_29
REMARK    9  A    between atoms: C_23  and  O_28
REMARK   10  A    between atoms: C_25  and  O_27
REMARK   11  A    between atoms: C_30  and  O_31
REMARK   12  A    between atoms: C_35  and  C_36
REMARK   13  A    between atoms: C_36  and  O_37
REMARK                            x       y       z     vdW  Elec       q    Type
REMARK                         _______ _______ _______ _____ _____    ______ ____
ROOT
ATOM      1  C   LIG A   1      -7.971   2.157 128.284  0.00  0.00    +0.146 C 
ATOM      2  C   LIG A   1      -7.998   3.617 128.807  0.00  0.00    +0.075 C 
ATOM      3  C   LIG A   1      -8.820   3.540 130.125  0.00  0.00    +0.096 C 
ATOM      4  C   LIG A   1      -8.329   4.577 131.163  0.00  0.00    +0.317 C 
ATOM      5  O   LIG A   1      -6.919   4.470 131.414  0.00  0.00    -0.470 OA
ATOM      6  C   LIG A   1      -6.162   4.469 130.275  0.00  0.00    +0.201 C 
ATOM      7  C   LIG A   1      -6.600   4.139 129.049  0.00  0.00    +0.077 C 
ATOM      8  C   LIG A   1      -8.257   1.334 129.496  0.00  0.00    +0.006 C 
ATOM      9  C   LIG A   1      -8.712   2.075 130.516  0.00  0.00    -0.036 C 
ENDROOT
BRANCH   1  10
ATOM     10  O   LIG A   1      -8.990   1.913 127.327  0.00  0.00    -0.387 OA
ATOM     11  H   LIG A   1      -8.633   2.107 126.445  0.00  0.00    +0.210 HD
ENDBRANCH   1  10
BRANCH   7  12
ATOM     12  C   LIG A   1      -5.692   4.253 127.885  0.00  0.00    +0.338 C 
ATOM     13  O   LIG A   1      -4.531   3.856 127.895  0.00  0.00    -0.245 OA
BRANCH  12  14
ATOM     14  O   LIG A   1      -6.297   4.940 126.890  0.00  0.00    -0.465 OA
ATOM     15  C   LIG A   1      -5.936   4.584 125.555  0.00  0.00    +0.280 C 
ENDBRANCH  12  14
ENDBRANCH   7  12
BRANCH   4  16
ATOM     16  O   LIG A   1      -8.681   5.897 130.705  0.00  0.00    -0.309 OA
BRANCH  16  17
ATOM     17  C   LIG A   1     -10.010   5.955 130.160  0.00  0.00    +0.286 C 
ATOM     18  O   LIG A   1      -9.949   6.721 128.954  0.00  0.00    -0.340 OA
ATOM     19  C   LIG A   1     -11.215   6.943 128.342  0.00  0.00    +0.178 C 
ATOM     20  C   LIG A   1     -12.076   7.822 129.257  0.00  0.00    +0.177 C 
ATOM     21  C   LIG A   1     -12.270   7.090 130.582  0.00  0.00    +0.179 C 
ATOM     22  C   LIG A   1     -10.951   6.622 131.204  0.00  0.00    +0.201 C 
BRANCH  22  23
ATOM     23  O   LIG A   1     -11.284   5.718 132.276  0.00  0.00    -0.384 OA
ATOM     24  H   LIG A   1     -10.434   5.538 132.727  0.00  0.00    +0.210 HD
ENDBRANCH  22  23
BRANCH  21  25
ATOM     25  O   LIG A   1     -12.958   7.946 131.512  0.00  0.00    -0.386 OA
ATOM     26  H   LIG A   1     -12.500   7.811 132.367  0.00  0.00    +0.210 HD
ENDBRANCH  21  25
BRANCH  20  27
ATOM     27  O   LIG A   1     -13.377   8.087 128.721  0.00  0.00    -0.387 OA
ATOM     28  H   LIG A   1     -13.797   7.213 128.556  0.00  0.00    +0.210 HD
ENDBRANCH  20  27
BRANCH  19  29
ATOM     29  C   LIG A   1     -10.969   7.614 126.985  0.00  0.00    +0.190 C 
BRANCH  29  30
ATOM     30  O   LIG A   1     -11.676   6.946 125.943  0.00  0.00    -0.392 OA
ATOM     31  H   LIG A   1     -12.278   7.599 125.541  0.00  0.00    +0.209 HD
ENDBRANCH  29  30
ENDBRANCH  19  29
ENDBRANCH  16  17
ENDBRANCH   4  16
BRANCH   9  32
ATOM     32  C   LIG A   1      -9.158   1.556 131.840  0.00  0.00    +0.187 C 
BRANCH  32  33
ATOM     33  O   LIG A   1     -10.474   2.003 132.106  0.00  0.00    -0.391 OA
ATOM     34  H   LIG A   1     -11.074   1.261 131.914  0.00  0.00    +0.210 HD
ENDBRANCH  32  33
ENDBRANCH   9  32
TORSDOF 12
ENDMDL
MODEL 7
REMARK VINA RESULT:      -6.6      6.202      9.293
REMARK  Name = NuBBE_193
REMARK  13 active torsions:
REMARK  status: ('A' for Active; 'I' for Inactive)
REMARK    1  A    between atoms: O_1  and  C_2
REMARK    2  A    between atoms: C_6  and  O_15
REMARK    3  A    between atoms: C_10  and  C_11
REMARK    4  A    between atoms: C_11  and  O_12
REMARK    5  A    between atoms: O_12  and  C_13
REMARK    6  A    between atoms: O_15  and  C_16
REMARK    7  A    between atoms: C_19  and  C_30
REMARK    8  A    between atoms: C_21  and  O_29
REMARK    9  A    between atoms: C_23  and  O_28
REMARK   10  A    between atoms: C_25  and  O_27
REMARK   11  A    between atoms: C_30  and  O_31
REMARK   12  A    between atoms: C_35  and  C_36
REMARK   13  A    between atoms: C_36  and  O_37
REMARK                            x       y       z     vdW  Elec       q    Type
REMARK                         _______ _______ _______ _____ _____    ______ ____
ROOT
ATOM      1  C   LIG A   1      -9.628   0.371 122.810  0.00  0.00    +0.146 C 
ATOM      2  C   LIG A   1      -9.266   1.340 123.965  0.00  0.00    +0.075 C 
ATOM      3  C   LIG A   1      -9.286   0.446 125.238  0.00  0.00    +0.096 C 
ATOM      4  C   LIG A   1      -8.248   0.920 126.283  0.00  0.00    +0.317 C 
ATOM      5  O   LIG A   1      -6.927   1.020 125.731  0.00  0.00    -0.470 OA
ATOM      6  C   LIG A   1      -6.874   1.745 124.573  0.00  0.00    +0.201 C 
ATOM      7  C   LIG A   1      -7.910   1.970 123.747  0.00  0.00    +0.077 C 
ATOM      8  C   LIG A   1      -9.306  -0.980 123.356  0.00  0.00    +0.006 C 
ATOM      9  C   LIG A   1      -9.106  -0.957 124.681  0.00  0.00    -0.036 C 
ENDROOT
BRANCH   1  10
ATOM     10  O   LIG A   1     -11.012   0.408 122.495  0.00  0.00    -0.387 OA
ATOM     11  H   LIG A   1     -11.323  -0.506 122.386  0.00  0.00    +0.210 HD
ENDBRANCH   1  10
BRANCH   7  12
ATOM     12  C   LIG A   1      -7.732   2.838 122.561  0.00  0.00    +0.338 C 
ATOM     13  O   LIG A   1      -8.643   3.492 122.062  0.00  0.00    -0.245 OA
BRANCH  12  14
ATOM     14  O   LIG A   1      -6.477   2.708 122.074  0.00  0.00    -0.465 OA
ATOM     15  C   LIG A   1      -5.999   3.767 121.245  0.00  0.00    +0.280 C 
ENDBRANCH  12  14
ENDBRANCH   7  12
BRANCH   4  16
ATOM     16  O   LIG A   1      -8.683   2.179 126.833  0.00  0.00    -0.309 OA
BRANCH  16  17
ATOM     17  C   LIG A   1      -8.181   2.402 128.162  0.00  0.00    +0.286 C 
ATOM     18  O   LIG A   1      -9.306   2.640 129.013  0.00  0.00    -0.340 OA
ATOM     19  C   LIG A   1      -8.960   2.968 130.355  0.00  0.00    +0.178 C 
ATOM     20  C   LIG A   1      -8.229   4.316 130.376  0.00  0.00    +0.177 C 
ATOM     21  C   LIG A   1      -6.960   4.188 129.538  0.00  0.00    +0.179 C 
ATOM     22  C   LIG A   1      -7.225   3.629 128.137  0.00  0.00    +0.201 C 
BRANCH  22  23
ATOM     23  O   LIG A   1      -5.944   3.296 127.565  0.00  0.00    -0.384 OA
ATOM     24  H   LIG A   1      -5.789   3.980 126.882  0.00  0.00    +0.210 HD
ENDBRANCH  22  23
BRANCH  21  25
ATOM     25  O   LIG A   1      -6.322   5.473 129.426  0.00  0.00    -0.386 OA
ATOM     26  H   LIG A   1      -6.187   5.769 130.350  0.00  0.00    +0.210 HD
ENDBRANCH  21  25
BRANCH  20  27
ATOM     27  O   LIG A   1      -7.832   4.719 131.692  0.00  0.00    -0.387 OA
ATOM     28  H   LIG A   1      -6.850   4.741 131.696  0.00  0.00    +0.210 HD
ENDBRANCH  20  27
BRANCH  19  29
ATOM     29  C   LIG A   1     -10.254   3.016 131.174  0.00  0.00    +0.190 C 
BRANCH  29  30
ATOM     30  O   LIG A   1     -10.732   4.352 131.309  0.00  0.00    -0.392 OA
ATOM     31  H   LIG A   1      -9.950   4.925 131.428  0.00  0.00    +0.209 HD
ENDBRANCH  29  30
ENDBRANCH  19  29
ENDBRANCH  16  17
ENDBRANCH   4  16
BRANCH   9  32
ATOM     32  C   LIG A   1      -8.838  -2.142 125.544  0.00  0.00    +0.187 C 
BRANCH  32  33
ATOM     33  O   LIG A   1     -10.010  -2.928 125.647  0.00  0.00    -0.391 OA
ATOM     34  H   LIG A   1     -10.686  -2.512 125.082  0.00  0.00    +0.210 HD
ENDBRANCH  32  33
ENDBRANCH   9  32
TORSDOF 12
ENDMDL
MODEL 8
REMARK VINA RESULT:      -6.6      3.250      6.434
REMARK  Name = NuBBE_193
REMARK  13 active torsions:
REMARK  status: ('A' for Active; 'I' for Inactive)
REMARK    1  A    between atoms: O_1  and  C_2
REMARK    2  A    between atoms: C_6  and  O_15
REMARK    3  A    between atoms: C_10  and  C_11
REMARK    4  A    between atoms: C_11  and  O_12
REMARK    5  A    between atoms: O_12  and  C_13
REMARK    6  A    between atoms: O_15  and  C_16
REMARK    7  A    between atoms: C_19  and  C_30
REMARK    8  A    between atoms: C_21  and  O_29
REMARK    9  A    between atoms: C_23  and  O_28
REMARK   10  A    between atoms: C_25  and  O_27
REMARK   11  A    between atoms: C_30  and  O_31
REMARK   12  A    between atoms: C_35  and  C_36
REMARK   13  A    between atoms: C_36  and  O_37
REMARK                            x       y       z     vdW  Elec       q    Type
REMARK                         _______ _______ _______ _____ _____    ______ ____
ROOT
ATOM      1  C   LIG A   1      -8.249   6.815 130.987  0.00  0.00    +0.146 C 
ATOM      2  C   LIG A   1      -8.821   5.743 130.023  0.00  0.00    +0.075 C 
ATOM      3  C   LIG A   1      -8.640   4.400 130.788  0.00  0.00    +0.096 C 
ATOM      4  C   LIG A   1      -9.770   3.398 130.454  0.00  0.00    +0.317 C 
ATOM      5  O   LIG A   1     -11.075   3.956 130.673  0.00  0.00    -0.470 OA
ATOM      6  C   LIG A   1     -11.256   5.170 130.070  0.00  0.00    +0.201 C 
ATOM      7  C   LIG A   1     -10.274   6.012 129.705  0.00  0.00    +0.077 C 
ATOM      8  C   LIG A   1      -8.296   6.159 132.327  0.00  0.00    +0.006 C 
ATOM      9  C   LIG A   1      -8.519   4.840 132.238  0.00  0.00    -0.036 C 
ENDROOT
BRANCH   1  10
ATOM     10  O   LIG A   1      -6.898   7.132 130.692  0.00  0.00    -0.387 OA
ATOM     11  H   LIG A   1      -6.429   6.306 130.490  0.00  0.00    +0.210 HD
ENDBRANCH   1  10
BRANCH   7  12
ATOM     12  C   LIG A   1     -10.606   7.266 128.990  0.00  0.00    +0.338 C 
ATOM     13  O   LIG A   1     -11.304   8.152 129.473  0.00  0.00    -0.245 OA
BRANCH  12  14
ATOM     14  O   LIG A   1     -10.123   7.223 127.727  0.00  0.00    -0.465 OA
ATOM     15  C   LIG A   1     -10.969   7.741 126.701  0.00  0.00    +0.280 C 
ENDBRANCH  12  14
ENDBRANCH   7  12
BRANCH   4  16
ATOM     16  O   LIG A   1      -9.612   2.955 129.092  0.00  0.00    -0.309 OA
BRANCH  16  17
ATOM     17  C   LIG A   1      -8.258   3.079 128.626  0.00  0.00    +0.286 C 
ATOM     18  O   LIG A   1      -8.294   3.759 127.368  0.00  0.00    -0.340 OA
ATOM     19  C   LIG A   1      -7.025   3.877 126.734  0.00  0.00    +0.178 C 
ATOM     20  C   LIG A   1      -6.516   2.483 126.350  0.00  0.00    +0.177 C 
ATOM     21  C   LIG A   1      -6.375   1.654 127.624  0.00  0.00    +0.179 C 
ATOM     22  C   LIG A   1      -7.647   1.655 128.479  0.00  0.00    +0.201 C 
BRANCH  22  23
ATOM     23  O   LIG A   1      -7.297   1.090 129.758  0.00  0.00    -0.384 OA
ATOM     24  H   LIG A   1      -6.560   0.474 129.567  0.00  0.00    +0.210 HD
ENDBRANCH  22  23
BRANCH  21  25
ATOM     25  O   LIG A   1      -6.031   0.298 127.283  0.00  0.00    -0.386 OA
ATOM     26  H   LIG A   1      -6.747  -0.002 126.686  0.00  0.00    +0.210 HD
ENDBRANCH  21  25
BRANCH  20  27
ATOM     27  O   LIG A   1      -5.233   2.508 125.714  0.00  0.00    -0.387 OA
ATOM     28  H   LIG A   1      -4.628   2.991 126.320  0.00  0.00    +0.210 HD
ENDBRANCH  20  27
BRANCH  19  29
ATOM     29  C   LIG A   1      -7.197   4.774 125.503  0.00  0.00    +0.190 C 
BRANCH  29  30
ATOM     30  O   LIG A   1      -8.351   5.601 125.625  0.00  0.00    -0.392 OA
ATOM     31  H   LIG A   1      -8.666   5.788 124.720  0.00  0.00    +0.209 HD
ENDBRANCH  29  30
ENDBRANCH  19  29
ENDBRANCH  16  17
ENDBRANCH   4  16
BRANCH   9  32
ATOM     32  C   LIG A   1      -8.553   3.882 133.379  0.00  0.00    +0.187 C 
BRANCH  32  33
ATOM     33  O   LIG A   1      -9.817   3.946 134.014  0.00  0.00    -0.391 OA
ATOM     34  H   LIG A   1     -10.243   4.771 133.721  0.00  0.00    +0.210 HD
ENDBRANCH  32  33
ENDBRANCH   9  32
TORSDOF 12
ENDMDL
MODEL 9
REMARK VINA RESULT:      -6.6      2.384      2.956
REMARK  Name = NuBBE_193
REMARK  13 active torsions:
REMARK  status: ('A' for Active; 'I' for Inactive)
REMARK    1  A    between atoms: O_1  and  C_2
REMARK    2  A    between atoms: C_6  and  O_15
REMARK    3  A    between atoms: C_10  and  C_11
REMARK    4  A    between atoms: C_11  and  O_12
REMARK    5  A    between atoms: O_12  and  C_13
REMARK    6  A    between atoms: O_15  and  C_16
REMARK    7  A    between atoms: C_19  and  C_30
REMARK    8  A    between atoms: C_21  and  O_29
REMARK    9  A    between atoms: C_23  and  O_28
REMARK   10  A    between atoms: C_25  and  O_27
REMARK   11  A    between atoms: C_30  and  O_31
REMARK   12  A    between atoms: C_35  and  C_36
REMARK   13  A    between atoms: C_36  and  O_37
REMARK                            x       y       z     vdW  Elec       q    Type
REMARK                         _______ _______ _______ _____ _____    ______ ____
ROOT
ATOM      1  C   LIG A   1      -5.835   3.564 130.816  0.00  0.00    +0.146 C 
ATOM      2  C   LIG A   1      -7.270   4.051 131.148  0.00  0.00    +0.075 C 
ATOM      3  C   LIG A   1      -7.854   4.491 129.775  0.00  0.00    +0.096 C 
ATOM      4  C   LIG A   1      -9.379   4.243 129.700  0.00  0.00    +0.317 C 
ATOM      5  O   LIG A   1      -9.725   2.883 130.008  0.00  0.00    -0.470 OA
ATOM      6  C   LIG A   1      -9.177   2.433 131.177  0.00  0.00    +0.201 C 
ATOM      7  C   LIG A   1      -8.090   2.948 131.776  0.00  0.00    +0.077 C 
ATOM      8  C   LIG A   1      -5.885   3.255 129.357  0.00  0.00    +0.006 C 
ATOM      9  C   LIG A   1      -6.988   3.746 128.773  0.00  0.00    -0.036 C 
ENDROOT
BRANCH   1  10
ATOM     10  O   LIG A   1      -4.865   4.580 131.024  0.00  0.00    -0.387 OA
ATOM     11  H   LIG A   1      -4.070   4.168 131.403  0.00  0.00    +0.210 HD
ENDBRANCH   1  10
BRANCH   7  12
ATOM     12  C   LIG A   1      -7.645   2.412 133.083  0.00  0.00    +0.338 C 
ATOM     13  O   LIG A   1      -7.527   1.213 133.315  0.00  0.00    -0.245 OA
BRANCH  12  14
ATOM     14  O   LIG A   1      -7.504   3.420 133.974  0.00  0.00    -0.465 OA
ATOM     15  C   LIG A   1      -8.697   4.094 134.372  0.00  0.00    +0.280 C 
ENDBRANCH  12  14
ENDBRANCH   7  12
BRANCH   4  16
ATOM     16  O   LIG A   1     -10.046   5.165 130.584  0.00  0.00    -0.309 OA
BRANCH  16  17
ATOM     17  C   LIG A   1     -11.184   5.792 129.969  0.00  0.00    +0.286 C 
ATOM     18  O   LIG A   1     -10.750   6.352 128.727  0.00  0.00    -0.340 OA
ATOM     19  C   LIG A   1     -11.754   7.090 128.039  0.00  0.00    +0.178 C 
ATOM     20  C   LIG A   1     -12.123   8.332 128.858  0.00  0.00    +0.177 C 
ATOM     21  C   LIG A   1     -12.662   7.874 130.211  0.00  0.00    +0.179 C 
ATOM     22  C   LIG A   1     -11.725   6.895 130.925  0.00  0.00    +0.201 C 
BRANCH  22  23
ATOM     23  O   LIG A   1     -12.462   6.331 132.027  0.00  0.00    -0.384 OA
ATOM     24  H   LIG A   1     -11.817   5.764 132.497  0.00  0.00    +0.210 HD
ENDBRANCH  22  23
BRANCH  21  25
ATOM     25  O   LIG A   1     -12.889   9.018 131.054  0.00  0.00    -0.386 OA
ATOM     26  H   LIG A   1     -12.352   9.735 130.657  0.00  0.00    +0.210 HD
ENDBRANCH  21  25
BRANCH  20  27
ATOM     27  O   LIG A   1     -13.141   9.130 128.242  0.00  0.00    -0.387 OA
ATOM     28  H   LIG A   1     -13.923   9.097 128.836  0.00  0.00    +0.210 HD
ENDBRANCH  20  27
BRANCH  19  29
ATOM     29  C   LIG A   1     -11.198   7.468 126.661  0.00  0.00    +0.190 C 
BRANCH  29  30
ATOM     30  O   LIG A   1     -10.345   6.446 126.151  0.00  0.00    -0.392 OA
ATOM     31  H   LIG A   1     -10.906   5.835 125.637  0.00  0.00    +0.209 HD
ENDBRANCH  29  30
ENDBRANCH  19  29
ENDBRANCH  16  17
ENDBRANCH   4  16
BRANCH   9  32
ATOM     32  C   LIG A   1      -7.310   3.675 127.320  0.00  0.00    +0.187 C 
BRANCH  32  33
ATOM     33  O   LIG A   1      -7.760   4.940 126.872  0.00  0.00    -0.391 OA
ATOM     34  H   LIG A   1      -6.998   5.546 126.911  0.00  0.00    +0.210 HD
ENDBRANCH  32  33
ENDBRANCH   9  32
TORSDOF 12
ENDMDL
