MODEL 1
REMARK VINA RESULT:      -7.1      0.000      0.000
REMARK  Name = NuBBE_1217
REMARK  11 active torsions:
REMARK  status: ('A' for Active; 'I' for Inactive)
REMARK    1  A    between atoms: C_4  and  C_18
REMARK    2  A    between atoms: C_8  and  O_9
REMARK    3  A    between atoms: O_9  and  C_10
REMARK    4  A    between atoms: C_11  and  O_12
REMARK    5  A    between atoms: O_12  and  C_13
REMARK    6  A    between atoms: C_14  and  O_15
REMARK    7  A    between atoms: O_15  and  C_16
REMARK    8  A    between atoms: C_21  and  O_26
REMARK    9  A    between atoms: C_22  and  O_23
REMARK   10  A    between atoms: O_23  and  C_24
REMARK   11  A    between atoms: O_26  and  C_27
REMARK                            x       y       z     vdW  Elec       q    Type
REMARK                         _______ _______ _______ _____ _____    ______ ____
ROOT
ATOM      1  O   LIG A   1      -8.596   3.771 134.070  0.00  0.00    -0.287 OA
ATOM      2  C   LIG A   1      -8.979   3.845 132.902  0.00  0.00    +0.197 A 
ATOM      3  C   LIG A   1      -9.786   5.008 132.497  0.00  0.00    +0.098 A 
ATOM      4  C   LIG A   1     -10.080   5.177 131.203  0.00  0.00    +0.139 A 
ATOM      5  O   LIG A   1      -9.694   4.313 130.204  0.00  0.00    -0.454 OA
ATOM      6  C   LIG A   1      -9.010   3.180 130.545  0.00  0.00    +0.146 A 
ATOM      7  C   LIG A   1      -8.640   2.865 131.850  0.00  0.00    +0.109 A 
ATOM      8  C   LIG A   1      -7.984   1.651 132.087  0.00  0.00    +0.179 A 
ATOM      9  C   LIG A   1      -7.674   0.778 131.013  0.00  0.00    +0.204 A 
ATOM     10  C   LIG A   1      -8.054   1.122 129.698  0.00  0.00    +0.169 A 
ATOM     11  C   LIG A   1      -8.726   2.324 129.483  0.00  0.00    +0.096 A 
ENDROOT
BRANCH   4  12
ATOM     12  C   LIG A   1     -10.847   6.327 130.710  0.00  0.00    +0.021 A 
ATOM     13  C   LIG A   1     -11.962   6.758 131.428  0.00  0.00    +0.015 A 
ATOM     14  C   LIG A   1     -12.742   7.805 130.954  0.00  0.00    +0.050 A 
ATOM     15  C   LIG A   1     -12.431   8.451 129.751  0.00  0.00    +0.162 A 
ATOM     16  C   LIG A   1     -11.313   8.015 129.008  0.00  0.00    +0.162 A 
ATOM     17  C   LIG A   1     -10.531   6.961 129.502  0.00  0.00    +0.061 A 
BRANCH  16  18
ATOM     18  O   LIG A   1     -11.013   8.664 127.834  0.00  0.00    -0.491 OA
ATOM     19  C   LIG A   1     -10.980   7.851 126.658  0.00  0.00    +0.277 C 
ENDBRANCH  16  18
BRANCH  15  20
ATOM     20  O   LIG A   1     -13.190   9.485 129.254  0.00  0.00    -0.491 OA
ATOM     21  C   LIG A   1     -13.367  10.597 130.135  0.00  0.00    +0.277 C 
ENDBRANCH  15  20
ENDBRANCH   4  12
BRANCH   8  22
ATOM     22  O   LIG A   1      -7.780   1.217 133.374  0.00  0.00    -0.490 OA
ATOM     23  C   LIG A   1      -6.457   1.481 133.836  0.00  0.00    +0.277 C 
ENDBRANCH   8  22
BRANCH   9  24
ATOM     24  O   LIG A   1      -7.072  -0.403 131.382  0.00  0.00    -0.488 OA
ATOM     25  C   LIG A   1      -5.701  -0.569 131.039  0.00  0.00    +0.277 C 
ENDBRANCH   9  24
BRANCH  10  26
ATOM     26  O   LIG A   1      -7.826   0.226 128.689  0.00  0.00    -0.491 OA
ATOM     27  C   LIG A   1      -8.110   0.637 127.356  0.00  0.00    +0.277 C 
ENDBRANCH  10  26
TORSDOF 6
ENDMDL
MODEL 2
REMARK VINA RESULT:      -7.1      3.433      4.145
REMARK  Name = NuBBE_1217
REMARK  11 active torsions:
REMARK  status: ('A' for Active; 'I' for Inactive)
REMARK    1  A    between atoms: C_4  and  C_18
REMARK    2  A    between atoms: C_8  and  O_9
REMARK    3  A    between atoms: O_9  and  C_10
REMARK    4  A    between atoms: C_11  and  O_12
REMARK    5  A    between atoms: O_12  and  C_13
REMARK    6  A    between atoms: C_14  and  O_15
REMARK    7  A    between atoms: O_15  and  C_16
REMARK    8  A    between atoms: C_21  and  O_26
REMARK    9  A    between atoms: C_22  and  O_23
REMARK   10  A    between atoms: O_23  and  C_24
REMARK   11  A    between atoms: O_26  and  C_27
REMARK                            x       y       z     vdW  Elec       q    Type
REMARK                         _______ _______ _______ _____ _____    ______ ____
ROOT
ATOM      1  O   LIG A   1      -8.280   4.656 134.251  0.00  0.00    -0.287 OA
ATOM      2  C   LIG A   1      -8.107   5.296 133.212  0.00  0.00    +0.197 A 
ATOM      3  C   LIG A   1      -9.288   5.752 132.460  0.00  0.00    +0.098 A 
ATOM      4  C   LIG A   1      -9.117   6.573 131.418  0.00  0.00    +0.139 A 
ATOM      5  O   LIG A   1      -7.891   7.014 130.974  0.00  0.00    -0.454 OA
ATOM      6  C   LIG A   1      -6.764   6.552 131.595  0.00  0.00    +0.146 A 
ATOM      7  C   LIG A   1      -6.783   5.688 132.687  0.00  0.00    +0.109 A 
ATOM      8  C   LIG A   1      -5.564   5.242 133.211  0.00  0.00    +0.179 A 
ATOM      9  C   LIG A   1      -4.336   5.689 132.659  0.00  0.00    +0.204 A 
ATOM     10  C   LIG A   1      -4.343   6.569 131.557  0.00  0.00    +0.169 A 
ATOM     11  C   LIG A   1      -5.566   6.986 131.033  0.00  0.00    +0.096 A 
ENDROOT
BRANCH   4  12
ATOM     12  C   LIG A   1     -10.240   7.104 130.638  0.00  0.00    +0.021 A 
ATOM     13  C   LIG A   1     -11.529   7.033 131.167  0.00  0.00    +0.015 A 
ATOM     14  C   LIG A   1     -12.618   7.473 130.427  0.00  0.00    +0.050 A 
ATOM     15  C   LIG A   1     -12.453   7.996 129.139  0.00  0.00    +0.162 A 
ATOM     16  C   LIG A   1     -11.156   8.061 128.586  0.00  0.00    +0.162 A 
ATOM     17  C   LIG A   1     -10.064   7.619 129.348  0.00  0.00    +0.061 A 
BRANCH  16  18
ATOM     18  O   LIG A   1     -11.007   8.586 127.324  0.00  0.00    -0.491 OA
ATOM     19  C   LIG A   1     -10.941   7.639 126.255  0.00  0.00    +0.277 C 
ENDBRANCH  16  18
BRANCH  15  20
ATOM     20  O   LIG A   1     -13.516   8.432 128.380  0.00  0.00    -0.491 OA
ATOM     21  C   LIG A   1     -13.827   9.822 128.500  0.00  0.00    +0.277 C 
ENDBRANCH  15  20
ENDBRANCH   4  12
BRANCH   8  22
ATOM     22  O   LIG A   1      -5.542   4.243 134.153  0.00  0.00    -0.490 OA
ATOM     23  C   LIG A   1      -5.427   2.946 133.572  0.00  0.00    +0.277 C 
ENDBRANCH   8  22
BRANCH   9  24
ATOM     24  O   LIG A   1      -3.211   5.142 133.232  0.00  0.00    -0.488 OA
ATOM     25  C   LIG A   1      -2.515   5.935 134.186  0.00  0.00    +0.277 C 
ENDBRANCH   9  24
BRANCH  10  26
ATOM     26  O   LIG A   1      -3.150   6.918 130.982  0.00  0.00    -0.491 OA
ATOM     27  C   LIG A   1      -2.700   6.158 129.866  0.00  0.00    +0.277 C 
ENDBRANCH  10  26
TORSDOF 6
ENDMDL
MODEL 3
REMARK VINA RESULT:      -7.0      1.970      3.710
REMARK  Name = NuBBE_1217
REMARK  11 active torsions:
REMARK  status: ('A' for Active; 'I' for Inactive)
REMARK    1  A    between atoms: C_4  and  C_18
REMARK    2  A    between atoms: C_8  and  O_9
REMARK    3  A    between atoms: O_9  and  C_10
REMARK    4  A    between atoms: C_11  and  O_12
REMARK    5  A    between atoms: O_12  and  C_13
REMARK    6  A    between atoms: C_14  and  O_15
REMARK    7  A    between atoms: O_15  and  C_16
REMARK    8  A    between atoms: C_21  and  O_26
REMARK    9  A    between atoms: C_22  and  O_23
REMARK   10  A    between atoms: O_23  and  C_24
REMARK   11  A    between atoms: O_26  and  C_27
REMARK                            x       y       z     vdW  Elec       q    Type
REMARK                         _______ _______ _______ _____ _____    ______ ____
ROOT
ATOM      1  O   LIG A   1      -9.711   1.925 131.982  0.00  0.00    -0.287 OA
ATOM      2  C   LIG A   1      -9.441   3.117 132.137  0.00  0.00    +0.197 A 
ATOM      3  C   LIG A   1     -10.220   4.119 131.392  0.00  0.00    +0.098 A 
ATOM      4  C   LIG A   1     -10.039   5.416 131.664  0.00  0.00    +0.139 A 
ATOM      5  O   LIG A   1      -9.143   5.894 132.592  0.00  0.00    -0.454 OA
ATOM      6  C   LIG A   1      -8.343   5.001 133.250  0.00  0.00    +0.146 A 
ATOM      7  C   LIG A   1      -8.411   3.623 133.068  0.00  0.00    +0.109 A 
ATOM      8  C   LIG A   1      -7.507   2.809 133.760  0.00  0.00    +0.179 A 
ATOM      9  C   LIG A   1      -6.565   3.378 134.655  0.00  0.00    +0.204 A 
ATOM     10  C   LIG A   1      -6.520   4.777 134.829  0.00  0.00    +0.169 A 
ATOM     11  C   LIG A   1      -7.412   5.575 134.114  0.00  0.00    +0.096 A 
ENDROOT
BRANCH   4  12
ATOM     12  C   LIG A   1     -10.801   6.478 130.995  0.00  0.00    +0.021 A 
ATOM     13  C   LIG A   1     -12.039   6.856 131.515  0.00  0.00    +0.015 A 
ATOM     14  C   LIG A   1     -12.808   7.816 130.870  0.00  0.00    +0.050 A 
ATOM     15  C   LIG A   1     -12.365   8.424 129.689  0.00  0.00    +0.162 A 
ATOM     16  C   LIG A   1     -11.121   8.039 129.145  0.00  0.00    +0.162 A 
ATOM     17  C   LIG A   1     -10.351   7.074 129.811  0.00  0.00    +0.061 A 
BRANCH  16  18
ATOM     18  O   LIG A   1     -10.693   8.651 127.991  0.00  0.00    -0.491 OA
ATOM     19  C   LIG A   1     -10.813   7.882 126.792  0.00  0.00    +0.277 C 
ENDBRANCH  16  18
BRANCH  15  20
ATOM     20  O   LIG A   1     -13.110   9.371 129.025  0.00  0.00    -0.491 OA
ATOM     21  C   LIG A   1     -13.368  10.573 129.755  0.00  0.00    +0.277 C 
ENDBRANCH  15  20
ENDBRANCH   4  12
BRANCH   8  22
ATOM     22  O   LIG A   1      -7.412   1.472 133.460  0.00  0.00    -0.490 OA
ATOM     23  C   LIG A   1      -6.583   1.225 132.326  0.00  0.00    +0.277 C 
ENDBRANCH   8  22
BRANCH   9  24
ATOM     24  O   LIG A   1      -5.703   2.477 135.238  0.00  0.00    -0.488 OA
ATOM     25  C   LIG A   1      -4.344   2.514 134.821  0.00  0.00    +0.277 C 
ENDBRANCH   9  24
BRANCH  10  26
ATOM     26  O   LIG A   1      -5.546   5.313 135.628  0.00  0.00    -0.491 OA
ATOM     27  C   LIG A   1      -4.643   6.245 135.043  0.00  0.00    +0.277 C 
ENDBRANCH  10  26
TORSDOF 6
ENDMDL
MODEL 4
REMARK VINA RESULT:      -6.7      2.869      5.451
REMARK  Name = NuBBE_1217
REMARK  11 active torsions:
REMARK  status: ('A' for Active; 'I' for Inactive)
REMARK    1  A    between atoms: C_4  and  C_18
REMARK    2  A    between atoms: C_8  and  O_9
REMARK    3  A    between atoms: O_9  and  C_10
REMARK    4  A    between atoms: C_11  and  O_12
REMARK    5  A    between atoms: O_12  and  C_13
REMARK    6  A    between atoms: C_14  and  O_15
REMARK    7  A    between atoms: O_15  and  C_16
REMARK    8  A    between atoms: C_21  and  O_26
REMARK    9  A    between atoms: C_22  and  O_23
REMARK   10  A    between atoms: O_23  and  C_24
REMARK   11  A    between atoms: O_26  and  C_27
REMARK                            x       y       z     vdW  Elec       q    Type
REMARK                         _______ _______ _______ _____ _____    ______ ____
ROOT
ATOM      1  O   LIG A   1      -6.676  -0.869 129.091  0.00  0.00    -0.287 OA
ATOM      2  C   LIG A   1      -7.477  -0.057 128.627  0.00  0.00    +0.197 A 
ATOM      3  C   LIG A   1      -7.880   1.090 129.457  0.00  0.00    +0.098 A 
ATOM      4  C   LIG A   1      -8.628   2.056 128.912  0.00  0.00    +0.139 A 
ATOM      5  O   LIG A   1      -9.078   2.045 127.612  0.00  0.00    -0.454 OA
ATOM      6  C   LIG A   1      -8.792   0.961 126.829  0.00  0.00    +0.146 A 
ATOM      7  C   LIG A   1      -8.032  -0.123 127.259  0.00  0.00    +0.109 A 
ATOM      8  C   LIG A   1      -7.845  -1.201 126.385  0.00  0.00    +0.179 A 
ATOM      9  C   LIG A   1      -8.394  -1.171 125.077  0.00  0.00    +0.204 A 
ATOM     10  C   LIG A   1      -9.156  -0.059 124.662  0.00  0.00    +0.169 A 
ATOM     11  C   LIG A   1      -9.351   0.996 125.553  0.00  0.00    +0.096 A 
ENDROOT
BRANCH   4  12
ATOM     12  C   LIG A   1      -9.042   3.250 129.657  0.00  0.00    +0.021 A 
ATOM     13  C   LIG A   1     -10.247   3.229 130.360  0.00  0.00    +0.015 A 
ATOM     14  C   LIG A   1     -10.693   4.364 131.025  0.00  0.00    +0.050 A 
ATOM     15  C   LIG A   1      -9.951   5.551 131.007  0.00  0.00    +0.162 A 
ATOM     16  C   LIG A   1      -8.737   5.590 130.288  0.00  0.00    +0.162 A 
ATOM     17  C   LIG A   1      -8.295   4.434 129.627  0.00  0.00    +0.061 A 
BRANCH  16  18
ATOM     18  O   LIG A   1      -8.013   6.758 130.288  0.00  0.00    -0.491 OA
ATOM     19  C   LIG A   1      -6.901   6.808 131.186  0.00  0.00    +0.277 C 
ENDBRANCH  16  18
BRANCH  15  20
ATOM     20  O   LIG A   1     -10.373   6.692 131.651  0.00  0.00    -0.491 OA
ATOM     21  C   LIG A   1     -11.789   6.845 131.765  0.00  0.00    +0.277 C 
ENDBRANCH  15  20
ENDBRANCH   4  12
BRANCH   8  22
ATOM     22  O   LIG A   1      -7.273  -2.364 126.836  0.00  0.00    -0.490 OA
ATOM     23  C   LIG A   1      -8.236  -3.287 127.341  0.00  0.00    +0.277 C 
ENDBRANCH   8  22
BRANCH   9  24
ATOM     24  O   LIG A   1      -8.180  -2.309 124.334  0.00  0.00    -0.488 OA
ATOM     25  C   LIG A   1      -7.120  -2.278 123.386  0.00  0.00    +0.277 C 
ENDBRANCH   9  24
BRANCH  10  26
ATOM     26  O   LIG A   1      -9.751  -0.088 123.430  0.00  0.00    -0.491 OA
ATOM     27  C   LIG A   1      -9.865   1.138 122.716  0.00  0.00    +0.277 C 
ENDBRANCH  10  26
TORSDOF 6
ENDMDL
MODEL 5
REMARK VINA RESULT:      -6.6      8.234      9.355
REMARK  Name = NuBBE_1217
REMARK  11 active torsions:
REMARK  status: ('A' for Active; 'I' for Inactive)
REMARK    1  A    between atoms: C_4  and  C_18
REMARK    2  A    between atoms: C_8  and  O_9
REMARK    3  A    between atoms: O_9  and  C_10
REMARK    4  A    between atoms: C_11  and  O_12
REMARK    5  A    between atoms: O_12  and  C_13
REMARK    6  A    between atoms: C_14  and  O_15
REMARK    7  A    between atoms: O_15  and  C_16
REMARK    8  A    between atoms: C_21  and  O_26
REMARK    9  A    between atoms: C_22  and  O_23
REMARK   10  A    between atoms: O_23  and  C_24
REMARK   11  A    between atoms: O_26  and  C_27
REMARK                            x       y       z     vdW  Elec       q    Type
REMARK                         _______ _______ _______ _____ _____    ______ ____
ROOT
ATOM      1  O   LIG A   1      -3.002  -3.273 130.310  0.00  0.00    -0.287 OA
ATOM      2  C   LIG A   1      -4.221  -3.150 130.442  0.00  0.00    +0.197 A 
ATOM      3  C   LIG A   1      -5.039  -2.922 129.239  0.00  0.00    +0.098 A 
ATOM      4  C   LIG A   1      -6.372  -2.938 129.348  0.00  0.00    +0.139 A 
ATOM      5  O   LIG A   1      -7.049  -3.135 130.530  0.00  0.00    -0.454 OA
ATOM      6  C   LIG A   1      -6.328  -3.273 131.683  0.00  0.00    +0.146 A 
ATOM      7  C   LIG A   1      -4.936  -3.270 131.729  0.00  0.00    +0.109 A 
ATOM      8  C   LIG A   1      -4.305  -3.370 132.974  0.00  0.00    +0.179 A 
ATOM      9  C   LIG A   1      -5.071  -3.506 134.160  0.00  0.00    +0.204 A 
ATOM     10  C   LIG A   1      -6.480  -3.513 134.089  0.00  0.00    +0.169 A 
ATOM     11  C   LIG A   1      -7.092  -3.390 132.842  0.00  0.00    +0.096 A 
ENDROOT
BRANCH   4  12
ATOM     12  C   LIG A   1      -7.262  -2.757 128.195  0.00  0.00    +0.021 A 
ATOM     13  C   LIG A   1      -8.358  -3.606 128.042  0.00  0.00    +0.015 A 
ATOM     14  C   LIG A   1      -9.183  -3.496 126.931  0.00  0.00    +0.050 A 
ATOM     15  C   LIG A   1      -8.937  -2.537 125.940  0.00  0.00    +0.162 A 
ATOM     16  C   LIG A   1      -7.823  -1.681 126.076  0.00  0.00    +0.162 A 
ATOM     17  C   LIG A   1      -7.003  -1.798 127.208  0.00  0.00    +0.061 A 
BRANCH  16  18
ATOM     18  O   LIG A   1      -7.599  -0.737 125.102  0.00  0.00    -0.491 OA
ATOM     19  C   LIG A   1      -6.485  -0.979 124.239  0.00  0.00    +0.277 C 
ENDBRANCH  16  18
BRANCH  15  20
ATOM     20  O   LIG A   1      -9.733  -2.411 124.824  0.00  0.00    -0.491 OA
ATOM     21  C   LIG A   1      -9.448  -3.321 123.760  0.00  0.00    +0.277 C 
ENDBRANCH  15  20
ENDBRANCH   4  12
BRANCH   8  22
ATOM     22  O   LIG A   1      -2.950  -3.173 133.079  0.00  0.00    -0.490 OA
ATOM     23  C   LIG A   1      -2.616  -1.818 133.371  0.00  0.00    +0.277 C 
ENDBRANCH   8  22
BRANCH   9  24
ATOM     24  O   LIG A   1      -4.335  -3.547 135.322  0.00  0.00    -0.488 OA
ATOM     25  C   LIG A   1      -4.002  -4.831 135.837  0.00  0.00    +0.277 C 
ENDBRANCH   9  24
BRANCH  10  26
ATOM     26  O   LIG A   1      -7.201  -3.555 135.251  0.00  0.00    -0.491 OA
ATOM     27  C   LIG A   1      -7.767  -4.802 135.640  0.00  0.00    +0.277 C 
ENDBRANCH  10  26
TORSDOF 6
ENDMDL
MODEL 6
REMARK VINA RESULT:      -6.6      7.082     10.516
REMARK  Name = NuBBE_1217
REMARK  11 active torsions:
REMARK  status: ('A' for Active; 'I' for Inactive)
REMARK    1  A    between atoms: C_4  and  C_18
REMARK    2  A    between atoms: C_8  and  O_9
REMARK    3  A    between atoms: O_9  and  C_10
REMARK    4  A    between atoms: C_11  and  O_12
REMARK    5  A    between atoms: O_12  and  C_13
REMARK    6  A    between atoms: C_14  and  O_15
REMARK    7  A    between atoms: O_15  and  C_16
REMARK    8  A    between atoms: C_21  and  O_26
REMARK    9  A    between atoms: C_22  and  O_23
REMARK   10  A    between atoms: O_23  and  C_24
REMARK   11  A    between atoms: O_26  and  C_27
REMARK                            x       y       z     vdW  Elec       q    Type
REMARK                         _______ _______ _______ _____ _____    ______ ____
ROOT
ATOM      1  O   LIG A   1      -9.473  -1.803 123.747  0.00  0.00    -0.287 OA
ATOM      2  C   LIG A   1      -8.755  -1.277 124.598  0.00  0.00    +0.197 A 
ATOM      3  C   LIG A   1      -8.297  -2.091 125.736  0.00  0.00    +0.098 A 
ATOM      4  C   LIG A   1      -7.398  -1.578 126.583  0.00  0.00    +0.139 A 
ATOM      5  O   LIG A   1      -6.876  -0.309 126.480  0.00  0.00    -0.454 OA
ATOM      6  C   LIG A   1      -7.332   0.509 125.483  0.00  0.00    +0.146 A 
ATOM      7  C   LIG A   1      -8.271   0.118 124.533  0.00  0.00    +0.109 A 
ATOM      8  C   LIG A   1      -8.701   1.057 123.588  0.00  0.00    +0.179 A 
ATOM      9  C   LIG A   1      -8.164   2.370 123.582  0.00  0.00    +0.204 A 
ATOM     10  C   LIG A   1      -7.209   2.741 124.552  0.00  0.00    +0.169 A 
ATOM     11  C   LIG A   1      -6.809   1.800 125.499  0.00  0.00    +0.096 A 
ENDROOT
BRANCH   4  12
ATOM     12  C   LIG A   1      -6.861  -2.334 127.720  0.00  0.00    +0.021 A 
ATOM     13  C   LIG A   1      -7.743  -3.004 128.568  0.00  0.00    +0.015 A 
ATOM     14  C   LIG A   1      -7.269  -3.678 129.685  0.00  0.00    +0.050 A 
ATOM     15  C   LIG A   1      -5.902  -3.702 129.989  0.00  0.00    +0.162 A 
ATOM     16  C   LIG A   1      -5.001  -3.016 129.147  0.00  0.00    +0.162 A 
ATOM     17  C   LIG A   1      -5.493  -2.346 128.018  0.00  0.00    +0.061 A 
BRANCH  16  18
ATOM     18  O   LIG A   1      -3.660  -3.056 129.451  0.00  0.00    -0.491 OA
ATOM     19  C   LIG A   1      -3.160  -1.963 130.224  0.00  0.00    +0.277 C 
ENDBRANCH  16  18
BRANCH  15  20
ATOM     20  O   LIG A   1      -5.406  -4.355 131.094  0.00  0.00    -0.491 OA
ATOM     21  C   LIG A   1      -5.970  -3.961 132.346  0.00  0.00    +0.277 C 
ENDBRANCH  15  20
ENDBRANCH   4  12
BRANCH   8  22
ATOM     22  O   LIG A   1      -9.761   0.771 122.764  0.00  0.00    -0.490 OA
ATOM     23  C   LIG A   1     -11.009   1.188 123.315  0.00  0.00    +0.277 C 
ENDBRANCH   8  22
BRANCH   9  24
ATOM     24  O   LIG A   1      -8.703   3.211 122.635  0.00  0.00    -0.488 OA
ATOM     25  C   LIG A   1      -7.957   3.407 121.439  0.00  0.00    +0.277 C 
ENDBRANCH   9  24
BRANCH  10  26
ATOM     26  O   LIG A   1      -6.770   4.037 124.585  0.00  0.00    -0.491 OA
ATOM     27  C   LIG A   1      -5.457   4.309 124.109  0.00  0.00    +0.277 C 
ENDBRANCH  10  26
TORSDOF 6
ENDMDL
MODEL 7
REMARK VINA RESULT:      -6.6      5.255     10.306
REMARK  Name = NuBBE_1217
REMARK  11 active torsions:
REMARK  status: ('A' for Active; 'I' for Inactive)
REMARK    1  A    between atoms: C_4  and  C_18
REMARK    2  A    between atoms: C_8  and  O_9
REMARK    3  A    between atoms: O_9  and  C_10
REMARK    4  A    between atoms: C_11  and  O_12
REMARK    5  A    between atoms: O_12  and  C_13
REMARK    6  A    between atoms: C_14  and  O_15
REMARK    7  A    between atoms: O_15  and  C_16
REMARK    8  A    between atoms: C_21  and  O_26
REMARK    9  A    between atoms: C_22  and  O_23
REMARK   10  A    between atoms: O_23  and  C_24
REMARK   11  A    between atoms: O_26  and  C_27
REMARK                            x       y       z     vdW  Elec       q    Type
REMARK                         _______ _______ _______ _____ _____    ______ ____
ROOT
ATOM      1  O   LIG A   1      -8.735  -3.079 125.826  0.00  0.00    -0.287 OA
ATOM      2  C   LIG A   1      -8.389  -2.444 126.823  0.00  0.00    +0.197 A 
ATOM      3  C   LIG A   1      -7.889  -3.185 127.993  0.00  0.00    +0.098 A 
ATOM      4  C   LIG A   1      -7.370  -2.505 129.020  0.00  0.00    +0.139 A 
ATOM      5  O   LIG A   1      -7.289  -1.132 129.076  0.00  0.00    -0.454 OA
ATOM      6  C   LIG A   1      -7.814  -0.402 128.046  0.00  0.00    +0.146 A 
ATOM      7  C   LIG A   1      -8.392  -0.969 126.914  0.00  0.00    +0.109 A 
ATOM      8  C   LIG A   1      -8.941  -0.122 125.944  0.00  0.00    +0.179 A 
ATOM      9  C   LIG A   1      -8.878   1.286 126.100  0.00  0.00    +0.204 A 
ATOM     10  C   LIG A   1      -8.281   1.838 127.253  0.00  0.00    +0.169 A 
ATOM     11  C   LIG A   1      -7.760   0.979 128.219  0.00  0.00    +0.096 A 
ENDROOT
BRANCH   4  12
ATOM     12  C   LIG A   1      -6.815  -3.165 130.207  0.00  0.00    +0.021 A 
ATOM     13  C   LIG A   1      -5.966  -4.259 130.041  0.00  0.00    +0.015 A 
ATOM     14  C   LIG A   1      -5.473  -4.942 131.146  0.00  0.00    +0.050 A 
ATOM     15  C   LIG A   1      -5.815  -4.552 132.447  0.00  0.00    +0.162 A 
ATOM     16  C   LIG A   1      -6.685  -3.456 132.629  0.00  0.00    +0.162 A 
ATOM     17  C   LIG A   1      -7.169  -2.772 131.504  0.00  0.00    +0.061 A 
BRANCH  16  18
ATOM     18  O   LIG A   1      -7.004  -3.078 133.911  0.00  0.00    -0.491 OA
ATOM     19  C   LIG A   1      -8.311  -3.440 134.365  0.00  0.00    +0.277 C 
ENDBRANCH  16  18
BRANCH  15  20
ATOM     20  O   LIG A   1      -5.348  -5.215 133.560  0.00  0.00    -0.491 OA
ATOM     21  C   LIG A   1      -3.946  -5.090 133.806  0.00  0.00    +0.277 C 
ENDBRANCH  15  20
ENDBRANCH   4  12
BRANCH   8  22
ATOM     22  O   LIG A   1      -9.689  -0.642 124.917  0.00  0.00    -0.490 OA
ATOM     23  C   LIG A   1      -8.951  -0.745 123.701  0.00  0.00    +0.277 C 
ENDBRANCH   8  22
BRANCH   9  24
ATOM     24  O   LIG A   1      -9.495   2.007 125.102  0.00  0.00    -0.488 OA
ATOM     25  C   LIG A   1      -8.660   2.773 124.242  0.00  0.00    +0.277 C 
ENDBRANCH   9  24
BRANCH  10  26
ATOM     26  O   LIG A   1      -8.310   3.195 127.427  0.00  0.00    -0.491 OA
ATOM     27  C   LIG A   1      -7.067   3.881 127.527  0.00  0.00    +0.277 C 
ENDBRANCH  10  26
TORSDOF 6
ENDMDL
MODEL 8
REMARK VINA RESULT:      -6.5      5.336     10.022
REMARK  Name = NuBBE_1217
REMARK  11 active torsions:
REMARK  status: ('A' for Active; 'I' for Inactive)
REMARK    1  A    between atoms: C_4  and  C_18
REMARK    2  A    between atoms: C_8  and  O_9
REMARK    3  A    between atoms: O_9  and  C_10
REMARK    4  A    between atoms: C_11  and  O_12
REMARK    5  A    between atoms: O_12  and  C_13
REMARK    6  A    between atoms: C_14  and  O_15
REMARK    7  A    between atoms: O_15  and  C_16
REMARK    8  A    between atoms: C_21  and  O_26
REMARK    9  A    between atoms: C_22  and  O_23
REMARK   10  A    between atoms: O_23  and  C_24
REMARK   11  A    between atoms: O_26  and  C_27
REMARK                            x       y       z     vdW  Elec       q    Type
REMARK                         _______ _______ _______ _____ _____    ______ ____
ROOT
ATOM      1  O   LIG A   1      -8.615  -3.554 125.275  0.00  0.00    -0.287 OA
ATOM      2  C   LIG A   1      -8.456  -2.705 126.153  0.00  0.00    +0.197 A 
ATOM      3  C   LIG A   1      -8.042  -3.147 127.495  0.00  0.00    +0.098 A 
ATOM      4  C   LIG A   1      -7.720  -2.228 128.411  0.00  0.00    +0.139 A 
ATOM      5  O   LIG A   1      -7.772  -0.870 128.196  0.00  0.00    -0.454 OA
ATOM      6  C   LIG A   1      -8.227  -0.415 126.989  0.00  0.00    +0.146 A 
ATOM      7  C   LIG A   1      -8.604  -1.250 125.941  0.00  0.00    +0.109 A 
ATOM      8  C   LIG A   1      -9.102  -0.672 124.768  0.00  0.00    +0.179 A 
ATOM      9  C   LIG A   1      -9.187   0.738 124.640  0.00  0.00    +0.204 A 
ATOM     10  C   LIG A   1      -8.792   1.565 125.713  0.00  0.00    +0.169 A 
ATOM     11  C   LIG A   1      -8.320   0.971 126.883  0.00  0.00    +0.096 A 
ENDROOT
BRANCH   4  12
ATOM     12  C   LIG A   1      -7.261  -2.583 129.759  0.00  0.00    +0.021 A 
ATOM     13  C   LIG A   1      -6.556  -3.772 129.946  0.00  0.00    +0.015 A 
ATOM     14  C   LIG A   1      -6.161  -4.163 131.219  0.00  0.00    +0.050 A 
ATOM     15  C   LIG A   1      -6.459  -3.379 132.341  0.00  0.00    +0.162 A 
ATOM     16  C   LIG A   1      -7.185  -2.181 132.167  0.00  0.00    +0.162 A 
ATOM     17  C   LIG A   1      -7.571  -1.795 130.875  0.00  0.00    +0.061 A 
BRANCH  16  18
ATOM     18  O   LIG A   1      -7.462  -1.416 133.276  0.00  0.00    -0.491 OA
ATOM     19  C   LIG A   1      -6.693  -0.220 133.420  0.00  0.00    +0.277 C 
ENDBRANCH  16  18
BRANCH  15  20
ATOM     20  O   LIG A   1      -6.087  -3.746 133.614  0.00  0.00    -0.491 OA
ATOM     21  C   LIG A   1      -6.024  -5.153 133.854  0.00  0.00    +0.277 C 
ENDBRANCH  15  20
ENDBRANCH   4  12
BRANCH   8  22
ATOM     22  O   LIG A   1      -9.664  -1.460 123.794  0.00  0.00    -0.490 OA
ATOM     23  C   LIG A   1      -8.780  -1.692 122.700  0.00  0.00    +0.277 C 
ENDBRANCH   8  22
BRANCH   9  24
ATOM     24  O   LIG A   1      -9.736   1.180 123.458  0.00  0.00    -0.488 OA
ATOM     25  C   LIG A   1      -8.955   2.071 122.670  0.00  0.00    +0.277 C 
ENDBRANCH   9  24
BRANCH  10  26
ATOM     26  O   LIG A   1      -8.966   2.918 125.604  0.00  0.00    -0.491 OA
ATOM     27  C   LIG A   1      -7.835   3.755 125.822  0.00  0.00    +0.277 C 
ENDBRANCH  10  26
TORSDOF 6
ENDMDL
MODEL 9
REMARK VINA RESULT:      -6.5      5.979      8.650
REMARK  Name = NuBBE_1217
REMARK  11 active torsions:
REMARK  status: ('A' for Active; 'I' for Inactive)
REMARK    1  A    between atoms: C_4  and  C_18
REMARK    2  A    between atoms: C_8  and  O_9
REMARK    3  A    between atoms: O_9  and  C_10
REMARK    4  A    between atoms: C_11  and  O_12
REMARK    5  A    between atoms: O_12  and  C_13
REMARK    6  A    between atoms: C_14  and  O_15
REMARK    7  A    between atoms: O_15  and  C_16
REMARK    8  A    between atoms: C_21  and  O_26
REMARK    9  A    between atoms: C_22  and  O_23
REMARK   10  A    between atoms: O_23  and  C_24
REMARK   11  A    between atoms: O_26  and  C_27
REMARK                            x       y       z     vdW  Elec       q    Type
REMARK                         _______ _______ _______ _____ _____    ______ ____
ROOT
ATOM      1  O   LIG A   1      -5.598  -5.126 131.670  0.00  0.00    -0.287 OA
ATOM      2  C   LIG A   1      -6.053  -4.037 131.319  0.00  0.00    +0.197 A 
ATOM      3  C   LIG A   1      -6.628  -3.915 129.969  0.00  0.00    +0.098 A 
ATOM      4  C   LIG A   1      -7.259  -2.786 129.630  0.00  0.00    +0.139 A 
ATOM      5  O   LIG A   1      -7.394  -1.697 130.461  0.00  0.00    -0.454 OA
ATOM      6  C   LIG A   1      -6.808  -1.738 131.696  0.00  0.00    +0.146 A 
ATOM      7  C   LIG A   1      -6.112  -2.840 132.184  0.00  0.00    +0.109 A 
ATOM      8  C   LIG A   1      -5.510  -2.750 133.444  0.00  0.00    +0.179 A 
ATOM      9  C   LIG A   1      -5.638  -1.570 134.220  0.00  0.00    +0.204 A 
ATOM     10  C   LIG A   1      -6.353  -0.467 133.707  0.00  0.00    +0.169 A 
ATOM     11  C   LIG A   1      -6.927  -0.566 132.440  0.00  0.00    +0.096 A 
ENDROOT
BRANCH   4  12
ATOM     12  C   LIG A   1      -7.892  -2.596 128.320  0.00  0.00    +0.021 A 
ATOM     13  C   LIG A   1      -8.593  -3.655 127.744  0.00  0.00    +0.015 A 
ATOM     14  C   LIG A   1      -9.151  -3.524 126.480  0.00  0.00    +0.050 A 
ATOM     15  C   LIG A   1      -9.026  -2.333 125.754  0.00  0.00    +0.162 A 
ATOM     16  C   LIG A   1      -8.306  -1.258 126.319  0.00  0.00    +0.162 A 
ATOM     17  C   LIG A   1      -7.754  -1.402 127.601  0.00  0.00    +0.061 A 
BRANCH  16  18
ATOM     18  O   LIG A   1      -8.199  -0.091 125.600  0.00  0.00    -0.491 OA
ATOM     19  C   LIG A   1      -8.604   1.101 126.277  0.00  0.00    +0.277 C 
ENDBRANCH  16  18
BRANCH  15  20
ATOM     20  O   LIG A   1      -9.562  -2.178 124.496  0.00  0.00    -0.491 OA
ATOM     21  C   LIG A   1      -9.388  -3.288 123.612  0.00  0.00    +0.277 C 
ENDBRANCH  15  20
ENDBRANCH   4  12
BRANCH   8  22
ATOM     22  O   LIG A   1      -4.657  -3.736 133.874  0.00  0.00    -0.490 OA
ATOM     23  C   LIG A   1      -3.296  -3.459 133.550  0.00  0.00    +0.277 C 
ENDBRANCH   8  22
BRANCH   9  24
ATOM     24  O   LIG A   1      -4.962  -1.589 135.419  0.00  0.00    -0.488 OA
ATOM     25  C   LIG A   1      -5.738  -1.753 136.601  0.00  0.00    +0.277 C 
ENDBRANCH   9  24
BRANCH  10  26
ATOM     26  O   LIG A   1      -6.389   0.693 134.432  0.00  0.00    -0.491 OA
ATOM     27  C   LIG A   1      -6.629   1.909 133.731  0.00  0.00    +0.277 C 
ENDBRANCH  10  26
TORSDOF 6
ENDMDL
