MODEL 1
REMARK VINA RESULT:      -8.6      0.000      0.000
REMARK  Name = NuBBE_2077
REMARK  4 active torsions:
REMARK  status: ('A' for Active; 'I' for Inactive)
REMARK    1  A    between atoms: C_3  and  C_4
REMARK    2  A    between atoms: C_5  and  O_6
REMARK    3  A    between atoms: O_6  and  C_7
REMARK    4  A    between atoms: C_7  and  C_8
REMARK                            x       y       z     vdW  Elec       q    Type
REMARK                         _______ _______ _______ _____ _____    ______ ____
ROOT
ATOM      1  O   LIG A   1      -6.557   1.744 123.856  0.00  0.00    -0.250 OA
ATOM      2  C   LIG A   1      -6.489   0.717 124.509  0.00  0.00    +0.320 C 
ATOM      3  C   LIG A   1      -7.185  -0.614 124.243  0.00  0.00    +0.137 C 
ATOM      4  C   LIG A   1      -6.223  -1.231 123.177  0.00  0.00    +0.030 C 
ATOM      5  C   LIG A   1      -8.657  -0.945 123.895  0.00  0.00    +0.232 C 
ATOM      6  C   LIG A   1      -8.726  -2.503 123.700  0.00  0.00    +0.081 C 
ATOM      7  C   LIG A   1      -8.062  -3.214 124.913  0.00  0.00    +0.016 C 
ATOM      8  C   LIG A   1      -7.962  -2.216 126.093  0.00  0.00    +0.005 C 
ATOM      9  C   LIG A   1      -9.390  -1.577 126.131  0.00  0.00    +0.172 C 
ATOM     10  O   LIG A   1      -9.586  -0.716 124.979  0.00  0.00    -0.338 OA
ATOM     11  C   LIG A   1      -7.444  -2.875 127.419  0.00  0.00    +0.009 C 
ATOM     12  C   LIG A   1      -8.273  -2.503 128.680  0.00  0.00    +0.009 C 
ATOM     13  C   LIG A   1      -7.838  -3.280 129.936  0.00  0.00    +0.042 C 
ATOM     14  C   LIG A   1      -6.372  -3.349 130.020  0.00  0.00    +0.036 C 
ATOM     15  C   LIG A   1      -5.494  -3.062 129.065  0.00  0.00    +0.108 C 
ATOM     16  O   LIG A   1      -4.141  -3.188 129.353  0.00  0.00    -0.488 OA
ATOM     17  C   LIG A   1      -4.082  -3.582 130.743  0.00  0.00    +0.307 C 
ATOM     18  C   LIG A   1      -5.524  -3.706 131.143  0.00  0.00    +0.199 C 
ATOM     19  O   LIG A   1      -5.946  -4.047 132.235  0.00  0.00    -0.289 OA
ATOM     20  C   LIG A   1      -5.895  -2.632 127.685  0.00  0.00    +0.062 C 
ATOM     21  C   LIG A   1      -5.437  -1.170 127.447  0.00  0.00    +0.056 C 
ATOM     22  C   LIG A   1      -5.661  -0.867 125.984  0.00  0.00    +0.182 C 
ATOM     23  O   LIG A   1      -5.527   0.498 125.533  0.00  0.00    -0.461 OA
ATOM     24  C   LIG A   1      -7.100  -1.030 125.699  0.00  0.00    +0.061 C 
ENDROOT
BRANCH   5  25
ATOM     25  O   LIG A   1      -9.059  -0.367 122.650  0.00  0.00    -0.431 OA
BRANCH  25  26
ATOM     26  C   LIG A   1     -10.052   0.562 122.693  0.00  0.00    +0.306 C 
ATOM     27  C   LIG A   1      -9.448   1.931 122.782  0.00  0.00    +0.136 C 
ATOM     28  O   LIG A   1     -11.252   0.343 122.671  0.00  0.00    -0.251 OA
ENDBRANCH  25  26
ENDBRANCH   5  25
TORSDOF 2
ENDMDL
MODEL 2
REMARK VINA RESULT:      -8.3      8.205      9.379
REMARK  Name = NuBBE_2077
REMARK  4 active torsions:
REMARK  status: ('A' for Active; 'I' for Inactive)
REMARK    1  A    between atoms: C_3  and  C_4
REMARK    2  A    between atoms: C_5  and  O_6
REMARK    3  A    between atoms: O_6  and  C_7
REMARK    4  A    between atoms: C_7  and  C_8
REMARK                            x       y       z     vdW  Elec       q    Type
REMARK                         _______ _______ _______ _____ _____    ______ ____
ROOT
ATOM      1  O   LIG A   1      -9.604   2.645 129.103  0.00  0.00    -0.250 OA
ATOM      2  C   LIG A   1      -8.797   3.140 129.872  0.00  0.00    +0.320 C 
ATOM      3  C   LIG A   1      -9.065   4.116 131.013  0.00  0.00    +0.137 C 
ATOM      4  C   LIG A   1      -9.520   3.127 132.134  0.00  0.00    +0.030 C 
ATOM      5  C   LIG A   1      -9.902   5.417 131.070  0.00  0.00    +0.232 C 
ATOM      6  C   LIG A   1      -9.812   5.937 132.550  0.00  0.00    +0.081 C 
ATOM      7  C   LIG A   1      -8.325   5.981 133.002  0.00  0.00    +0.016 C 
ATOM      8  C   LIG A   1      -7.413   5.940 131.750  0.00  0.00    +0.005 C 
ATOM      9  C   LIG A   1      -8.070   7.001 130.806  0.00  0.00    +0.172 C 
ATOM     10  O   LIG A   1      -9.344   6.513 130.310  0.00  0.00    -0.338 OA
ATOM     11  C   LIG A   1      -5.893   6.131 132.085  0.00  0.00    +0.009 C 
ATOM     12  C   LIG A   1      -5.162   7.148 131.163  0.00  0.00    +0.009 C 
ATOM     13  C   LIG A   1      -3.715   7.430 131.608  0.00  0.00    +0.042 C 
ATOM     14  C   LIG A   1      -3.042   6.183 131.999  0.00  0.00    +0.036 C 
ATOM     15  C   LIG A   1      -3.602   5.001 132.231  0.00  0.00    +0.108 C 
ATOM     16  O   LIG A   1      -2.779   3.940 132.585  0.00  0.00    -0.488 OA
ATOM     17  C   LIG A   1      -1.434   4.469 132.546  0.00  0.00    +0.307 C 
ATOM     18  C   LIG A   1      -1.628   5.916 132.194  0.00  0.00    +0.199 C 
ATOM     19  O   LIG A   1      -0.753   6.757 132.080  0.00  0.00    -0.289 OA
ATOM     20  C   LIG A   1      -5.081   4.765 132.152  0.00  0.00    +0.062 C 
ATOM     21  C   LIG A   1      -5.387   3.793 130.984  0.00  0.00    +0.056 C 
ATOM     22  C   LIG A   1      -6.846   3.416 131.090  0.00  0.00    +0.182 C 
ATOM     23  O   LIG A   1      -7.453   2.694 129.997  0.00  0.00    -0.461 OA
ATOM     24  C   LIG A   1      -7.646   4.651 130.980  0.00  0.00    +0.061 C 
ENDROOT
BRANCH   5  25
ATOM     25  O   LIG A   1     -11.289   5.176 130.813  0.00  0.00    -0.431 OA
BRANCH  25  26
ATOM     26  C   LIG A   1     -11.929   6.060 130.003  0.00  0.00    +0.306 C 
ATOM     27  C   LIG A   1     -12.652   7.070 130.842  0.00  0.00    +0.136 C 
ATOM     28  O   LIG A   1     -11.936   6.053 128.782  0.00  0.00    -0.251 OA
ENDBRANCH  25  26
ENDBRANCH   5  25
TORSDOF 2
ENDMDL
MODEL 3
REMARK VINA RESULT:      -8.1      2.154      7.401
REMARK  Name = NuBBE_2077
REMARK  4 active torsions:
REMARK  status: ('A' for Active; 'I' for Inactive)
REMARK    1  A    between atoms: C_3  and  C_4
REMARK    2  A    between atoms: C_5  and  O_6
REMARK    3  A    between atoms: O_6  and  C_7
REMARK    4  A    between atoms: C_7  and  C_8
REMARK                            x       y       z     vdW  Elec       q    Type
REMARK                         _______ _______ _______ _____ _____    ______ ____
ROOT
ATOM      1  O   LIG A   1      -3.033  -3.306 131.021  0.00  0.00    -0.250 OA
ATOM      2  C   LIG A   1      -3.883  -2.863 130.268  0.00  0.00    +0.320 C 
ATOM      3  C   LIG A   1      -5.082  -1.987 130.617  0.00  0.00    +0.137 C 
ATOM      4  C   LIG A   1      -4.402  -0.581 130.672  0.00  0.00    +0.030 C 
ATOM      5  C   LIG A   1      -6.150  -2.113 131.731  0.00  0.00    +0.232 C 
ATOM      6  C   LIG A   1      -7.094  -0.866 131.583  0.00  0.00    +0.081 C 
ATOM      7  C   LIG A   1      -7.562  -0.734 130.105  0.00  0.00    +0.016 C 
ATOM      8  C   LIG A   1      -7.330  -2.082 129.379  0.00  0.00    +0.005 C 
ATOM      9  C   LIG A   1      -7.911  -3.127 130.388  0.00  0.00    +0.172 C 
ATOM     10  O   LIG A   1      -7.057  -3.225 131.558  0.00  0.00    -0.338 OA
ATOM     11  C   LIG A   1      -7.908  -2.107 127.921  0.00  0.00    +0.009 C 
ATOM     12  C   LIG A   1      -8.727  -3.385 127.583  0.00  0.00    +0.009 C 
ATOM     13  C   LIG A   1      -9.408  -3.315 126.203  0.00  0.00    +0.042 C 
ATOM     14  C   LIG A   1      -8.492  -2.748 125.203  0.00  0.00    +0.036 C 
ATOM     15  C   LIG A   1      -7.347  -2.113 125.424  0.00  0.00    +0.108 C 
ATOM     16  O   LIG A   1      -6.622  -1.657 124.330  0.00  0.00    -0.488 OA
ATOM     17  C   LIG A   1      -7.370  -2.090 123.170  0.00  0.00    +0.307 C 
ATOM     18  C   LIG A   1      -8.578  -2.764 123.754  0.00  0.00    +0.199 C 
ATOM     19  O   LIG A   1      -9.503  -3.259 123.131  0.00  0.00    -0.289 OA
ATOM     20  C   LIG A   1      -6.812  -1.842 126.799  0.00  0.00    +0.062 C 
ATOM     21  C   LIG A   1      -5.496  -2.634 127.006  0.00  0.00    +0.056 C 
ATOM     22  C   LIG A   1      -4.888  -2.156 128.304  0.00  0.00    +0.182 C 
ATOM     23  O   LIG A   1      -3.769  -2.885 128.851  0.00  0.00    -0.461 OA
ATOM     24  C   LIG A   1      -5.852  -2.430 129.387  0.00  0.00    +0.061 C 
ENDROOT
BRANCH   5  25
ATOM     25  O   LIG A   1      -5.575  -2.027 133.039  0.00  0.00    -0.431 OA
BRANCH  25  26
ATOM     26  C   LIG A   1      -5.589  -3.158 133.794  0.00  0.00    +0.306 C 
ATOM     27  C   LIG A   1      -6.594  -3.009 134.895  0.00  0.00    +0.136 C 
ATOM     28  O   LIG A   1      -4.897  -4.150 133.628  0.00  0.00    -0.251 OA
ENDBRANCH  25  26
ENDBRANCH   5  25
TORSDOF 2
ENDMDL
MODEL 4
REMARK VINA RESULT:      -8.1      2.506      3.115
REMARK  Name = NuBBE_2077
REMARK  4 active torsions:
REMARK  status: ('A' for Active; 'I' for Inactive)
REMARK    1  A    between atoms: C_3  and  C_4
REMARK    2  A    between atoms: C_5  and  O_6
REMARK    3  A    between atoms: O_6  and  C_7
REMARK    4  A    between atoms: C_7  and  C_8
REMARK                            x       y       z     vdW  Elec       q    Type
REMARK                         _______ _______ _______ _____ _____    ______ ____
ROOT
ATOM      1  O   LIG A   1      -9.745   1.667 124.994  0.00  0.00    -0.250 OA
ATOM      2  C   LIG A   1      -9.011   1.233 125.865  0.00  0.00    +0.320 C 
ATOM      3  C   LIG A   1      -7.861   0.241 125.716  0.00  0.00    +0.137 C 
ATOM      4  C   LIG A   1      -6.721   1.197 125.236  0.00  0.00    +0.030 C 
ATOM      5  C   LIG A   1      -7.772  -1.117 124.979  0.00  0.00    +0.232 C 
ATOM      6  C   LIG A   1      -6.297  -1.627 125.167  0.00  0.00    +0.081 C 
ATOM      7  C   LIG A   1      -5.907  -1.562 126.671  0.00  0.00    +0.016 C 
ATOM      8  C   LIG A   1      -7.195  -1.456 127.524  0.00  0.00    +0.005 C 
ATOM      9  C   LIG A   1      -8.113  -2.564 126.909  0.00  0.00    +0.172 C 
ATOM     10  O   LIG A   1      -8.555  -2.170 125.583  0.00  0.00    -0.338 OA
ATOM     11  C   LIG A   1      -6.924  -1.536 129.067  0.00  0.00    +0.009 C 
ATOM     12  C   LIG A   1      -7.876  -2.499 129.831  0.00  0.00    +0.009 C 
ATOM     13  C   LIG A   1      -7.492  -2.674 131.312  0.00  0.00    +0.042 C 
ATOM     14  C   LIG A   1      -7.127  -1.381 131.909  0.00  0.00    +0.036 C 
ATOM     15  C   LIG A   1      -6.870  -0.243 131.274  0.00  0.00    +0.108 C 
ATOM     16  O   LIG A   1      -6.548   0.876 132.031  0.00  0.00    -0.488 OA
ATOM     17  C   LIG A   1      -6.644   0.446 133.409  0.00  0.00    +0.307 C 
ATOM     18  C   LIG A   1      -6.989  -1.012 133.306  0.00  0.00    +0.199 C 
ATOM     19  O   LIG A   1      -7.141  -1.788 134.234  0.00  0.00    -0.289 OA
ATOM     20  C   LIG A   1      -6.887  -0.115 129.780  0.00  0.00    +0.062 C 
ATOM     21  C   LIG A   1      -8.041   0.831 129.356  0.00  0.00    +0.056 C 
ATOM     22  C   LIG A   1      -7.874   1.101 127.879  0.00  0.00    +0.182 C 
ATOM     23  O   LIG A   1      -8.940   1.775 127.177  0.00  0.00    -0.461 OA
ATOM     24  C   LIG A   1      -7.953  -0.189 127.168  0.00  0.00    +0.061 C 
ENDROOT
BRANCH   5  25
ATOM     25  O   LIG A   1      -7.971  -0.977 123.568  0.00  0.00    -0.431 OA
BRANCH  25  26
ATOM     26  C   LIG A   1      -9.149  -1.432 123.064  0.00  0.00    +0.306 C 
ATOM     27  C   LIG A   1      -9.059  -2.912 122.848  0.00  0.00    +0.136 C 
ATOM     28  O   LIG A   1     -10.138  -0.762 122.811  0.00  0.00    -0.251 OA
ENDBRANCH  25  26
ENDBRANCH   5  25
TORSDOF 2
ENDMDL
MODEL 5
REMARK VINA RESULT:      -8.0      3.662      4.630
REMARK  Name = NuBBE_2077
REMARK  4 active torsions:
REMARK  status: ('A' for Active; 'I' for Inactive)
REMARK    1  A    between atoms: C_3  and  C_4
REMARK    2  A    between atoms: C_5  and  O_6
REMARK    3  A    between atoms: O_6  and  C_7
REMARK    4  A    between atoms: C_7  and  C_8
REMARK                            x       y       z     vdW  Elec       q    Type
REMARK                         _______ _______ _______ _____ _____    ______ ____
ROOT
ATOM      1  O   LIG A   1      -9.779   0.151 124.101  0.00  0.00    -0.250 OA
ATOM      2  C   LIG A   1      -9.128   0.383 125.105  0.00  0.00    +0.320 C 
ATOM      3  C   LIG A   1      -7.834  -0.284 125.559  0.00  0.00    +0.137 C 
ATOM      4  C   LIG A   1      -6.790   0.506 124.704  0.00  0.00    +0.030 C 
ATOM      5  C   LIG A   1      -7.431  -1.776 125.656  0.00  0.00    +0.232 C 
ATOM      6  C   LIG A   1      -5.942  -1.802 126.157  0.00  0.00    +0.081 C 
ATOM      7  C   LIG A   1      -5.797  -0.902 127.417  0.00  0.00    +0.016 C 
ATOM      8  C   LIG A   1      -7.200  -0.646 128.022  0.00  0.00    +0.005 C 
ATOM      9  C   LIG A   1      -7.838  -2.074 128.039  0.00  0.00    +0.172 C 
ATOM     10  O   LIG A   1      -8.130  -2.511 126.686  0.00  0.00    -0.338 OA
ATOM     11  C   LIG A   1      -7.154   0.128 129.386  0.00  0.00    +0.009 C 
ATOM     12  C   LIG A   1      -8.056  -0.484 130.494  0.00  0.00    +0.009 C 
ATOM     13  C   LIG A   1      -7.876   0.202 131.861  0.00  0.00    +0.042 C 
ATOM     14  C   LIG A   1      -7.803   1.661 131.702  0.00  0.00    +0.036 C 
ATOM     15  C   LIG A   1      -7.628   2.343 130.576  0.00  0.00    +0.108 C 
ATOM     16  O   LIG A   1      -7.595   3.730 130.642  0.00  0.00    -0.488 OA
ATOM     17  C   LIG A   1      -7.831   4.051 132.033  0.00  0.00    +0.307 C 
ATOM     18  C   LIG A   1      -7.934   2.709 132.698  0.00  0.00    +0.199 C 
ATOM     19  O   LIG A   1      -8.105   2.502 133.888  0.00  0.00    -0.289 OA
ATOM     20  C   LIG A   1      -7.439   1.686 129.241  0.00  0.00    +0.062 C 
ATOM     21  C   LIG A   1      -8.645   2.023 128.325  0.00  0.00    +0.056 C 
ATOM     22  C   LIG A   1      -8.301   1.532 126.939  0.00  0.00    +0.182 C 
ATOM     23  O   LIG A   1      -9.337   1.518 125.934  0.00  0.00    -0.461 OA
ATOM     24  C   LIG A   1      -8.077   0.075 127.013  0.00  0.00    +0.061 C 
ENDROOT
BRANCH   5  25
ATOM     25  O   LIG A   1      -7.435  -2.418 124.377  0.00  0.00    -0.431 OA
BRANCH  25  26
ATOM     26  C   LIG A   1      -8.203  -3.533 124.249  0.00  0.00    +0.306 C 
ATOM     27  C   LIG A   1      -9.447  -3.194 123.485  0.00  0.00    +0.136 C 
ATOM     28  O   LIG A   1      -7.947  -4.645 124.682  0.00  0.00    -0.251 OA
ENDBRANCH  25  26
ENDBRANCH   5  25
TORSDOF 2
ENDMDL
MODEL 6
REMARK VINA RESULT:      -8.0      2.642      3.881
REMARK  Name = NuBBE_2077
REMARK  4 active torsions:
REMARK  status: ('A' for Active; 'I' for Inactive)
REMARK    1  A    between atoms: C_3  and  C_4
REMARK    2  A    between atoms: C_5  and  O_6
REMARK    3  A    between atoms: O_6  and  C_7
REMARK    4  A    between atoms: C_7  and  C_8
REMARK                            x       y       z     vdW  Elec       q    Type
REMARK                         _______ _______ _______ _____ _____    ______ ____
ROOT
ATOM      1  O   LIG A   1      -8.725   5.017 125.439  0.00  0.00    -0.250 OA
ATOM      2  C   LIG A   1      -8.367   3.856 125.536  0.00  0.00    +0.320 C 
ATOM      3  C   LIG A   1      -7.719   2.981 124.469  0.00  0.00    +0.137 C 
ATOM      4  C   LIG A   1      -6.231   3.446 124.582  0.00  0.00    +0.030 C 
ATOM      5  C   LIG A   1      -8.093   2.730 122.988  0.00  0.00    +0.232 C 
ATOM      6  C   LIG A   1      -7.002   1.755 122.414  0.00  0.00    +0.081 C 
ATOM      7  C   LIG A   1      -6.837   0.535 123.364  0.00  0.00    +0.016 C 
ATOM      8  C   LIG A   1      -8.074   0.444 124.292  0.00  0.00    +0.005 C 
ATOM      9  C   LIG A   1      -9.269   0.619 123.297  0.00  0.00    +0.172 C 
ATOM     10  O   LIG A   1      -9.318   1.984 122.806  0.00  0.00    -0.338 OA
ATOM     11  C   LIG A   1      -8.081  -0.843 125.190  0.00  0.00    +0.009 C 
ATOM     12  C   LIG A   1      -9.443  -1.592 125.216  0.00  0.00    +0.009 C 
ATOM     13  C   LIG A   1      -9.379  -2.928 125.979  0.00  0.00    +0.042 C 
ATOM     14  C   LIG A   1      -8.603  -2.779 127.219  0.00  0.00    +0.036 C 
ATOM     15  C   LIG A   1      -7.814  -1.767 127.560  0.00  0.00    +0.108 C 
ATOM     16  O   LIG A   1      -7.170  -1.818 128.790  0.00  0.00    -0.488 OA
ATOM     17  C   LIG A   1      -7.628  -3.042 129.410  0.00  0.00    +0.307 C 
ATOM     18  C   LIG A   1      -8.525  -3.655 128.374  0.00  0.00    +0.199 C 
ATOM     19  O   LIG A   1      -9.112  -4.720 128.463  0.00  0.00    -0.289 OA
ATOM     20  C   LIG A   1      -7.565  -0.585 126.672  0.00  0.00    +0.062 C 
ATOM     21  C   LIG A   1      -8.154   0.689 127.331  0.00  0.00    +0.056 C 
ATOM     22  C   LIG A   1      -7.683   1.870 126.514  0.00  0.00    +0.182 C 
ATOM     23  O   LIG A   1      -8.265   3.165 126.775  0.00  0.00    -0.461 OA
ATOM     24  C   LIG A   1      -8.185   1.701 125.136  0.00  0.00    +0.061 C 
ENDROOT
BRANCH   5  25
ATOM     25  O   LIG A   1      -8.015   3.924 122.203  0.00  0.00    -0.431 OA
BRANCH  25  26
ATOM     26  C   LIG A   1      -8.231   3.800 120.866  0.00  0.00    +0.306 C 
ATOM     27  C   LIG A   1      -6.961   4.095 120.128  0.00  0.00    +0.136 C 
ATOM     28  O   LIG A   1      -9.284   3.502 120.325  0.00  0.00    -0.251 OA
ENDBRANCH  25  26
ENDBRANCH   5  25
TORSDOF 2
ENDMDL
MODEL 7
REMARK VINA RESULT:      -7.7      3.541      5.409
REMARK  Name = NuBBE_2077
REMARK  4 active torsions:
REMARK  status: ('A' for Active; 'I' for Inactive)
REMARK    1  A    between atoms: C_3  and  C_4
REMARK    2  A    between atoms: C_5  and  O_6
REMARK    3  A    between atoms: O_6  and  C_7
REMARK    4  A    between atoms: C_7  and  C_8
REMARK                            x       y       z     vdW  Elec       q    Type
REMARK                         _______ _______ _______ _____ _____    ______ ____
ROOT
ATOM      1  O   LIG A   1     -10.207   1.392 124.609  0.00  0.00    -0.250 OA
ATOM      2  C   LIG A   1      -9.065   1.598 124.982  0.00  0.00    +0.320 C 
ATOM      3  C   LIG A   1      -7.864   0.662 124.891  0.00  0.00    +0.137 C 
ATOM      4  C   LIG A   1      -7.422   0.908 123.411  0.00  0.00    +0.030 C 
ATOM      5  C   LIG A   1      -7.703  -0.833 125.259  0.00  0.00    +0.232 C 
ATOM      6  C   LIG A   1      -6.227  -1.224 124.889  0.00  0.00    +0.081 C 
ATOM      7  C   LIG A   1      -5.240  -0.189 125.500  0.00  0.00    +0.016 C 
ATOM      8  C   LIG A   1      -5.964   0.602 126.617  0.00  0.00    +0.005 C 
ATOM      9  C   LIG A   1      -6.669  -0.525 127.443  0.00  0.00    +0.172 C 
ATOM     10  O   LIG A   1      -7.760  -1.101 126.678  0.00  0.00    -0.338 OA
ATOM     11  C   LIG A   1      -5.014   1.571 127.405  0.00  0.00    +0.009 C 
ATOM     12  C   LIG A   1      -5.168   1.495 128.950  0.00  0.00    +0.009 C 
ATOM     13  C   LIG A   1      -4.122   2.340 129.700  0.00  0.00    +0.042 C 
ATOM     14  C   LIG A   1      -3.947   3.645 129.047  0.00  0.00    +0.036 C 
ATOM     15  C   LIG A   1      -4.371   4.008 127.842  0.00  0.00    +0.108 C 
ATOM     16  O   LIG A   1      -4.105   5.301 127.411  0.00  0.00    -0.488 OA
ATOM     17  C   LIG A   1      -3.428   5.941 128.517  0.00  0.00    +0.307 C 
ATOM     18  C   LIG A   1      -3.314   4.853 129.545  0.00  0.00    +0.199 C 
ATOM     19  O   LIG A   1      -2.781   4.942 130.638  0.00  0.00    -0.289 OA
ATOM     20  C   LIG A   1      -5.101   3.082 126.916  0.00  0.00    +0.062 C 
ATOM     21  C   LIG A   1      -6.549   3.594 126.709  0.00  0.00    +0.056 C 
ATOM     22  C   LIG A   1      -7.162   2.763 125.606  0.00  0.00    +0.182 C 
ATOM     23  O   LIG A   1      -8.580   2.880 125.360  0.00  0.00    -0.461 OA
ATOM     24  C   LIG A   1      -7.151   1.352 126.038  0.00  0.00    +0.061 C 
ENDROOT
BRANCH   5  25
ATOM     25  O   LIG A   1      -8.551  -1.675 124.472  0.00  0.00    -0.431 OA
BRANCH  25  26
ATOM     26  C   LIG A   1      -9.062  -2.778 125.081  0.00  0.00    +0.306 C 
ATOM     27  C   LIG A   1      -8.209  -3.967 124.754  0.00  0.00    +0.136 C 
ATOM     28  O   LIG A   1     -10.059  -2.823 125.784  0.00  0.00    -0.251 OA
ENDBRANCH  25  26
ENDBRANCH   5  25
TORSDOF 2
ENDMDL
MODEL 8
REMARK VINA RESULT:      -7.6      1.773      2.129
REMARK  Name = NuBBE_2077
REMARK  4 active torsions:
REMARK  status: ('A' for Active; 'I' for Inactive)
REMARK    1  A    between atoms: C_3  and  C_4
REMARK    2  A    between atoms: C_5  and  O_6
REMARK    3  A    between atoms: O_6  and  C_7
REMARK    4  A    between atoms: C_7  and  C_8
REMARK                            x       y       z     vdW  Elec       q    Type
REMARK                         _______ _______ _______ _____ _____    ______ ____
ROOT
ATOM      1  O   LIG A   1      -9.148   2.212 125.584  0.00  0.00    -0.250 OA
ATOM      2  C   LIG A   1      -8.379   1.468 126.167  0.00  0.00    +0.320 C 
ATOM      3  C   LIG A   1      -7.476   0.394 125.567  0.00  0.00    +0.137 C 
ATOM      4  C   LIG A   1      -6.269   1.267 125.095  0.00  0.00    +0.030 C 
ATOM      5  C   LIG A   1      -7.764  -0.726 124.539  0.00  0.00    +0.232 C 
ATOM      6  C   LIG A   1      -6.402  -1.473 124.303  0.00  0.00    +0.081 C 
ATOM      7  C   LIG A   1      -5.769  -1.854 125.671  0.00  0.00    +0.016 C 
ATOM      8  C   LIG A   1      -6.859  -1.789 126.770  0.00  0.00    +0.005 C 
ATOM      9  C   LIG A   1      -8.056  -2.558 126.119  0.00  0.00    +0.172 C 
ATOM     10  O   LIG A   1      -8.625  -1.777 125.035  0.00  0.00    -0.338 OA
ATOM     11  C   LIG A   1      -6.361  -2.302 128.167  0.00  0.00    +0.009 C 
ATOM     12  C   LIG A   1      -7.342  -3.283 128.870  0.00  0.00    +0.009 C 
ATOM     13  C   LIG A   1      -6.763  -3.887 130.163  0.00  0.00    +0.042 C 
ATOM     14  C   LIG A   1      -6.070  -2.857 130.950  0.00  0.00    +0.036 C 
ATOM     15  C   LIG A   1      -5.709  -1.643 130.551  0.00  0.00    +0.108 C 
ATOM     16  O   LIG A   1      -5.064  -0.814 131.460  0.00  0.00    -0.488 OA
ATOM     17  C   LIG A   1      -5.014  -1.567 132.694  0.00  0.00    +0.307 C 
ATOM     18  C   LIG A   1      -5.641  -2.884 132.336  0.00  0.00    +0.199 C 
ATOM     19  O   LIG A   1      -5.783  -3.843 133.076  0.00  0.00    -0.289 OA
ATOM     20  C   LIG A   1      -5.943  -1.133 129.160  0.00  0.00    +0.062 C 
ATOM     21  C   LIG A   1      -6.950   0.045 129.205  0.00  0.00    +0.056 C 
ATOM     22  C   LIG A   1      -6.977   0.660 127.825  0.00  0.00    +0.182 C 
ATOM     23  O   LIG A   1      -7.995   1.638 127.525  0.00  0.00    -0.461 OA
ATOM     24  C   LIG A   1      -7.411  -0.378 126.871  0.00  0.00    +0.061 C 
ENDROOT
BRANCH   5  25
ATOM     25  O   LIG A   1      -8.159  -0.202 123.267  0.00  0.00    -0.431 OA
BRANCH  25  26
ATOM     26  C   LIG A   1      -9.430  -0.463 122.860  0.00  0.00    +0.306 C 
ATOM     27  C   LIG A   1     -10.135   0.827 122.572  0.00  0.00    +0.136 C 
ATOM     28  O   LIG A   1      -9.943  -1.565 122.744  0.00  0.00    -0.251 OA
ENDBRANCH  25  26
ENDBRANCH   5  25
TORSDOF 2
ENDMDL
MODEL 9
REMARK VINA RESULT:      -7.6      6.573      7.570
REMARK  Name = NuBBE_2077
REMARK  4 active torsions:
REMARK  status: ('A' for Active; 'I' for Inactive)
REMARK    1  A    between atoms: C_3  and  C_4
REMARK    2  A    between atoms: C_5  and  O_6
REMARK    3  A    between atoms: O_6  and  C_7
REMARK    4  A    between atoms: C_7  and  C_8
REMARK                            x       y       z     vdW  Elec       q    Type
REMARK                         _______ _______ _______ _____ _____    ______ ____
ROOT
ATOM      1  O   LIG A   1     -10.015   6.534 132.814  0.00  0.00    -0.250 OA
ATOM      2  C   LIG A   1      -9.288   5.572 132.637  0.00  0.00    +0.320 C 
ATOM      3  C   LIG A   1      -8.389   5.281 131.440  0.00  0.00    +0.137 C 
ATOM      4  C   LIG A   1      -7.142   6.152 131.801  0.00  0.00    +0.030 C 
ATOM      5  C   LIG A   1      -8.663   5.339 129.918  0.00  0.00    +0.232 C 
ATOM      6  C   LIG A   1      -7.311   4.966 129.209  0.00  0.00    +0.081 C 
ATOM      7  C   LIG A   1      -6.743   3.653 129.820  0.00  0.00    +0.016 C 
ATOM      8  C   LIG A   1      -7.875   2.917 130.579  0.00  0.00    +0.005 C 
ATOM      9  C   LIG A   1      -9.064   2.962 129.564  0.00  0.00    +0.172 C 
ATOM     10  O   LIG A   1      -9.568   4.318 129.441  0.00  0.00    -0.338 OA
ATOM     11  C   LIG A   1      -7.447   1.503 131.108  0.00  0.00    +0.009 C 
ATOM     12  C   LIG A   1      -8.479   0.377 130.819  0.00  0.00    +0.009 C 
ATOM     13  C   LIG A   1      -7.968  -1.021 131.212  0.00  0.00    +0.042 C 
ATOM     14  C   LIG A   1      -7.282  -0.976 132.511  0.00  0.00    +0.036 C 
ATOM     15  C   LIG A   1      -6.875   0.102 133.172  0.00  0.00    +0.108 C 
ATOM     16  O   LIG A   1      -6.247  -0.073 134.398  0.00  0.00    -0.488 OA
ATOM     17  C   LIG A   1      -6.266  -1.500 134.636  0.00  0.00    +0.307 C 
ATOM     18  C   LIG A   1      -6.910  -2.061 133.401  0.00  0.00    +0.199 C 
ATOM     19  O   LIG A   1      -7.106  -3.239 133.158  0.00  0.00    -0.289 OA
ATOM     20  C   LIG A   1      -7.040   1.497 132.646  0.00  0.00    +0.062 C 
ATOM     21  C   LIG A   1      -8.019   2.280 133.559  0.00  0.00    +0.056 C 
ATOM     22  C   LIG A   1      -7.975   3.726 133.122  0.00  0.00    +0.182 C 
ATOM     23  O   LIG A   1      -8.956   4.639 133.657  0.00  0.00    -0.461 OA
ATOM     24  C   LIG A   1      -8.396   3.788 131.709  0.00  0.00    +0.061 C 
ENDROOT
BRANCH   5  25
ATOM     25  O   LIG A   1      -8.993   6.661 129.481  0.00  0.00    -0.431 OA
BRANCH  25  26
ATOM     26  C   LIG A   1     -10.084   6.792 128.679  0.00  0.00    +0.306 C 
ATOM     27  C   LIG A   1     -11.261   7.213 129.505  0.00  0.00    +0.136 C 
ATOM     28  O   LIG A   1     -10.127   6.596 127.475  0.00  0.00    -0.251 OA
ENDBRANCH  25  26
ENDBRANCH   5  25
TORSDOF 2
ENDMDL
