MODEL 1
REMARK VINA RESULT:      -7.8      0.000      0.000
REMARK  Name = NuBBE_2359
REMARK  8 active torsions:
REMARK  status: ('A' for Active; 'I' for Inactive)
REMARK    1  A    between atoms: C_1  and  C_2
REMARK    2  A    between atoms: C_2  and  C_3
REMARK    3  A    between atoms: C_2  and  C_4
REMARK    4  A    between atoms: C_5  and  O_6
REMARK    5  A    between atoms: C_15  and  C_16
REMARK    6  A    between atoms: C_20  and  C_21
REMARK    7  A    between atoms: C_20  and  C_24
REMARK    8  A    between atoms: C_21  and  O_22
REMARK                            x       y       z     vdW  Elec       q    Type
REMARK                         _______ _______ _______ _____ _____    ______ ____
ROOT
ATOM      1  C   LIG A   1      -7.730  -2.450 124.765  0.00  0.00    +0.000 A 
ATOM      2  C   LIG A   1      -9.064  -2.894 124.770  0.00  0.00    +0.120 A 
ATOM      3  C   LIG A   1      -9.707  -3.269 125.943  0.00  0.00    +0.046 A 
ATOM      4  C   LIG A   1      -9.043  -3.171 127.161  0.00  0.00    +0.008 A 
ATOM      5  C   LIG A   1      -7.711  -2.724 127.242  0.00  0.00    -0.037 A 
ATOM      6  C   LIG A   1      -7.041  -2.401 126.024  0.00  0.00    -0.037 A 
ATOM      7  C   LIG A   1      -5.593  -1.982 126.097  0.00  0.00    +0.036 C 
ATOM      8  C   LIG A   1      -4.893  -2.581 127.303  0.00  0.00    +0.010 C 
ATOM      9  C   LIG A   1      -5.547  -2.132 128.619  0.00  0.00    +0.016 C 
ATOM     10  C   LIG A   1      -7.073  -2.530 128.654  0.00  0.00    -0.003 C 
ATOM     11  C   LIG A   1      -7.876  -1.363 129.305  0.00  0.00    +0.016 C 
ATOM     12  C   LIG A   1      -7.248  -3.810 129.515  0.00  0.00    +0.012 C 
ATOM     13  C   LIG A   1      -6.714  -3.707 130.945  0.00  0.00    +0.002 C 
ATOM     14  C   LIG A   1      -5.547  -2.746 131.125  0.00  0.00    +0.018 C 
ATOM     15  C   LIG A   1      -4.673  -2.586 129.866  0.00  0.00    +0.068 C 
ATOM     16  C   LIG A   1      -3.895  -3.905 129.648  0.00  0.00    +0.023 C 
ENDROOT
BRANCH   1  18
ATOM     17  C   LIG A   1      -6.922  -0.538 123.258  0.00  0.00    +0.012 C 
ATOM     18  C   LIG A   1      -7.063  -2.058 123.435  0.00  0.00    +0.017 C 
ATOM     19  C   LIG A   1      -5.703  -2.733 123.199  0.00  0.00    +0.012 C 
ENDBRANCH   1  18
BRANCH   2  20
ATOM     20  O   LIG A   1      -9.768  -2.963 123.600  0.00  0.00    -0.506 OA
ATOM     21  H   LIG A   1      -9.616  -3.831 123.194  0.00  0.00    +0.292 HD
ENDBRANCH   2  20
BRANCH  15  22
ATOM     22  C   LIG A   1      -3.615  -1.523 130.209  0.00  0.00    +0.311 C 
ATOM     23  O   LIG A   1      -3.824  -0.432 130.706  0.00  0.00    -0.250 OA
BRANCH  22  24
ATOM     24  O   LIG A   1      -2.344  -1.902 129.970  0.00  0.00    -0.480 OA
ATOM     25  H   LIG A   1      -2.405  -2.432 129.148  0.00  0.00    +0.295 HD
ENDBRANCH  22  24
ENDBRANCH  15  22
TORSDOF 4
ENDMDL
MODEL 2
REMARK VINA RESULT:      -7.5      1.398      1.907
REMARK  Name = NuBBE_2359
REMARK  8 active torsions:
REMARK  status: ('A' for Active; 'I' for Inactive)
REMARK    1  A    between atoms: C_1  and  C_2
REMARK    2  A    between atoms: C_2  and  C_3
REMARK    3  A    between atoms: C_2  and  C_4
REMARK    4  A    between atoms: C_5  and  O_6
REMARK    5  A    between atoms: C_15  and  C_16
REMARK    6  A    between atoms: C_20  and  C_21
REMARK    7  A    between atoms: C_20  and  C_24
REMARK    8  A    between atoms: C_21  and  O_22
REMARK                            x       y       z     vdW  Elec       q    Type
REMARK                         _______ _______ _______ _____ _____    ______ ____
ROOT
ATOM      1  C   LIG A   1      -8.170  -2.014 126.483  0.00  0.00    +0.000 A 
ATOM      2  C   LIG A   1      -9.236  -2.928 126.417  0.00  0.00    +0.120 A 
ATOM      3  C   LIG A   1      -9.425  -3.906 127.386  0.00  0.00    +0.046 A 
ATOM      4  C   LIG A   1      -8.571  -3.974 128.480  0.00  0.00    +0.008 A 
ATOM      5  C   LIG A   1      -7.487  -3.088 128.626  0.00  0.00    -0.037 A 
ATOM      6  C   LIG A   1      -7.266  -2.128 127.594  0.00  0.00    -0.037 A 
ATOM      7  C   LIG A   1      -6.069  -1.217 127.712  0.00  0.00    +0.036 C 
ATOM      8  C   LIG A   1      -4.948  -1.858 128.511  0.00  0.00    +0.010 C 
ATOM      9  C   LIG A   1      -5.392  -2.189 129.944  0.00  0.00    +0.016 C 
ATOM     10  C   LIG A   1      -6.643  -3.151 129.939  0.00  0.00    -0.003 C 
ATOM     11  C   LIG A   1      -7.618  -2.703 131.069  0.00  0.00    +0.016 C 
ATOM     12  C   LIG A   1      -6.171  -4.603 130.218  0.00  0.00    +0.012 C 
ATOM     13  C   LIG A   1      -5.388  -4.792 131.518  0.00  0.00    +0.002 C 
ATOM     14  C   LIG A   1      -4.605  -3.569 131.977  0.00  0.00    +0.018 C 
ATOM     15  C   LIG A   1      -4.153  -2.652 130.824  0.00  0.00    +0.068 C 
ATOM     16  C   LIG A   1      -3.049  -3.386 130.027  0.00  0.00    +0.023 C 
ENDROOT
BRANCH   1  18
ATOM     17  C   LIG A   1      -7.779  -1.573 123.987  0.00  0.00    +0.012 C 
ATOM     18  C   LIG A   1      -8.001  -0.958 125.377  0.00  0.00    +0.017 C 
ATOM     19  C   LIG A   1      -9.147   0.063 125.314  0.00  0.00    +0.012 C 
ENDBRANCH   1  18
BRANCH   2  20
ATOM     20  O   LIG A   1     -10.127  -2.868 125.380  0.00  0.00    -0.506 OA
ATOM     21  H   LIG A   1     -11.008  -3.105 125.710  0.00  0.00    +0.292 HD
ENDBRANCH   2  20
BRANCH  15  22
ATOM     22  C   LIG A   1      -3.465  -1.442 131.481  0.00  0.00    +0.311 C 
ATOM     23  O   LIG A   1      -3.793  -0.276 131.364  0.00  0.00    -0.250 OA
BRANCH  22  24
ATOM     24  O   LIG A   1      -2.442  -1.756 132.299  0.00  0.00    -0.480 OA
ATOM     25  H   LIG A   1      -2.872  -2.208 133.054  0.00  0.00    +0.295 HD
ENDBRANCH  22  24
ENDBRANCH  15  22
TORSDOF 4
ENDMDL
MODEL 3
REMARK VINA RESULT:      -7.1      3.550      6.439
REMARK  Name = NuBBE_2359
REMARK  8 active torsions:
REMARK  status: ('A' for Active; 'I' for Inactive)
REMARK    1  A    between atoms: C_1  and  C_2
REMARK    2  A    between atoms: C_2  and  C_3
REMARK    3  A    between atoms: C_2  and  C_4
REMARK    4  A    between atoms: C_5  and  O_6
REMARK    5  A    between atoms: C_15  and  C_16
REMARK    6  A    between atoms: C_20  and  C_21
REMARK    7  A    between atoms: C_20  and  C_24
REMARK    8  A    between atoms: C_21  and  O_22
REMARK                            x       y       z     vdW  Elec       q    Type
REMARK                         _______ _______ _______ _____ _____    ______ ____
ROOT
ATOM      1  C   LIG A   1      -7.656  -1.888 127.730  0.00  0.00    +0.000 A 
ATOM      2  C   LIG A   1      -8.508  -2.921 127.302  0.00  0.00    +0.120 A 
ATOM      3  C   LIG A   1      -9.180  -2.861 126.087  0.00  0.00    +0.046 A 
ATOM      4  C   LIG A   1      -8.987  -1.777 125.239  0.00  0.00    +0.008 A 
ATOM      5  C   LIG A   1      -8.141  -0.708 125.589  0.00  0.00    -0.037 A 
ATOM      6  C   LIG A   1      -7.505  -0.751 126.865  0.00  0.00    -0.037 A 
ATOM      7  C   LIG A   1      -6.647   0.421 127.273  0.00  0.00    +0.036 C 
ATOM      8  C   LIG A   1      -7.096   1.709 126.606  0.00  0.00    +0.010 C 
ATOM      9  C   LIG A   1      -7.011   1.614 125.075  0.00  0.00    +0.016 C 
ATOM     10  C   LIG A   1      -7.884   0.416 124.535  0.00  0.00    -0.003 C 
ATOM     11  C   LIG A   1      -7.108  -0.283 123.378  0.00  0.00    +0.016 C 
ATOM     12  C   LIG A   1      -9.226   0.970 123.987  0.00  0.00    +0.012 C 
ATOM     13  C   LIG A   1      -9.091   2.035 122.897  0.00  0.00    +0.002 C 
ATOM     14  C   LIG A   1      -7.824   2.876 122.977  0.00  0.00    +0.018 C 
ATOM     15  C   LIG A   1      -7.271   3.031 124.407  0.00  0.00    +0.068 C 
ATOM     16  C   LIG A   1      -8.239   3.938 125.203  0.00  0.00    +0.023 C 
ENDROOT
BRANCH   1  18
ATOM     17  C   LIG A   1      -7.917  -2.008 130.279  0.00  0.00    +0.012 C 
ATOM     18  C   LIG A   1      -6.945  -2.001 129.089  0.00  0.00    +0.017 C 
ATOM     19  C   LIG A   1      -5.991  -3.200 129.193  0.00  0.00    +0.012 C 
ENDBRANCH   1  18
BRANCH   2  20
ATOM     20  O   LIG A   1      -8.691  -4.027 128.085  0.00  0.00    -0.506 OA
ATOM     21  H   LIG A   1      -9.456  -3.877 128.664  0.00  0.00    +0.292 HD
ENDBRANCH   2  20
BRANCH  15  22
ATOM     22  C   LIG A   1      -5.959   3.825 124.277  0.00  0.00    +0.311 C 
ATOM     23  O   LIG A   1      -4.978   3.716 124.988  0.00  0.00    -0.250 OA
BRANCH  22  24
ATOM     24  O   LIG A   1      -5.918   4.669 123.228  0.00  0.00    -0.480 OA
ATOM     25  H   LIG A   1      -6.832   4.650 122.872  0.00  0.00    +0.295 HD
ENDBRANCH  22  24
ENDBRANCH  15  22
TORSDOF 4
ENDMDL
MODEL 4
REMARK VINA RESULT:      -7.1      3.840      6.270
REMARK  Name = NuBBE_2359
REMARK  8 active torsions:
REMARK  status: ('A' for Active; 'I' for Inactive)
REMARK    1  A    between atoms: C_1  and  C_2
REMARK    2  A    between atoms: C_2  and  C_3
REMARK    3  A    between atoms: C_2  and  C_4
REMARK    4  A    between atoms: C_5  and  O_6
REMARK    5  A    between atoms: C_15  and  C_16
REMARK    6  A    between atoms: C_20  and  C_21
REMARK    7  A    between atoms: C_20  and  C_24
REMARK    8  A    between atoms: C_21  and  O_22
REMARK                            x       y       z     vdW  Elec       q    Type
REMARK                         _______ _______ _______ _____ _____    ______ ____
ROOT
ATOM      1  C   LIG A   1      -5.675   3.368 124.917  0.00  0.00    +0.000 A 
ATOM      2  C   LIG A   1      -5.949   4.011 123.697  0.00  0.00    +0.120 A 
ATOM      3  C   LIG A   1      -6.664   3.385 122.683  0.00  0.00    +0.046 A 
ATOM      4  C   LIG A   1      -7.167   2.104 122.877  0.00  0.00    +0.008 A 
ATOM      5  C   LIG A   1      -6.948   1.398 124.074  0.00  0.00    -0.037 A 
ATOM      6  C   LIG A   1      -6.159   2.025 125.083  0.00  0.00    -0.037 A 
ATOM      7  C   LIG A   1      -5.866   1.250 126.344  0.00  0.00    +0.036 C 
ATOM      8  C   LIG A   1      -5.872  -0.248 126.100  0.00  0.00    +0.010 C 
ATOM      9  C   LIG A   1      -7.238  -0.735 125.591  0.00  0.00    +0.016 C 
ATOM     10  C   LIG A   1      -7.643   0.011 124.261  0.00  0.00    -0.003 C 
ATOM     11  C   LIG A   1      -9.168   0.326 124.313  0.00  0.00    +0.016 C 
ATOM     12  C   LIG A   1      -7.355  -0.914 123.049  0.00  0.00    +0.012 C 
ATOM     13  C   LIG A   1      -8.043  -2.280 123.098  0.00  0.00    +0.002 C 
ATOM     14  C   LIG A   1      -8.304  -2.815 124.499  0.00  0.00    +0.018 C 
ATOM     15  C   LIG A   1      -7.292  -2.322 125.552  0.00  0.00    +0.068 C 
ATOM     16  C   LIG A   1      -5.929  -2.995 125.264  0.00  0.00    +0.023 C 
ENDROOT
BRANCH   1  18
ATOM     17  C   LIG A   1      -5.647   4.276 127.316  0.00  0.00    +0.012 C 
ATOM     18  C   LIG A   1      -4.869   4.103 126.002  0.00  0.00    +0.017 C 
ATOM     19  C   LIG A   1      -3.499   3.471 126.292  0.00  0.00    +0.012 C 
ENDBRANCH   1  18
BRANCH   2  20
ATOM     20  O   LIG A   1      -5.511   5.288 123.483  0.00  0.00    -0.506 OA
ATOM     21  H   LIG A   1      -5.139   5.635 124.309  0.00  0.00    +0.292 HD
ENDBRANCH   2  20
BRANCH  15  22
ATOM     22  C   LIG A   1      -7.765  -2.888 126.902  0.00  0.00    +0.311 C 
ATOM     23  O   LIG A   1      -7.198  -2.768 127.972  0.00  0.00    -0.250 OA
BRANCH  22  24
ATOM     24  O   LIG A   1      -8.954  -3.522 126.857  0.00  0.00    -0.480 OA
ATOM     25  H   LIG A   1      -9.550  -2.877 126.421  0.00  0.00    +0.295 HD
ENDBRANCH  22  24
ENDBRANCH  15  22
TORSDOF 4
ENDMDL
MODEL 5
REMARK VINA RESULT:      -7.0      4.063      6.874
REMARK  Name = NuBBE_2359
REMARK  8 active torsions:
REMARK  status: ('A' for Active; 'I' for Inactive)
REMARK    1  A    between atoms: C_1  and  C_2
REMARK    2  A    between atoms: C_2  and  C_3
REMARK    3  A    between atoms: C_2  and  C_4
REMARK    4  A    between atoms: C_5  and  O_6
REMARK    5  A    between atoms: C_15  and  C_16
REMARK    6  A    between atoms: C_20  and  C_21
REMARK    7  A    between atoms: C_20  and  C_24
REMARK    8  A    between atoms: C_21  and  O_22
REMARK                            x       y       z     vdW  Elec       q    Type
REMARK                         _______ _______ _______ _____ _____    ______ ____
ROOT
ATOM      1  C   LIG A   1      -5.058   2.911 126.554  0.00  0.00    +0.000 A 
ATOM      2  C   LIG A   1      -5.642   4.176 126.365  0.00  0.00    +0.120 A 
ATOM      3  C   LIG A   1      -6.845   4.334 125.687  0.00  0.00    +0.046 A 
ATOM      4  C   LIG A   1      -7.526   3.220 125.211  0.00  0.00    +0.008 A 
ATOM      5  C   LIG A   1      -7.014   1.919 125.371  0.00  0.00    -0.037 A 
ATOM      6  C   LIG A   1      -5.749   1.774 126.013  0.00  0.00    -0.037 A 
ATOM      7  C   LIG A   1      -5.164   0.387 126.131  0.00  0.00    +0.036 C 
ATOM      8  C   LIG A   1      -5.646  -0.525 125.018  0.00  0.00    +0.010 C 
ATOM      9  C   LIG A   1      -7.173  -0.689 125.040  0.00  0.00    +0.016 C 
ATOM     10  C   LIG A   1      -7.892   0.710 124.914  0.00  0.00    -0.003 C 
ATOM     11  C   LIG A   1      -9.126   0.722 125.866  0.00  0.00    +0.016 C 
ATOM     12  C   LIG A   1      -8.375   0.905 123.452  0.00  0.00    +0.012 C 
ATOM     13  C   LIG A   1      -9.298  -0.193 122.922  0.00  0.00    +0.002 C 
ATOM     14  C   LIG A   1      -9.080  -1.566 123.540  0.00  0.00    +0.018 C 
ATOM     15  C   LIG A   1      -7.634  -1.811 124.015  0.00  0.00    +0.068 C 
ATOM     16  C   LIG A   1      -6.731  -1.940 122.767  0.00  0.00    +0.023 C 
ENDROOT
BRANCH   1  18
ATOM     17  C   LIG A   1      -2.551   3.454 126.552  0.00  0.00    +0.012 C 
ATOM     18  C   LIG A   1      -3.719   2.794 127.302  0.00  0.00    +0.017 C 
ATOM     19  C   LIG A   1      -3.766   3.316 128.745  0.00  0.00    +0.012 C 
ENDBRANCH   1  18
BRANCH   2  20
ATOM     20  O   LIG A   1      -5.028   5.295 126.856  0.00  0.00    -0.506 OA
ATOM     21  H   LIG A   1      -5.094   6.004 126.197  0.00  0.00    +0.292 HD
ENDBRANCH   2  20
BRANCH  15  22
ATOM     22  C   LIG A   1      -7.630  -3.198 124.683  0.00  0.00    +0.311 C 
ATOM     23  O   LIG A   1      -8.421  -3.598 125.517  0.00  0.00    -0.250 OA
BRANCH  22  24
ATOM     24  O   LIG A   1      -6.675  -4.034 124.231  0.00  0.00    -0.480 OA
ATOM     25  H   LIG A   1      -6.817  -4.856 124.745  0.00  0.00    +0.295 HD
ENDBRANCH  22  24
ENDBRANCH  15  22
TORSDOF 4
ENDMDL
MODEL 6
REMARK VINA RESULT:      -6.9      2.991      6.716
REMARK  Name = NuBBE_2359
REMARK  8 active torsions:
REMARK  status: ('A' for Active; 'I' for Inactive)
REMARK    1  A    between atoms: C_1  and  C_2
REMARK    2  A    between atoms: C_2  and  C_3
REMARK    3  A    between atoms: C_2  and  C_4
REMARK    4  A    between atoms: C_5  and  O_6
REMARK    5  A    between atoms: C_15  and  C_16
REMARK    6  A    between atoms: C_20  and  C_21
REMARK    7  A    between atoms: C_20  and  C_24
REMARK    8  A    between atoms: C_21  and  O_22
REMARK                            x       y       z     vdW  Elec       q    Type
REMARK                         _______ _______ _______ _____ _____    ______ ____
ROOT
ATOM      1  C   LIG A   1      -7.730  -0.998 129.849  0.00  0.00    +0.000 A 
ATOM      2  C   LIG A   1      -7.751  -2.392 130.025  0.00  0.00    +0.120 A 
ATOM      3  C   LIG A   1      -7.836  -3.266 128.947  0.00  0.00    +0.046 A 
ATOM      4  C   LIG A   1      -7.859  -2.768 127.650  0.00  0.00    +0.008 A 
ATOM      5  C   LIG A   1      -7.829  -1.385 127.389  0.00  0.00    -0.037 A 
ATOM      6  C   LIG A   1      -7.806  -0.497 128.504  0.00  0.00    -0.037 A 
ATOM      7  C   LIG A   1      -7.837   0.988 128.234  0.00  0.00    +0.036 C 
ATOM      8  C   LIG A   1      -8.535   1.308 126.925  0.00  0.00    +0.010 C 
ATOM      9  C   LIG A   1      -7.823   0.658 125.729  0.00  0.00    +0.016 C 
ATOM     10  C   LIG A   1      -7.740  -0.907 125.904  0.00  0.00    -0.003 C 
ATOM     11  C   LIG A   1      -6.345  -1.390 125.405  0.00  0.00    +0.016 C 
ATOM     12  C   LIG A   1      -8.848  -1.576 125.046  0.00  0.00    +0.012 C 
ATOM     13  C   LIG A   1      -8.814  -1.227 123.557  0.00  0.00    +0.002 C 
ATOM     14  C   LIG A   1      -8.238   0.145 123.235  0.00  0.00    +0.018 C 
ATOM     15  C   LIG A   1      -8.434   1.181 124.358  0.00  0.00    +0.068 C 
ATOM     16  C   LIG A   1      -9.937   1.538 124.429  0.00  0.00    +0.023 C 
ENDROOT
BRANCH   1  18
ATOM     17  C   LIG A   1      -8.953  -0.030 131.885  0.00  0.00    +0.012 C 
ATOM     18  C   LIG A   1      -7.647  -0.075 131.077  0.00  0.00    +0.017 C 
ATOM     19  C   LIG A   1      -6.472  -0.393 132.014  0.00  0.00    +0.012 C 
ENDBRANCH   1  18
BRANCH   2  20
ATOM     20  O   LIG A   1      -7.684  -2.925 131.282  0.00  0.00    -0.506 OA
ATOM     21  H   LIG A   1      -8.528  -3.359 131.484  0.00  0.00    +0.292 HD
ENDBRANCH   2  20
BRANCH  15  22
ATOM     22  C   LIG A   1      -7.717   2.461 123.892  0.00  0.00    +0.311 C 
ATOM     23  O   LIG A   1      -6.546   2.557 123.577  0.00  0.00    -0.250 OA
BRANCH  22  24
ATOM     24  O   LIG A   1      -8.515   3.542 123.787  0.00  0.00    -0.480 OA
ATOM     25  H   LIG A   1      -8.031   4.242 124.273  0.00  0.00    +0.295 HD
ENDBRANCH  22  24
ENDBRANCH  15  22
TORSDOF 4
ENDMDL
MODEL 7
REMARK VINA RESULT:      -6.7      1.853      6.797
REMARK  Name = NuBBE_2359
REMARK  8 active torsions:
REMARK  status: ('A' for Active; 'I' for Inactive)
REMARK    1  A    between atoms: C_1  and  C_2
REMARK    2  A    between atoms: C_2  and  C_3
REMARK    3  A    between atoms: C_2  and  C_4
REMARK    4  A    between atoms: C_5  and  O_6
REMARK    5  A    between atoms: C_15  and  C_16
REMARK    6  A    between atoms: C_20  and  C_21
REMARK    7  A    between atoms: C_20  and  C_24
REMARK    8  A    between atoms: C_21  and  O_22
REMARK                            x       y       z     vdW  Elec       q    Type
REMARK                         _______ _______ _______ _____ _____    ______ ____
ROOT
ATOM      1  C   LIG A   1      -6.796  -1.900 129.655  0.00  0.00    +0.000 A 
ATOM      2  C   LIG A   1      -6.153  -0.848 130.331  0.00  0.00    +0.120 A 
ATOM      3  C   LIG A   1      -5.916   0.378 129.722  0.00  0.00    +0.046 A 
ATOM      4  C   LIG A   1      -6.355   0.605 128.423  0.00  0.00    +0.008 A 
ATOM      5  C   LIG A   1      -7.018  -0.392 127.683  0.00  0.00    -0.037 A 
ATOM      6  C   LIG A   1      -7.200  -1.667 128.297  0.00  0.00    -0.037 A 
ATOM      7  C   LIG A   1      -7.853  -2.761 127.487  0.00  0.00    +0.036 C 
ATOM      8  C   LIG A   1      -7.623  -2.575 125.998  0.00  0.00    +0.010 C 
ATOM      9  C   LIG A   1      -8.209  -1.246 125.496  0.00  0.00    +0.016 C 
ATOM     10  C   LIG A   1      -7.585  -0.024 126.275  0.00  0.00    -0.003 C 
ATOM     11  C   LIG A   1      -8.711   1.017 126.550  0.00  0.00    +0.016 C 
ATOM     12  C   LIG A   1      -6.487   0.633 125.397  0.00  0.00    +0.012 C 
ATOM     13  C   LIG A   1      -6.951   1.094 124.014  0.00  0.00    +0.002 C 
ATOM     14  C   LIG A   1      -8.104   0.292 123.427  0.00  0.00    +0.018 C 
ATOM     15  C   LIG A   1      -8.154  -1.171 123.910  0.00  0.00    +0.068 C 
ATOM     16  C   LIG A   1      -6.961  -1.928 123.280  0.00  0.00    +0.023 C 
ENDROOT
BRANCH   1  18
ATOM     17  C   LIG A   1      -5.798  -4.166 130.323  0.00  0.00    +0.012 C 
ATOM     18  C   LIG A   1      -7.024  -3.241 130.374  0.00  0.00    +0.017 C 
ATOM     19  C   LIG A   1      -7.501  -3.094 131.826  0.00  0.00    +0.012 C 
ENDBRANCH   1  18
BRANCH   2  20
ATOM     20  O   LIG A   1      -5.744  -1.014 131.626  0.00  0.00    -0.506 OA
ATOM     21  H   LIG A   1      -6.526  -1.064 132.197  0.00  0.00    +0.292 HD
ENDBRANCH   2  20
BRANCH  15  22
ATOM     22  C   LIG A   1      -9.420  -1.787 123.288  0.00  0.00    +0.311 C 
ATOM     23  O   LIG A   1      -9.796  -2.937 123.410  0.00  0.00    -0.250 OA
BRANCH  22  24
ATOM     24  O   LIG A   1     -10.182  -0.917 122.596  0.00  0.00    -0.480 OA
ATOM     25  H   LIG A   1     -10.648  -0.405 123.291  0.00  0.00    +0.295 HD
ENDBRANCH  22  24
ENDBRANCH  15  22
TORSDOF 4
ENDMDL
MODEL 8
REMARK VINA RESULT:      -6.7      8.409     10.890
REMARK  Name = NuBBE_2359
REMARK  8 active torsions:
REMARK  status: ('A' for Active; 'I' for Inactive)
REMARK    1  A    between atoms: C_1  and  C_2
REMARK    2  A    between atoms: C_2  and  C_3
REMARK    3  A    between atoms: C_2  and  C_4
REMARK    4  A    between atoms: C_5  and  O_6
REMARK    5  A    between atoms: C_15  and  C_16
REMARK    6  A    between atoms: C_20  and  C_21
REMARK    7  A    between atoms: C_20  and  C_24
REMARK    8  A    between atoms: C_21  and  O_22
REMARK                            x       y       z     vdW  Elec       q    Type
REMARK                         _______ _______ _______ _____ _____    ______ ____
ROOT
ATOM      1  C   LIG A   1      -3.715   7.179 131.629  0.00  0.00    +0.000 A 
ATOM      2  C   LIG A   1      -2.885   7.251 132.761  0.00  0.00    +0.120 A 
ATOM      3  C   LIG A   1      -3.249   6.683 133.975  0.00  0.00    +0.046 A 
ATOM      4  C   LIG A   1      -4.445   5.983 134.084  0.00  0.00    +0.008 A 
ATOM      5  C   LIG A   1      -5.326   5.854 132.994  0.00  0.00    -0.037 A 
ATOM      6  C   LIG A   1      -4.971   6.495 131.770  0.00  0.00    -0.037 A 
ATOM      7  C   LIG A   1      -5.940   6.416 130.616  0.00  0.00    +0.036 C 
ATOM      8  C   LIG A   1      -7.373   6.259 131.092  0.00  0.00    +0.010 C 
ATOM      9  C   LIG A   1      -7.560   4.974 131.913  0.00  0.00    +0.016 C 
ATOM     10  C   LIG A   1      -6.593   4.955 133.160  0.00  0.00    -0.003 C 
ATOM     11  C   LIG A   1      -6.043   3.509 133.340  0.00  0.00    +0.016 C 
ATOM     12  C   LIG A   1      -7.389   5.359 134.429  0.00  0.00    +0.012 C 
ATOM     13  C   LIG A   1      -8.619   4.499 134.724  0.00  0.00    +0.002 C 
ATOM     14  C   LIG A   1      -9.280   3.886 133.498  0.00  0.00    +0.018 C 
ATOM     15  C   LIG A   1      -9.099   4.717 132.213  0.00  0.00    +0.068 C 
ATOM     16  C   LIG A   1      -9.943   6.006 132.349  0.00  0.00    +0.023 C 
ENDROOT
BRANCH   1  18
ATOM     17  C   LIG A   1      -3.115   6.831 129.160  0.00  0.00    +0.012 C 
ATOM     18  C   LIG A   1      -3.268   7.836 130.312  0.00  0.00    +0.017 C 
ATOM     19  C   LIG A   1      -4.162   9.003 129.866  0.00  0.00    +0.012 C 
ENDBRANCH   1  18
BRANCH   2  20
ATOM     20  O   LIG A   1      -1.679   7.892 132.686  0.00  0.00    -0.506 OA
ATOM     21  H   LIG A   1      -1.292   7.729 131.812  0.00  0.00    +0.292 HD
ENDBRANCH   2  20
BRANCH  15  22
ATOM     22  C   LIG A   1      -9.749   3.903 131.080  0.00  0.00    +0.311 C 
ATOM     23  O   LIG A   1      -9.615   4.096 129.886  0.00  0.00    -0.250 OA
BRANCH  22  24
ATOM     24  O   LIG A   1     -10.486   2.854 131.496  0.00  0.00    -0.480 OA
ATOM     25  H   LIG A   1      -9.942   2.074 131.258  0.00  0.00    +0.295 HD
ENDBRANCH  22  24
ENDBRANCH  15  22
TORSDOF 4
ENDMDL
MODEL 9
REMARK VINA RESULT:      -6.6      3.160      3.983
REMARK  Name = NuBBE_2359
REMARK  8 active torsions:
REMARK  status: ('A' for Active; 'I' for Inactive)
REMARK    1  A    between atoms: C_1  and  C_2
REMARK    2  A    between atoms: C_2  and  C_3
REMARK    3  A    between atoms: C_2  and  C_4
REMARK    4  A    between atoms: C_5  and  O_6
REMARK    5  A    between atoms: C_15  and  C_16
REMARK    6  A    between atoms: C_20  and  C_21
REMARK    7  A    between atoms: C_20  and  C_24
REMARK    8  A    between atoms: C_21  and  O_22
REMARK                            x       y       z     vdW  Elec       q    Type
REMARK                         _______ _______ _______ _____ _____    ______ ____
ROOT
ATOM      1  C   LIG A   1      -6.493  -2.128 124.964  0.00  0.00    +0.000 A 
ATOM      2  C   LIG A   1      -7.517  -3.066 125.178  0.00  0.00    +0.120 A 
ATOM      3  C   LIG A   1      -8.463  -2.902 126.182  0.00  0.00    +0.046 A 
ATOM      4  C   LIG A   1      -8.438  -1.765 126.982  0.00  0.00    +0.008 A 
ATOM      5  C   LIG A   1      -7.452  -0.773 126.823  0.00  0.00    -0.037 A 
ATOM      6  C   LIG A   1      -6.449  -0.982 125.830  0.00  0.00    -0.037 A 
ATOM      7  C   LIG A   1      -5.353   0.046 125.696  0.00  0.00    +0.036 C 
ATOM      8  C   LIG A   1      -5.094   0.769 127.006  0.00  0.00    +0.010 C 
ATOM      9  C   LIG A   1      -6.343   1.518 127.496  0.00  0.00    +0.016 C 
ATOM     10  C   LIG A   1      -7.559   0.529 127.679  0.00  0.00    -0.003 C 
ATOM     11  C   LIG A   1      -8.854   1.238 127.181  0.00  0.00    +0.016 C 
ATOM     12  C   LIG A   1      -7.713   0.184 129.184  0.00  0.00    +0.012 C 
ATOM     13  C   LIG A   1      -7.891   1.388 130.110  0.00  0.00    +0.002 C 
ATOM     14  C   LIG A   1      -7.235   2.673 129.623  0.00  0.00    +0.018 C 
ATOM     15  C   LIG A   1      -5.993   2.441 128.741  0.00  0.00    +0.068 C 
ATOM     16  C   LIG A   1      -4.859   1.891 129.638  0.00  0.00    +0.023 C 
ENDROOT
BRANCH   1  18
ATOM     17  C   LIG A   1      -4.798  -3.746 123.922  0.00  0.00    +0.012 C 
ATOM     18  C   LIG A   1      -5.464  -2.364 123.844  0.00  0.00    +0.017 C 
ATOM     19  C   LIG A   1      -6.022  -2.138 122.431  0.00  0.00    +0.012 C 
ENDBRANCH   1  18
BRANCH   2  20
ATOM     20  O   LIG A   1      -7.606  -4.177 124.385  0.00  0.00    -0.506 OA
ATOM     21  H   LIG A   1      -8.471  -4.593 124.525  0.00  0.00    +0.292 HD
ENDBRANCH   2  20
BRANCH  15  22
ATOM     22  C   LIG A   1      -5.528   3.833 128.278  0.00  0.00    +0.311 C 
ATOM     23  O   LIG A   1      -4.379   4.229 128.228  0.00  0.00    -0.250 OA
BRANCH  22  24
ATOM     24  O   LIG A   1      -6.518   4.637 127.844  0.00  0.00    -0.480 OA
ATOM     25  H   LIG A   1      -6.266   5.524 128.176  0.00  0.00    +0.295 HD
ENDBRANCH  22  24
ENDBRANCH  15  22
TORSDOF 4
ENDMDL
