MODEL 1
REMARK VINA RESULT:      -7.8      0.000      0.000
REMARK  Name = NuBBE_2375
REMARK  5 active torsions:
REMARK  status: ('A' for Active; 'I' for Inactive)
REMARK    1  A    between atoms: C_1  and  C_22
REMARK    2  A    between atoms: C_1  and  C_23
REMARK    3  A    between atoms: C_12  and  C_13
REMARK    4  A    between atoms: C_13  and  C_14
REMARK    5  A    between atoms: C_13  and  C_15
REMARK                            x       y       z     vdW  Elec       q    Type
REMARK                         _______ _______ _______ _____ _____    ______ ____
ROOT
ATOM      1  C   LIG A   1      -7.532  -2.761 124.605  0.00  0.00    -0.028 C 
ATOM      2  C   LIG A   1      -6.881  -1.326 124.777  0.00  0.00    +0.021 C 
ATOM      3  C   LIG A   1      -7.969  -0.246 124.763  0.00  0.00    -0.065 C 
ATOM      4  C   LIG A   1      -8.871  -0.302 123.761  0.00  0.00    -0.027 C 
ATOM      5  C   LIG A   1      -8.874  -1.442 122.794  0.00  0.00    +0.028 C 
ATOM      6  C   LIG A   1      -8.685  -2.761 123.541  0.00  0.00    +0.011 C 
ATOM      7  C   LIG A   1      -8.075   0.858 125.785  0.00  0.00    +0.070 C 
ATOM      8  C   LIG A   1      -6.810   1.645 125.931  0.00  0.00    +0.010 C 
ATOM      9  C   LIG A   1      -5.706   1.125 126.490  0.00  0.00    -0.040 C 
ATOM     10  C   LIG A   1      -4.489   1.888 126.656  0.00  0.00    +0.011 C 
ATOM     11  C   LIG A   1      -4.326   3.156 126.240  0.00  0.00    +0.006 C 
ATOM     12  C   LIG A   1      -5.476   3.820 125.560  0.00  0.00    +0.229 C 
ATOM     13  O   LIG A   1      -5.390   4.948 125.092  0.00  0.00    -0.283 OA
ATOM     14  C   LIG A   1      -6.793   3.054 125.461  0.00  0.00    +0.229 C 
ATOM     15  O   LIG A   1      -7.792   3.601 125.017  0.00  0.00    -0.283 OA
ATOM     16  C   LIG A   1      -5.713  -0.307 126.962  0.00  0.00    +0.036 C 
ATOM     17  C   LIG A   1      -5.702  -1.301 125.804  0.00  0.00    +0.013 C 
ATOM     18  C   LIG A   1      -6.473  -3.787 124.141  0.00  0.00    +0.011 C 
ATOM     19  C   LIG A   1      -8.128  -3.252 125.946  0.00  0.00    +0.011 C 
ENDROOT
BRANCH  11  20
ATOM     20  C   LIG A   1      -3.029   3.914 126.444  0.00  0.00    +0.017 C 
ATOM     21  C   LIG A   1      -3.072   4.831 127.668  0.00  0.00    +0.012 C 
ATOM     22  C   LIG A   1      -1.810   2.989 126.484  0.00  0.00    +0.012 C 
ENDBRANCH  11  20
TORSDOF 1
ENDMDL
MODEL 2
REMARK VINA RESULT:      -7.6      3.421      6.382
REMARK  Name = NuBBE_2375
REMARK  5 active torsions:
REMARK  status: ('A' for Active; 'I' for Inactive)
REMARK    1  A    between atoms: C_1  and  C_22
REMARK    2  A    between atoms: C_1  and  C_23
REMARK    3  A    between atoms: C_12  and  C_13
REMARK    4  A    between atoms: C_13  and  C_14
REMARK    5  A    between atoms: C_13  and  C_15
REMARK                            x       y       z     vdW  Elec       q    Type
REMARK                         _______ _______ _______ _____ _____    ______ ____
ROOT
ATOM      1  C   LIG A   1      -7.121  -1.738 131.457  0.00  0.00    -0.028 C 
ATOM      2  C   LIG A   1      -7.649  -1.528 129.978  0.00  0.00    +0.021 C 
ATOM      3  C   LIG A   1      -7.835  -0.034 129.689  0.00  0.00    -0.065 C 
ATOM      4  C   LIG A   1      -8.521   0.683 130.603  0.00  0.00    -0.027 C 
ATOM      5  C   LIG A   1      -8.960   0.065 131.891  0.00  0.00    +0.028 C 
ATOM      6  C   LIG A   1      -7.830  -0.779 132.477  0.00  0.00    +0.011 C 
ATOM      7  C   LIG A   1      -7.309   0.658 128.457  0.00  0.00    +0.070 C 
ATOM      8  C   LIG A   1      -7.749   0.005 127.184  0.00  0.00    +0.010 C 
ATOM      9  C   LIG A   1      -7.287  -1.197 126.802  0.00  0.00    -0.040 C 
ATOM     10  C   LIG A   1      -7.690  -1.823 125.562  0.00  0.00    +0.011 C 
ATOM     11  C   LIG A   1      -8.579  -1.298 124.701  0.00  0.00    +0.006 C 
ATOM     12  C   LIG A   1      -9.194   0.016 125.048  0.00  0.00    +0.229 C 
ATOM     13  O   LIG A   1     -10.059   0.532 124.353  0.00  0.00    -0.283 OA
ATOM     14  C   LIG A   1      -8.708   0.726 126.309  0.00  0.00    +0.229 C 
ATOM     15  O   LIG A   1      -9.098   1.856 126.569  0.00  0.00    -0.283 OA
ATOM     16  C   LIG A   1      -6.320  -1.940 127.688  0.00  0.00    +0.036 C 
ATOM     17  C   LIG A   1      -6.989  -2.497 128.941  0.00  0.00    +0.013 C 
ATOM     18  C   LIG A   1      -7.380  -3.188 131.926  0.00  0.00    +0.011 C 
ATOM     19  C   LIG A   1      -5.600  -1.468 131.534  0.00  0.00    +0.011 C 
ENDROOT
BRANCH  11  20
ATOM     20  C   LIG A   1      -8.962  -1.994 123.409  0.00  0.00    +0.017 C 
ATOM     21  C   LIG A   1      -7.806  -2.051 122.408  0.00  0.00    +0.012 C 
ATOM     22  C   LIG A   1      -9.561  -3.382 123.648  0.00  0.00    +0.012 C 
ENDBRANCH  11  20
TORSDOF 1
ENDMDL
MODEL 3
REMARK VINA RESULT:      -7.5      4.139      6.962
REMARK  Name = NuBBE_2375
REMARK  5 active torsions:
REMARK  status: ('A' for Active; 'I' for Inactive)
REMARK    1  A    between atoms: C_1  and  C_22
REMARK    2  A    between atoms: C_1  and  C_23
REMARK    3  A    between atoms: C_12  and  C_13
REMARK    4  A    between atoms: C_13  and  C_14
REMARK    5  A    between atoms: C_13  and  C_15
REMARK                            x       y       z     vdW  Elec       q    Type
REMARK                         _______ _______ _______ _____ _____    ______ ____
ROOT
ATOM      1  C   LIG A   1      -4.985  -1.612 131.608  0.00  0.00    -0.028 C 
ATOM      2  C   LIG A   1      -5.416  -2.066 130.152  0.00  0.00    +0.021 C 
ATOM      3  C   LIG A   1      -6.924  -2.340 130.107  0.00  0.00    -0.065 C 
ATOM      4  C   LIG A   1      -7.429  -3.128 131.078  0.00  0.00    -0.027 C 
ATOM      5  C   LIG A   1      -6.572  -3.598 132.209  0.00  0.00    +0.028 C 
ATOM      6  C   LIG A   1      -5.708  -2.447 132.723  0.00  0.00    +0.011 C 
ATOM      7  C   LIG A   1      -7.849  -1.793 129.050  0.00  0.00    +0.070 C 
ATOM      8  C   LIG A   1      -7.400  -2.108 127.657  0.00  0.00    +0.010 C 
ATOM      9  C   LIG A   1      -6.313  -1.540 127.112  0.00  0.00    -0.040 C 
ATOM     10  C   LIG A   1      -5.888  -1.823 125.758  0.00  0.00    +0.011 C 
ATOM     11  C   LIG A   1      -6.499  -2.694 124.937  0.00  0.00    +0.006 C 
ATOM     12  C   LIG A   1      -7.694  -3.421 125.457  0.00  0.00    +0.229 C 
ATOM     13  O   LIG A   1      -8.270  -4.278 124.799  0.00  0.00    -0.283 OA
ATOM     14  C   LIG A   1      -8.204  -3.063 126.851  0.00  0.00    +0.229 C 
ATOM     15  O   LIG A   1      -9.246  -3.548 127.270  0.00  0.00    -0.283 OA
ATOM     16  C   LIG A   1      -5.488  -0.577 127.925  0.00  0.00    +0.036 C 
ATOM     17  C   LIG A   1      -4.683  -1.278 129.016  0.00  0.00    +0.013 C 
ATOM     18  C   LIG A   1      -3.463  -1.794 131.806  0.00  0.00    +0.011 C 
ATOM     19  C   LIG A   1      -5.329  -0.122 131.837  0.00  0.00    +0.011 C 
ENDROOT
BRANCH  11  20
ATOM     20  C   LIG A   1      -6.016  -2.949 123.523  0.00  0.00    +0.017 C 
ATOM     21  C   LIG A   1      -6.316  -1.781 122.581  0.00  0.00    +0.012 C 
ATOM     22  C   LIG A   1      -4.537  -3.341 123.471  0.00  0.00    +0.012 C 
ENDBRANCH  11  20
TORSDOF 1
ENDMDL
MODEL 4
REMARK VINA RESULT:      -7.3      3.986      5.672
REMARK  Name = NuBBE_2375
REMARK  5 active torsions:
REMARK  status: ('A' for Active; 'I' for Inactive)
REMARK    1  A    between atoms: C_1  and  C_22
REMARK    2  A    between atoms: C_1  and  C_23
REMARK    3  A    between atoms: C_12  and  C_13
REMARK    4  A    between atoms: C_13  and  C_14
REMARK    5  A    between atoms: C_13  and  C_15
REMARK                            x       y       z     vdW  Elec       q    Type
REMARK                         _______ _______ _______ _____ _____    ______ ____
ROOT
ATOM      1  C   LIG A   1      -8.525  -0.730 123.791  0.00  0.00    -0.028 C 
ATOM      2  C   LIG A   1      -8.498  -0.888 125.367  0.00  0.00    +0.021 C 
ATOM      3  C   LIG A   1      -7.699  -2.136 125.761  0.00  0.00    -0.065 C 
ATOM      4  C   LIG A   1      -8.005  -3.283 125.119  0.00  0.00    -0.027 C 
ATOM      5  C   LIG A   1      -8.985  -3.293 123.992  0.00  0.00    +0.028 C 
ATOM      6  C   LIG A   1      -8.728  -2.106 123.064  0.00  0.00    +0.011 C 
ATOM      7  C   LIG A   1      -6.619  -2.149 126.813  0.00  0.00    +0.070 C 
ATOM      8  C   LIG A   1      -7.077  -1.603 128.130  0.00  0.00    +0.010 C 
ATOM      9  C   LIG A   1      -7.345  -0.300 128.309  0.00  0.00    -0.040 C 
ATOM     10  C   LIG A   1      -7.765   0.236 129.585  0.00  0.00    +0.011 C 
ATOM     11  C   LIG A   1      -7.964  -0.502 130.690  0.00  0.00    +0.006 C 
ATOM     12  C   LIG A   1      -7.741  -1.974 130.594  0.00  0.00    +0.229 C 
ATOM     13  O   LIG A   1      -7.963  -2.727 131.534  0.00  0.00    -0.283 OA
ATOM     14  C   LIG A   1      -7.212  -2.538 129.277  0.00  0.00    +0.229 C 
ATOM     15  O   LIG A   1      -6.905  -3.718 129.191  0.00  0.00    -0.283 OA
ATOM     16  C   LIG A   1      -7.219   0.653 127.148  0.00  0.00    +0.036 C 
ATOM     17  C   LIG A   1      -8.335   0.472 126.123  0.00  0.00    +0.013 C 
ATOM     18  C   LIG A   1      -9.682   0.198 123.356  0.00  0.00    +0.011 C 
ATOM     19  C   LIG A   1      -7.197  -0.120 123.283  0.00  0.00    +0.011 C 
ENDROOT
BRANCH  11  20
ATOM     20  C   LIG A   1      -8.399   0.112 132.006  0.00  0.00    +0.017 C 
ATOM     21  C   LIG A   1      -7.226   0.696 132.797  0.00  0.00    +0.012 C 
ATOM     22  C   LIG A   1      -9.519   1.141 131.831  0.00  0.00    +0.012 C 
ENDBRANCH  11  20
TORSDOF 1
ENDMDL
MODEL 5
REMARK VINA RESULT:      -7.2      4.243      5.550
REMARK  Name = NuBBE_2375
REMARK  5 active torsions:
REMARK  status: ('A' for Active; 'I' for Inactive)
REMARK    1  A    between atoms: C_1  and  C_22
REMARK    2  A    between atoms: C_1  and  C_23
REMARK    3  A    between atoms: C_12  and  C_13
REMARK    4  A    between atoms: C_13  and  C_14
REMARK    5  A    between atoms: C_13  and  C_15
REMARK                            x       y       z     vdW  Elec       q    Type
REMARK                         _______ _______ _______ _____ _____    ______ ____
ROOT
ATOM      1  C   LIG A   1      -8.006  -2.332 125.808  0.00  0.00    -0.028 C 
ATOM      2  C   LIG A   1      -8.401  -1.316 126.958  0.00  0.00    +0.021 C 
ATOM      3  C   LIG A   1      -7.993  -1.880 128.325  0.00  0.00    -0.065 C 
ATOM      4  C   LIG A   1      -8.356  -3.151 128.593  0.00  0.00    -0.027 C 
ATOM      5  C   LIG A   1      -9.010  -3.999 127.550  0.00  0.00    +0.028 C 
ATOM      6  C   LIG A   1      -8.298  -3.821 126.210  0.00  0.00    +0.011 C 
ATOM      7  C   LIG A   1      -7.231  -1.099 129.365  0.00  0.00    +0.070 C 
ATOM      8  C   LIG A   1      -7.879   0.206 129.711  0.00  0.00    +0.010 C 
ATOM      9  C   LIG A   1      -7.914   1.235 128.850  0.00  0.00    -0.040 C 
ATOM     10  C   LIG A   1      -8.517   2.506 129.186  0.00  0.00    +0.011 C 
ATOM     11  C   LIG A   1      -9.127   2.771 130.354  0.00  0.00    +0.006 C 
ATOM     12  C   LIG A   1      -9.190   1.680 131.371  0.00  0.00    +0.229 C 
ATOM     13  O   LIG A   1      -9.783   1.816 132.432  0.00  0.00    -0.283 OA
ATOM     14  C   LIG A   1      -8.478   0.366 131.060  0.00  0.00    +0.229 C 
ATOM     15  O   LIG A   1      -8.404  -0.511 131.910  0.00  0.00    -0.283 OA
ATOM     16  C   LIG A   1      -7.315   1.078 127.475  0.00  0.00    +0.036 C 
ATOM     17  C   LIG A   1      -8.158   0.180 126.573  0.00  0.00    +0.013 C 
ATOM     18  C   LIG A   1      -8.809  -2.034 124.520  0.00  0.00    +0.011 C 
ATOM     19  C   LIG A   1      -6.500  -2.220 125.476  0.00  0.00    +0.011 C 
ENDROOT
BRANCH  11  20
ATOM     20  C   LIG A   1      -9.739   4.124 130.659  0.00  0.00    +0.017 C 
ATOM     21  C   LIG A   1      -8.968   5.276 130.010  0.00  0.00    +0.012 C 
ATOM     22  C   LIG A   1     -11.228   4.185 130.312  0.00  0.00    +0.012 C 
ENDBRANCH  11  20
TORSDOF 1
ENDMDL
MODEL 6
REMARK VINA RESULT:      -7.2      4.766      6.559
REMARK  Name = NuBBE_2375
REMARK  5 active torsions:
REMARK  status: ('A' for Active; 'I' for Inactive)
REMARK    1  A    between atoms: C_1  and  C_22
REMARK    2  A    between atoms: C_1  and  C_23
REMARK    3  A    between atoms: C_12  and  C_13
REMARK    4  A    between atoms: C_13  and  C_14
REMARK    5  A    between atoms: C_13  and  C_15
REMARK                            x       y       z     vdW  Elec       q    Type
REMARK                         _______ _______ _______ _____ _____    ______ ____
ROOT
ATOM      1  C   LIG A   1      -7.893  -2.489 125.457  0.00  0.00    -0.028 C 
ATOM      2  C   LIG A   1      -7.131  -2.666 126.836  0.00  0.00    +0.021 C 
ATOM      3  C   LIG A   1      -6.245  -1.445 127.112  0.00  0.00    -0.065 C 
ATOM      4  C   LIG A   1      -5.439  -1.037 126.109  0.00  0.00    -0.027 C 
ATOM      5  C   LIG A   1      -5.511  -1.675 124.760  0.00  0.00    +0.028 C 
ATOM      6  C   LIG A   1      -6.971  -1.868 124.350  0.00  0.00    +0.011 C 
ATOM      7  C   LIG A   1      -6.223  -0.698 128.421  0.00  0.00    +0.070 C 
ATOM      8  C   LIG A   1      -5.962  -1.585 129.598  0.00  0.00    +0.010 C 
ATOM      9  C   LIG A   1      -6.865  -2.479 130.032  0.00  0.00    -0.040 C 
ATOM     10  C   LIG A   1      -6.628  -3.322 131.184  0.00  0.00    +0.011 C 
ATOM     11  C   LIG A   1      -5.490  -3.328 131.898  0.00  0.00    +0.006 C 
ATOM     12  C   LIG A   1      -4.396  -2.406 131.475  0.00  0.00    +0.229 C 
ATOM     13  O   LIG A   1      -3.305  -2.396 132.030  0.00  0.00    -0.283 OA
ATOM     14  C   LIG A   1      -4.669  -1.449 130.318  0.00  0.00    +0.229 C 
ATOM     15  O   LIG A   1      -3.846  -0.597 130.014  0.00  0.00    -0.283 OA
ATOM     16  C   LIG A   1      -8.175  -2.629 129.303  0.00  0.00    +0.036 C 
ATOM     17  C   LIG A   1      -8.012  -3.319 127.951  0.00  0.00    +0.013 C 
ATOM     18  C   LIG A   1      -8.392  -3.854 124.933  0.00  0.00    +0.011 C 
ATOM     19  C   LIG A   1      -9.116  -1.559 125.628  0.00  0.00    +0.011 C 
ENDROOT
BRANCH  11  20
ATOM     20  C   LIG A   1      -5.295  -4.229 133.102  0.00  0.00    +0.017 C 
ATOM     21  C   LIG A   1      -6.573  -4.389 133.928  0.00  0.00    +0.012 C 
ATOM     22  C   LIG A   1      -4.701  -5.589 132.726  0.00  0.00    +0.012 C 
ENDBRANCH  11  20
TORSDOF 1
ENDMDL
MODEL 7
REMARK VINA RESULT:      -7.2      6.044      8.852
REMARK  Name = NuBBE_2375
REMARK  5 active torsions:
REMARK  status: ('A' for Active; 'I' for Inactive)
REMARK    1  A    between atoms: C_1  and  C_22
REMARK    2  A    between atoms: C_1  and  C_23
REMARK    3  A    between atoms: C_12  and  C_13
REMARK    4  A    between atoms: C_13  and  C_14
REMARK    5  A    between atoms: C_13  and  C_15
REMARK                            x       y       z     vdW  Elec       q    Type
REMARK                         _______ _______ _______ _____ _____    ______ ____
ROOT
ATOM      1  C   LIG A   1      -3.522   5.581 129.868  0.00  0.00    -0.028 C 
ATOM      2  C   LIG A   1      -5.105   5.521 129.870  0.00  0.00    +0.021 C 
ATOM      3  C   LIG A   1      -5.582   4.152 130.368  0.00  0.00    -0.065 C 
ATOM      4  C   LIG A   1      -5.012   3.066 129.806  0.00  0.00    -0.027 C 
ATOM      5  C   LIG A   1      -3.880   3.207 128.840  0.00  0.00    +0.028 C 
ATOM      6  C   LIG A   1      -2.882   4.244 129.353  0.00  0.00    +0.011 C 
ATOM      7  C   LIG A   1      -6.641   3.960 131.425  0.00  0.00    +0.070 C 
ATOM      8  C   LIG A   1      -7.918   4.677 131.112  0.00  0.00    +0.010 C 
ATOM      9  C   LIG A   1      -8.012   6.015 131.148  0.00  0.00    -0.040 C 
ATOM     10  C   LIG A   1      -9.249   6.712 130.870  0.00  0.00    +0.011 C 
ATOM     11  C   LIG A   1     -10.397   6.109 130.517  0.00  0.00    +0.006 C 
ATOM     12  C   LIG A   1     -10.395   4.622 130.400  0.00  0.00    +0.229 C 
ATOM     13  O   LIG A   1     -11.378   3.999 130.020  0.00  0.00    -0.283 OA
ATOM     14  C   LIG A   1      -9.120   3.872 130.778  0.00  0.00    +0.229 C 
ATOM     15  O   LIG A   1      -9.110   2.649 130.809  0.00  0.00    -0.283 OA
ATOM     16  C   LIG A   1      -6.795   6.840 131.478  0.00  0.00    +0.036 C 
ATOM     17  C   LIG A   1      -5.775   6.854 130.342  0.00  0.00    +0.013 C 
ATOM     18  C   LIG A   1      -3.022   6.719 128.948  0.00  0.00    +0.011 C 
ATOM     19  C   LIG A   1      -2.986   5.842 131.296  0.00  0.00    +0.011 C 
ENDROOT
BRANCH  11  20
ATOM     20  C   LIG A   1     -11.669   6.887 130.243  0.00  0.00    +0.017 C 
ATOM     21  C   LIG A   1     -12.446   7.211 131.521  0.00  0.00    +0.012 C 
ATOM     22  C   LIG A   1     -11.417   8.147 129.410  0.00  0.00    +0.012 C 
ENDBRANCH  11  20
TORSDOF 1
ENDMDL
MODEL 8
REMARK VINA RESULT:      -7.2      2.119      2.886
REMARK  Name = NuBBE_2375
REMARK  5 active torsions:
REMARK  status: ('A' for Active; 'I' for Inactive)
REMARK    1  A    between atoms: C_1  and  C_22
REMARK    2  A    between atoms: C_1  and  C_23
REMARK    3  A    between atoms: C_12  and  C_13
REMARK    4  A    between atoms: C_13  and  C_14
REMARK    5  A    between atoms: C_13  and  C_15
REMARK                            x       y       z     vdW  Elec       q    Type
REMARK                         _______ _______ _______ _____ _____    ______ ____
ROOT
ATOM      1  C   LIG A   1      -7.240  -2.625 129.151  0.00  0.00    -0.028 C 
ATOM      2  C   LIG A   1      -6.568  -1.383 128.432  0.00  0.00    +0.021 C 
ATOM      3  C   LIG A   1      -7.608  -0.633 127.590  0.00  0.00    -0.065 C 
ATOM      4  C   LIG A   1      -8.372  -1.375 126.762  0.00  0.00    -0.027 C 
ATOM      5  C   LIG A   1      -8.288  -2.867 126.771  0.00  0.00    +0.028 C 
ATOM      6  C   LIG A   1      -8.244  -3.379 128.210  0.00  0.00    +0.011 C 
ATOM      7  C   LIG A   1      -7.808   0.861 127.632  0.00  0.00    +0.070 C 
ATOM      8  C   LIG A   1      -6.547   1.629 127.387  0.00  0.00    +0.010 C 
ATOM      9  C   LIG A   1      -5.545   1.659 128.279  0.00  0.00    -0.040 C 
ATOM     10  C   LIG A   1      -4.334   2.419 128.057  0.00  0.00    +0.011 C 
ATOM     11  C   LIG A   1      -4.074   3.126 126.945  0.00  0.00    +0.006 C 
ATOM     12  C   LIG A   1      -5.102   3.125 125.863  0.00  0.00    +0.229 C 
ATOM     13  O   LIG A   1      -4.918   3.688 124.792  0.00  0.00    -0.283 OA
ATOM     14  C   LIG A   1      -6.420   2.401 126.124  0.00  0.00    +0.229 C 
ATOM     15  O   LIG A   1      -7.334   2.473 125.314  0.00  0.00    -0.283 OA
ATOM     16  C   LIG A   1      -5.662   0.873 129.559  0.00  0.00    +0.036 C 
ATOM     17  C   LIG A   1      -5.533  -0.631 129.332  0.00  0.00    +0.013 C 
ATOM     18  C   LIG A   1      -6.165  -3.643 129.595  0.00  0.00    +0.011 C 
ATOM     19  C   LIG A   1      -8.022  -2.169 130.405  0.00  0.00    +0.011 C 
ENDROOT
BRANCH  11  20
ATOM     20  C   LIG A   1      -2.790   3.912 126.766  0.00  0.00    +0.017 C 
ATOM     21  C   LIG A   1      -2.553   4.914 127.897  0.00  0.00    +0.012 C 
ATOM     22  C   LIG A   1      -1.573   3.006 126.560  0.00  0.00    +0.012 C 
ENDBRANCH  11  20
TORSDOF 1
ENDMDL
MODEL 9
REMARK VINA RESULT:      -7.2      5.978      8.741
REMARK  Name = NuBBE_2375
REMARK  5 active torsions:
REMARK  status: ('A' for Active; 'I' for Inactive)
REMARK    1  A    between atoms: C_1  and  C_22
REMARK    2  A    between atoms: C_1  and  C_23
REMARK    3  A    between atoms: C_12  and  C_13
REMARK    4  A    between atoms: C_13  and  C_14
REMARK    5  A    between atoms: C_13  and  C_15
REMARK                            x       y       z     vdW  Elec       q    Type
REMARK                         _______ _______ _______ _____ _____    ______ ____
ROOT
ATOM      1  C   LIG A   1      -8.307   5.717 132.083  0.00  0.00    -0.028 C 
ATOM      2  C   LIG A   1      -8.042   4.217 131.646  0.00  0.00    +0.021 C 
ATOM      3  C   LIG A   1      -8.830   3.257 132.545  0.00  0.00    -0.065 C 
ATOM      4  C   LIG A   1      -8.728   3.447 133.877  0.00  0.00    -0.027 C 
ATOM      5  C   LIG A   1      -7.983   4.619 134.430  0.00  0.00    +0.028 C 
ATOM      6  C   LIG A   1      -8.335   5.880 133.643  0.00  0.00    +0.011 C 
ATOM      7  C   LIG A   1      -9.688   2.130 132.028  0.00  0.00    +0.070 C 
ATOM      8  C   LIG A   1      -8.953   1.210 131.104  0.00  0.00    +0.010 C 
ATOM      9  C   LIG A   1      -8.571   1.589 129.874  0.00  0.00    -0.040 C 
ATOM     10  C   LIG A   1      -7.882   0.698 128.967  0.00  0.00    +0.011 C 
ATOM     11  C   LIG A   1      -7.523  -0.562 129.268  0.00  0.00    +0.006 C 
ATOM     12  C   LIG A   1      -7.855  -1.075 130.630  0.00  0.00    +0.229 C 
ATOM     13  O   LIG A   1      -7.508  -2.186 131.007  0.00  0.00    -0.283 OA
ATOM     14  C   LIG A   1      -8.662  -0.173 131.561  0.00  0.00    +0.229 C 
ATOM     15  O   LIG A   1      -9.056  -0.595 132.639  0.00  0.00    -0.283 OA
ATOM     16  C   LIG A   1      -8.855   2.993 129.405  0.00  0.00    +0.036 C 
ATOM     17  C   LIG A   1      -7.969   4.027 130.095  0.00  0.00    +0.013 C 
ATOM     18  C   LIG A   1      -7.196   6.646 131.540  0.00  0.00    +0.011 C 
ATOM     19  C   LIG A   1      -9.664   6.212 131.532  0.00  0.00    +0.011 C 
ENDROOT
BRANCH  11  20
ATOM     20  C   LIG A   1      -6.807  -1.458 128.278  0.00  0.00    +0.017 C 
ATOM     21  C   LIG A   1      -7.769  -2.153 127.312  0.00  0.00    +0.012 C 
ATOM     22  C   LIG A   1      -5.694  -0.726 127.524  0.00  0.00    +0.012 C 
ENDBRANCH  11  20
TORSDOF 1
ENDMDL
