MODEL 1
REMARK VINA RESULT:      -9.4      0.000      0.000
REMARK  Name = NuBBE_681
REMARK  17 active torsions:
REMARK  status: ('A' for Active; 'I' for Inactive)
REMARK    1  A    between atoms: C_1  and  C_2
REMARK    2  A    between atoms: C_2  and  C_3
REMARK    3  A    between atoms: C_3  and  C_5
REMARK    4  A    between atoms: C_3  and  C_6
REMARK    5  A    between atoms: C_7  and  C_8
REMARK    6  A    between atoms: C_14  and  C_16
REMARK    7  A    between atoms: C_21  and  C_22
REMARK    8  A    between atoms: C_22  and  C_23
REMARK    9  A    between atoms: C_23  and  C_25
REMARK   10  A    between atoms: C_23  and  C_26
REMARK   11  A    between atoms: C_26  and  O_28
REMARK   12  A    between atoms: C_26  and  C_41
REMARK   13  A    between atoms: O_28  and  C_29
REMARK   14  A    between atoms: C_29  and  C_30
REMARK   15  A    between atoms: C_30  and  O_31
REMARK   16  A    between atoms: C_30  and  C_34
REMARK   17  A    between atoms: O_31  and  C_32
REMARK                            x       y       z     vdW  Elec       q    Type
REMARK                         _______ _______ _______ _____ _____    ______ ____
ROOT
ATOM      1  C   LIG A   1      -9.518   6.086 129.686  0.00  0.00    +0.128 C 
ATOM      2  C   LIG A   1      -8.738   6.565 130.665  0.00  0.00    +0.055 C 
ATOM      3  C   LIG A   1      -7.480   5.948 130.820  0.00  0.00    -0.008 C 
ATOM      4  C   LIG A   1      -6.796   6.174 131.957  0.00  0.00    +0.059 C 
ATOM      5  C   LIG A   1      -5.683   5.291 132.199  0.00  0.00    +0.204 C 
ATOM      6  C   LIG A   1      -5.558   4.143 131.202  0.00  0.00    +0.199 C 
ATOM      7  O   LIG A   1      -4.179   4.239 131.063  0.00  0.00    -0.442 OA
ATOM      8  C   LIG A   1      -6.047   2.787 131.725  0.00  0.00    +0.070 C 
ATOM      9  C   LIG A   1      -5.786   4.494 129.804  0.00  0.00    +0.031 C 
ATOM     10  C   LIG A   1      -7.059   5.032 129.740  0.00  0.00    +0.025 C 
ATOM     11  C   LIG A   1      -7.905   4.625 128.798  0.00  0.00    +0.204 C 
ATOM     12  O   LIG A   1      -9.181   5.088 128.774  0.00  0.00    -0.463 OA
ATOM     13  C   LIG A   1      -4.716   4.698 129.023  0.00  0.00    +0.110 C 
ATOM     14  C   LIG A   1      -3.814   4.929 130.023  0.00  0.00    +0.344 C 
ATOM     15  O   LIG A   1      -2.676   5.535 129.939  0.00  0.00    -0.245 OA
ATOM     16  O   LIG A   1      -4.905   5.549 133.128  0.00  0.00    -0.288 OA
ENDROOT
BRANCH   1  18
ATOM     17  C   LIG A   1     -11.026   7.774 128.867  0.00  0.00    -0.020 C 
ATOM     18  C   LIG A   1     -10.809   6.598 129.463  0.00  0.00    +0.042 C 
BRANCH  17  19
ATOM     19  C   LIG A   1     -12.377   8.415 128.729  0.00  0.00    +0.008 C 
ATOM     20  C   LIG A   1     -13.372   7.354 128.265  0.00  0.00    +0.012 C 
BRANCH  19  22
ATOM     21  C   LIG A   1     -13.369  10.551 129.756  0.00  0.00    +0.004 C 
ATOM     22  C   LIG A   1     -12.859   9.140 130.004  0.00  0.00    +0.004 C 
ENDBRANCH  19  22
ENDBRANCH  17  19
ENDBRANCH   1  18
BRANCH  13  23
ATOM     23  C   LIG A   1      -4.469   5.002 127.591  0.00  0.00    +0.177 C 
ATOM     24  O   LIG A   1      -4.462   6.176 127.295  0.00  0.00    -0.291 OA
BRANCH  23  25
ATOM     25  C   LIG A   1      -4.478   3.835 126.501  0.00  0.00    +0.098 C 
ATOM     26  C   LIG A   1      -3.643   2.726 127.185  0.00  0.00    +0.020 C 
BRANCH  25  27
ATOM     27  C   LIG A   1      -5.751   3.168 125.891  0.00  0.00    +0.184 C 
ATOM     28  C   LIG A   1      -6.401   2.101 126.778  0.00  0.00    +0.052 C 
BRANCH  27  29
ATOM     29  O   LIG A   1      -6.800   3.991 125.309  0.00  0.00    -0.459 OA
BRANCH  29  30
ATOM     30  C   LIG A   1      -7.906   3.457 124.770  0.00  0.00    +0.341 C 
ATOM     31  O   LIG A   1      -8.987   3.755 125.272  0.00  0.00    -0.247 OA
BRANCH  30  32
ATOM     32  C   LIG A   1      -7.695   2.509 123.443  0.00  0.00    +0.256 C 
BRANCH  32  33
ATOM     33  C   LIG A   1      -7.302   3.205 122.178  0.00  0.00    -0.008 A 
ATOM     34  C   LIG A   1      -8.199   3.549 121.183  0.00  0.00    +0.007 A 
ATOM     35  C   LIG A   1      -7.866   4.105 119.983  0.00  0.00    +0.000 A 
ATOM     36  C   LIG A   1      -6.548   4.407 119.784  0.00  0.00    +0.000 A 
ATOM     37  C   LIG A   1      -5.605   4.147 120.783  0.00  0.00    +0.000 A 
ATOM     38  C   LIG A   1      -5.971   3.540 121.973  0.00  0.00    +0.007 A 
ENDBRANCH  32  33
BRANCH  32  39
ATOM     39  O   LIG A   1      -6.979   1.279 123.307  0.00  0.00    -0.364 OA
ATOM     40  C   LIG A   1      -7.699   0.249 123.890  0.00  0.00    +0.195 C 
ENDBRANCH  32  39
ENDBRANCH  30  32
ENDBRANCH  29  30
ENDBRANCH  27  29
ENDBRANCH  25  27
ENDBRANCH  23  25
ENDBRANCH  13  23
TORSDOF 11
ENDMDL
MODEL 2
REMARK VINA RESULT:      -9.2      4.084      9.174
REMARK  Name = NuBBE_681
REMARK  17 active torsions:
REMARK  status: ('A' for Active; 'I' for Inactive)
REMARK    1  A    between atoms: C_1  and  C_2
REMARK    2  A    between atoms: C_2  and  C_3
REMARK    3  A    between atoms: C_3  and  C_5
REMARK    4  A    between atoms: C_3  and  C_6
REMARK    5  A    between atoms: C_7  and  C_8
REMARK    6  A    between atoms: C_14  and  C_16
REMARK    7  A    between atoms: C_21  and  C_22
REMARK    8  A    between atoms: C_22  and  C_23
REMARK    9  A    between atoms: C_23  and  C_25
REMARK   10  A    between atoms: C_23  and  C_26
REMARK   11  A    between atoms: C_26  and  O_28
REMARK   12  A    between atoms: C_26  and  C_41
REMARK   13  A    between atoms: O_28  and  C_29
REMARK   14  A    between atoms: C_29  and  C_30
REMARK   15  A    between atoms: C_30  and  O_31
REMARK   16  A    between atoms: C_30  and  C_34
REMARK   17  A    between atoms: O_31  and  C_32
REMARK                            x       y       z     vdW  Elec       q    Type
REMARK                         _______ _______ _______ _____ _____    ______ ____
ROOT
ATOM      1  C   LIG A   1      -7.979  -2.167 127.245  0.00  0.00    +0.128 C 
ATOM      2  C   LIG A   1      -7.751  -3.198 128.072  0.00  0.00    +0.055 C 
ATOM      3  C   LIG A   1      -7.201  -2.878 129.330  0.00  0.00    -0.008 C 
ATOM      4  C   LIG A   1      -6.675  -3.876 130.065  0.00  0.00    +0.059 C 
ATOM      5  C   LIG A   1      -5.861  -3.462 131.180  0.00  0.00    +0.204 C 
ATOM      6  C   LIG A   1      -5.600  -1.961 131.251  0.00  0.00    +0.199 C 
ATOM      7  O   LIG A   1      -5.792  -1.859 132.624  0.00  0.00    -0.442 OA
ATOM      8  C   LIG A   1      -4.207  -1.531 130.774  0.00  0.00    +0.070 C 
ATOM      9  C   LIG A   1      -6.748  -1.107 130.965  0.00  0.00    +0.031 C 
ATOM     10  C   LIG A   1      -7.178  -1.447 129.695  0.00  0.00    +0.025 C 
ATOM     11  C   LIG A   1      -7.437  -0.494 128.805  0.00  0.00    +0.204 C 
ATOM     12  O   LIG A   1      -7.785  -0.818 127.533  0.00  0.00    -0.463 OA
ATOM     13  C   LIG A   1      -7.421  -0.587 132.000  0.00  0.00    +0.110 C 
ATOM     14  C   LIG A   1      -6.990  -1.473 132.948  0.00  0.00    +0.344 C 
ATOM     15  O   LIG A   1      -7.537  -1.744 134.086  0.00  0.00    -0.245 OA
ATOM     16  O   LIG A   1      -5.493  -4.314 132.002  0.00  0.00    -0.288 OA
ENDROOT
BRANCH   1  18
ATOM     17  C   LIG A   1      -7.808  -3.016 125.000  0.00  0.00    -0.020 C 
ATOM     18  C   LIG A   1      -8.489  -2.368 125.950  0.00  0.00    +0.042 C 
BRANCH  17  19
ATOM     19  C   LIG A   1      -8.258  -3.137 123.571  0.00  0.00    +0.008 C 
ATOM     20  C   LIG A   1      -9.760  -3.412 123.557  0.00  0.00    +0.012 C 
BRANCH  19  22
ATOM     21  C   LIG A   1      -6.602  -1.224 123.120  0.00  0.00    +0.004 C 
ATOM     22  C   LIG A   1      -7.885  -1.922 122.694  0.00  0.00    +0.004 C 
ENDBRANCH  19  22
ENDBRANCH  17  19
ENDBRANCH   1  18
BRANCH  13  23
ATOM     23  C   LIG A   1      -8.563   0.342 132.187  0.00  0.00    +0.177 C 
ATOM     24  O   LIG A   1      -9.625  -0.032 131.738  0.00  0.00    -0.291 OA
BRANCH  23  25
ATOM     25  C   LIG A   1      -8.321   1.831 132.710  0.00  0.00    +0.098 C 
ATOM     26  C   LIG A   1      -6.856   2.102 132.295  0.00  0.00    +0.020 C 
BRANCH  25  27
ATOM     27  C   LIG A   1      -9.169   3.082 132.320  0.00  0.00    +0.184 C 
ATOM     28  C   LIG A   1      -9.279   4.147 133.417  0.00  0.00    +0.052 C 
BRANCH  27  29
ATOM     29  O   LIG A   1      -8.947   3.749 131.045  0.00  0.00    -0.459 OA
BRANCH  29  30
ATOM     30  C   LIG A   1      -9.871   4.545 130.489  0.00  0.00    +0.341 C 
ATOM     31  O   LIG A   1     -10.943   4.038 130.168  0.00  0.00    -0.247 OA
BRANCH  30  32
ATOM     32  C   LIG A   1      -9.489   6.140 130.361  0.00  0.00    +0.256 C 
BRANCH  32  33
ATOM     33  C   LIG A   1     -10.562   7.047 129.846  0.00  0.00    -0.008 A 
ATOM     34  C   LIG A   1     -10.510   7.672 128.614  0.00  0.00    +0.007 A 
ATOM     35  C   LIG A   1     -11.425   8.571 128.149  0.00  0.00    +0.000 A 
ATOM     36  C   LIG A   1     -12.513   8.812 128.940  0.00  0.00    +0.000 A 
ATOM     37  C   LIG A   1     -12.656   8.155 130.166  0.00  0.00    +0.000 A 
ATOM     38  C   LIG A   1     -11.684   7.282 130.628  0.00  0.00    +0.007 A 
ENDBRANCH  32  33
BRANCH  32  39
ATOM     39  O   LIG A   1      -8.840   6.998 131.302  0.00  0.00    -0.364 OA
ATOM     40  C   LIG A   1      -7.466   6.903 131.153  0.00  0.00    +0.195 C 
ENDBRANCH  32  39
ENDBRANCH  30  32
ENDBRANCH  29  30
ENDBRANCH  27  29
ENDBRANCH  25  27
ENDBRANCH  23  25
ENDBRANCH  13  23
TORSDOF 11
ENDMDL
MODEL 3
REMARK VINA RESULT:      -9.2      2.209      4.018
REMARK  Name = NuBBE_681
REMARK  17 active torsions:
REMARK  status: ('A' for Active; 'I' for Inactive)
REMARK    1  A    between atoms: C_1  and  C_2
REMARK    2  A    between atoms: C_2  and  C_3
REMARK    3  A    between atoms: C_3  and  C_5
REMARK    4  A    between atoms: C_3  and  C_6
REMARK    5  A    between atoms: C_7  and  C_8
REMARK    6  A    between atoms: C_14  and  C_16
REMARK    7  A    between atoms: C_21  and  C_22
REMARK    8  A    between atoms: C_22  and  C_23
REMARK    9  A    between atoms: C_23  and  C_25
REMARK   10  A    between atoms: C_23  and  C_26
REMARK   11  A    between atoms: C_26  and  O_28
REMARK   12  A    between atoms: C_26  and  C_41
REMARK   13  A    between atoms: O_28  and  C_29
REMARK   14  A    between atoms: C_29  and  C_30
REMARK   15  A    between atoms: C_30  and  O_31
REMARK   16  A    between atoms: C_30  and  C_34
REMARK   17  A    between atoms: O_31  and  C_32
REMARK                            x       y       z     vdW  Elec       q    Type
REMARK                         _______ _______ _______ _____ _____    ______ ____
ROOT
ATOM      1  C   LIG A   1      -9.757   6.553 130.025  0.00  0.00    +0.128 C 
ATOM      2  C   LIG A   1      -8.764   6.933 130.841  0.00  0.00    +0.055 C 
ATOM      3  C   LIG A   1      -7.653   6.068 130.916  0.00  0.00    -0.008 C 
ATOM      4  C   LIG A   1      -6.783   6.238 131.929  0.00  0.00    +0.059 C 
ATOM      5  C   LIG A   1      -5.855   5.155 132.138  0.00  0.00    +0.204 C 
ATOM      6  C   LIG A   1      -6.114   3.924 131.275  0.00  0.00    +0.199 C 
ATOM      7  O   LIG A   1      -4.778   3.699 130.963  0.00  0.00    -0.442 OA
ATOM      8  C   LIG A   1      -6.795   2.761 132.009  0.00  0.00    +0.070 C 
ATOM      9  C   LIG A   1      -6.460   4.190 129.883  0.00  0.00    +0.031 C 
ATOM     10  C   LIG A   1      -7.589   4.989 129.909  0.00  0.00    +0.025 C 
ATOM     11  C   LIG A   1      -8.626   4.697 129.129  0.00  0.00    +0.204 C 
ATOM     12  O   LIG A   1      -9.768   5.428 129.203  0.00  0.00    -0.463 OA
ATOM     13  C   LIG A   1      -5.493   4.082 128.961  0.00  0.00    +0.110 C 
ATOM     14  C   LIG A   1      -4.430   4.196 129.812  0.00  0.00    +0.344 C 
ATOM     15  O   LIG A   1      -3.215   4.524 129.523  0.00  0.00    -0.245 OA
ATOM     16  O   LIG A   1      -4.916   5.315 132.931  0.00  0.00    -0.288 OA
ENDROOT
BRANCH   1  18
ATOM     17  C   LIG A   1     -11.317   7.862 128.742  0.00  0.00    -0.020 C 
ATOM     18  C   LIG A   1     -10.932   7.316 129.899  0.00  0.00    +0.042 C 
BRANCH  17  19
ATOM     19  C   LIG A   1     -12.489   8.790 128.593  0.00  0.00    +0.008 C 
ATOM     20  C   LIG A   1     -13.638   8.020 127.946  0.00  0.00    +0.012 C 
BRANCH  19  22
ATOM     21  C   LIG A   1     -13.500  10.863 129.725  0.00  0.00    +0.004 C 
ATOM     22  C   LIG A   1     -12.921   9.469 129.911  0.00  0.00    +0.004 C 
ENDBRANCH  19  22
ENDBRANCH  17  19
ENDBRANCH   1  18
BRANCH  13  23
ATOM     23  C   LIG A   1      -5.394   4.195 127.485  0.00  0.00    +0.177 C 
ATOM     24  O   LIG A   1      -5.117   5.294 127.057  0.00  0.00    -0.291 OA
BRANCH  23  25
ATOM     25  C   LIG A   1      -5.880   2.999 126.546  0.00  0.00    +0.098 C 
ATOM     26  C   LIG A   1      -5.448   1.745 127.342  0.00  0.00    +0.020 C 
BRANCH  25  27
ATOM     27  C   LIG A   1      -7.342   2.769 126.047  0.00  0.00    +0.184 C 
ATOM     28  C   LIG A   1      -8.000   3.997 125.409  0.00  0.00    +0.052 C 
BRANCH  27  29
ATOM     29  O   LIG A   1      -7.667   1.598 125.246  0.00  0.00    -0.459 OA
BRANCH  29  30
ATOM     30  C   LIG A   1      -8.576   0.696 125.642  0.00  0.00    +0.341 C 
ATOM     31  O   LIG A   1      -9.636   1.116 126.100  0.00  0.00    -0.247 OA
BRANCH  30  32
ATOM     32  C   LIG A   1      -8.198  -0.887 125.402  0.00  0.00    +0.256 C 
BRANCH  32  33
ATOM     33  C   LIG A   1      -8.221  -1.772 126.608  0.00  0.00    -0.008 A 
ATOM     34  C   LIG A   1      -8.802  -3.027 126.625  0.00  0.00    +0.007 A 
ATOM     35  C   LIG A   1      -8.919  -3.824 127.726  0.00  0.00    +0.000 A 
ATOM     36  C   LIG A   1      -8.351  -3.370 128.883  0.00  0.00    +0.000 A 
ATOM     37  C   LIG A   1      -7.686  -2.139 128.909  0.00  0.00    +0.000 A 
ATOM     38  C   LIG A   1      -7.627  -1.334 127.782  0.00  0.00    +0.007 A 
ENDBRANCH  32  33
BRANCH  32  39
ATOM     39  O   LIG A   1      -8.660  -1.791 124.395  0.00  0.00    -0.364 OA
ATOM     40  C   LIG A   1      -9.033  -1.083 123.264  0.00  0.00    +0.195 C 
ENDBRANCH  32  39
ENDBRANCH  30  32
ENDBRANCH  29  30
ENDBRANCH  27  29
ENDBRANCH  25  27
ENDBRANCH  23  25
ENDBRANCH  13  23
TORSDOF 11
ENDMDL
MODEL 4
REMARK VINA RESULT:      -9.0      3.584      7.024
REMARK  Name = NuBBE_681
REMARK  17 active torsions:
REMARK  status: ('A' for Active; 'I' for Inactive)
REMARK    1  A    between atoms: C_1  and  C_2
REMARK    2  A    between atoms: C_2  and  C_3
REMARK    3  A    between atoms: C_3  and  C_5
REMARK    4  A    between atoms: C_3  and  C_6
REMARK    5  A    between atoms: C_7  and  C_8
REMARK    6  A    between atoms: C_14  and  C_16
REMARK    7  A    between atoms: C_21  and  C_22
REMARK    8  A    between atoms: C_22  and  C_23
REMARK    9  A    between atoms: C_23  and  C_25
REMARK   10  A    between atoms: C_23  and  C_26
REMARK   11  A    between atoms: C_26  and  O_28
REMARK   12  A    between atoms: C_26  and  C_41
REMARK   13  A    between atoms: O_28  and  C_29
REMARK   14  A    between atoms: C_29  and  C_30
REMARK   15  A    between atoms: C_30  and  O_31
REMARK   16  A    between atoms: C_30  and  C_34
REMARK   17  A    between atoms: O_31  and  C_32
REMARK                            x       y       z     vdW  Elec       q    Type
REMARK                         _______ _______ _______ _____ _____    ______ ____
ROOT
ATOM      1  C   LIG A   1      -6.405  -1.070 127.166  0.00  0.00    +0.128 C 
ATOM      2  C   LIG A   1      -7.322  -1.091 128.144  0.00  0.00    +0.055 C 
ATOM      3  C   LIG A   1      -7.140  -0.165 129.191  0.00  0.00    -0.008 C 
ATOM      4  C   LIG A   1      -7.839  -0.344 130.327  0.00  0.00    +0.059 C 
ATOM      5  C   LIG A   1      -7.394   0.429 131.458  0.00  0.00    +0.204 C 
ATOM      6  C   LIG A   1      -6.103   1.208 131.225  0.00  0.00    +0.199 C 
ATOM      7  O   LIG A   1      -6.536   2.370 131.852  0.00  0.00    -0.442 OA
ATOM      8  C   LIG A   1      -4.854   0.578 131.853  0.00  0.00    +0.070 C 
ATOM      9  C   LIG A   1      -5.994   1.873 129.930  0.00  0.00    +0.031 C 
ATOM     10  C   LIG A   1      -6.123   0.884 128.972  0.00  0.00    +0.025 C 
ATOM     11  C   LIG A   1      -5.263   0.826 127.959  0.00  0.00    +0.204 C 
ATOM     12  O   LIG A   1      -5.334  -0.187 127.056  0.00  0.00    -0.463 OA
ATOM     13  C   LIG A   1      -6.270   3.183 129.869  0.00  0.00    +0.110 C 
ATOM     14  C   LIG A   1      -6.998   3.260 131.023  0.00  0.00    +0.344 C 
ATOM     15  O   LIG A   1      -7.849   4.170 131.365  0.00  0.00    -0.245 OA
ATOM     16  O   LIG A   1      -8.094   0.451 132.481  0.00  0.00    -0.288 OA
ENDROOT
BRANCH   1  18
ATOM     17  C   LIG A   1      -5.623  -1.914 125.052  0.00  0.00    -0.020 C 
ATOM     18  C   LIG A   1      -6.462  -1.975 126.090  0.00  0.00    +0.042 C 
BRANCH  17  19
ATOM     19  C   LIG A   1      -5.733  -2.773 123.825  0.00  0.00    +0.008 C 
ATOM     20  C   LIG A   1      -6.349  -1.940 122.703  0.00  0.00    +0.012 C 
BRANCH  19  22
ATOM     21  C   LIG A   1      -4.367  -4.934 123.570  0.00  0.00    +0.004 C 
ATOM     22  C   LIG A   1      -4.400  -3.423 123.395  0.00  0.00    +0.004 C 
ENDBRANCH  19  22
ENDBRANCH  17  19
ENDBRANCH   1  18
BRANCH  13  23
ATOM     23  C   LIG A   1      -6.239   4.244 128.832  0.00  0.00    +0.177 C 
ATOM     24  O   LIG A   1      -7.303   4.510 128.318  0.00  0.00    -0.291 OA
BRANCH  23  25
ATOM     25  C   LIG A   1      -4.847   4.791 128.272  0.00  0.00    +0.098 C 
ATOM     26  C   LIG A   1      -3.852   4.392 129.388  0.00  0.00    +0.020 C 
BRANCH  25  27
ATOM     27  C   LIG A   1      -4.205   4.411 126.901  0.00  0.00    +0.184 C 
ATOM     28  C   LIG A   1      -2.758   3.913 126.989  0.00  0.00    +0.052 C 
BRANCH  27  29
ATOM     29  O   LIG A   1      -4.930   3.568 125.961  0.00  0.00    -0.459 OA
BRANCH  29  30
ATOM     30  C   LIG A   1      -5.802   4.075 125.078  0.00  0.00    +0.341 C 
ATOM     31  O   LIG A   1      -5.984   5.290 125.089  0.00  0.00    -0.247 OA
BRANCH  30  32
ATOM     32  C   LIG A   1      -6.483   3.013 124.023  0.00  0.00    +0.256 C 
BRANCH  32  33
ATOM     33  C   LIG A   1      -7.539   2.107 124.571  0.00  0.00    -0.008 A 
ATOM     34  C   LIG A   1      -8.104   2.260 125.824  0.00  0.00    +0.007 A 
ATOM     35  C   LIG A   1      -9.004   1.405 126.390  0.00  0.00    +0.000 A 
ATOM     36  C   LIG A   1      -9.430   0.356 125.624  0.00  0.00    +0.000 A 
ATOM     37  C   LIG A   1      -8.947   0.191 124.322  0.00  0.00    +0.000 A 
ATOM     38  C   LIG A   1      -7.998   1.053 123.795  0.00  0.00    +0.007 A 
ENDBRANCH  32  33
BRANCH  32  39
ATOM     39  O   LIG A   1      -6.980   3.237 122.701  0.00  0.00    -0.364 OA
ATOM     40  C   LIG A   1      -5.937   3.587 121.860  0.00  0.00    +0.195 C 
ENDBRANCH  32  39
ENDBRANCH  30  32
ENDBRANCH  29  30
ENDBRANCH  27  29
ENDBRANCH  25  27
ENDBRANCH  23  25
ENDBRANCH  13  23
TORSDOF 11
ENDMDL
MODEL 5
REMARK VINA RESULT:      -9.0      2.499      4.200
REMARK  Name = NuBBE_681
REMARK  17 active torsions:
REMARK  status: ('A' for Active; 'I' for Inactive)
REMARK    1  A    between atoms: C_1  and  C_2
REMARK    2  A    between atoms: C_2  and  C_3
REMARK    3  A    between atoms: C_3  and  C_5
REMARK    4  A    between atoms: C_3  and  C_6
REMARK    5  A    between atoms: C_7  and  C_8
REMARK    6  A    between atoms: C_14  and  C_16
REMARK    7  A    between atoms: C_21  and  C_22
REMARK    8  A    between atoms: C_22  and  C_23
REMARK    9  A    between atoms: C_23  and  C_25
REMARK   10  A    between atoms: C_23  and  C_26
REMARK   11  A    between atoms: C_26  and  O_28
REMARK   12  A    between atoms: C_26  and  C_41
REMARK   13  A    between atoms: O_28  and  C_29
REMARK   14  A    between atoms: C_29  and  C_30
REMARK   15  A    between atoms: C_30  and  O_31
REMARK   16  A    between atoms: C_30  and  C_34
REMARK   17  A    between atoms: O_31  and  C_32
REMARK                            x       y       z     vdW  Elec       q    Type
REMARK                         _______ _______ _______ _____ _____    ______ ____
ROOT
ATOM      1  C   LIG A   1      -9.891   6.329 131.549  0.00  0.00    +0.128 C 
ATOM      2  C   LIG A   1      -8.799   6.824 130.948  0.00  0.00    +0.055 C 
ATOM      3  C   LIG A   1      -7.566   6.262 131.336  0.00  0.00    -0.008 C 
ATOM      4  C   LIG A   1      -6.437   6.915 131.002  0.00  0.00    +0.059 C 
ATOM      5  C   LIG A   1      -5.242   6.475 131.677  0.00  0.00    +0.204 C 
ATOM      6  C   LIG A   1      -5.479   5.445 132.777  0.00  0.00    +0.199 C 
ATOM      7  O   LIG A   1      -4.399   4.639 132.438  0.00  0.00    -0.442 OA
ATOM      8  C   LIG A   1      -5.425   6.008 134.203  0.00  0.00    +0.070 C 
ATOM      9  C   LIG A   1      -6.442   4.394 132.460  0.00  0.00    +0.031 C 
ATOM     10  C   LIG A   1      -7.629   5.034 132.154  0.00  0.00    +0.025 C 
ATOM     11  C   LIG A   1      -8.768   4.612 132.696  0.00  0.00    +0.204 C 
ATOM     12  O   LIG A   1      -9.928   5.280 132.465  0.00  0.00    -0.463 OA
ATOM     13  C   LIG A   1      -5.968   3.204 132.064  0.00  0.00    +0.110 C 
ATOM     14  C   LIG A   1      -4.726   3.630 131.686  0.00  0.00    +0.344 C 
ATOM     15  O   LIG A   1      -3.896   3.044 130.889  0.00  0.00    -0.245 OA
ATOM     16  O   LIG A   1      -4.145   6.905 131.294  0.00  0.00    -0.288 OA
ENDROOT
BRANCH   1  18
ATOM     17  C   LIG A   1     -11.666   6.912 130.032  0.00  0.00    -0.020 C 
ATOM     18  C   LIG A   1     -11.172   6.839 131.271  0.00  0.00    +0.042 C 
BRANCH  17  19
ATOM     19  C   LIG A   1     -12.970   7.569 129.679  0.00  0.00    +0.008 C 
ATOM     20  C   LIG A   1     -12.738   9.073 129.555  0.00  0.00    +0.012 C 
BRANCH  19  22
ATOM     21  C   LIG A   1     -12.812   7.124 127.153  0.00  0.00    +0.004 C 
ATOM     22  C   LIG A   1     -13.644   6.984 128.419  0.00  0.00    +0.004 C 
ENDBRANCH  19  22
ENDBRANCH  17  19
ENDBRANCH   1  18
BRANCH  13  23
ATOM     23  C   LIG A   1      -6.539   1.881 131.710  0.00  0.00    +0.177 C 
ATOM     24  O   LIG A   1      -6.434   1.018 132.553  0.00  0.00    -0.291 OA
BRANCH  23  25
ATOM     25  C   LIG A   1      -7.015   1.577 130.216  0.00  0.00    +0.098 C 
ATOM     26  C   LIG A   1      -7.732   0.214 130.359  0.00  0.00    +0.020 C 
BRANCH  25  27
ATOM     27  C   LIG A   1      -7.918   2.504 129.342  0.00  0.00    +0.184 C 
ATOM     28  C   LIG A   1      -9.360   2.646 129.841  0.00  0.00    +0.052 C 
BRANCH  27  29
ATOM     29  O   LIG A   1      -7.438   3.813 128.926  0.00  0.00    -0.459 OA
BRANCH  29  30
ATOM     30  C   LIG A   1      -7.581   4.257 127.669  0.00  0.00    +0.341 C 
ATOM     31  O   LIG A   1      -8.476   5.068 127.448  0.00  0.00    -0.247 OA
BRANCH  30  32
ATOM     32  C   LIG A   1      -6.487   3.714 126.567  0.00  0.00    +0.256 C 
BRANCH  32  33
ATOM     33  C   LIG A   1      -5.043   3.850 126.933  0.00  0.00    -0.008 A 
ATOM     34  C   LIG A   1      -4.541   4.888 127.698  0.00  0.00    +0.007 A 
ATOM     35  C   LIG A   1      -3.222   5.092 127.978  0.00  0.00    +0.000 A 
ATOM     36  C   LIG A   1      -2.339   4.152 127.523  0.00  0.00    +0.000 A 
ATOM     37  C   LIG A   1      -2.796   3.042 126.804  0.00  0.00    +0.000 A 
ATOM     38  C   LIG A   1      -4.139   2.891 126.499  0.00  0.00    +0.007 A 
ENDBRANCH  32  33
BRANCH  32  39
ATOM     39  O   LIG A   1      -6.464   2.485 125.837  0.00  0.00    -0.364 OA
ATOM     40  C   LIG A   1      -7.755   2.123 125.487  0.00  0.00    +0.195 C 
ENDBRANCH  32  39
ENDBRANCH  30  32
ENDBRANCH  29  30
ENDBRANCH  27  29
ENDBRANCH  25  27
ENDBRANCH  23  25
ENDBRANCH  13  23
TORSDOF 11
ENDMDL
MODEL 6
REMARK VINA RESULT:      -9.0      2.103      3.710
REMARK  Name = NuBBE_681
REMARK  17 active torsions:
REMARK  status: ('A' for Active; 'I' for Inactive)
REMARK    1  A    between atoms: C_1  and  C_2
REMARK    2  A    between atoms: C_2  and  C_3
REMARK    3  A    between atoms: C_3  and  C_5
REMARK    4  A    between atoms: C_3  and  C_6
REMARK    5  A    between atoms: C_7  and  C_8
REMARK    6  A    between atoms: C_14  and  C_16
REMARK    7  A    between atoms: C_21  and  C_22
REMARK    8  A    between atoms: C_22  and  C_23
REMARK    9  A    between atoms: C_23  and  C_25
REMARK   10  A    between atoms: C_23  and  C_26
REMARK   11  A    between atoms: C_26  and  O_28
REMARK   12  A    between atoms: C_26  and  C_41
REMARK   13  A    between atoms: O_28  and  C_29
REMARK   14  A    between atoms: C_29  and  C_30
REMARK   15  A    between atoms: C_30  and  O_31
REMARK   16  A    between atoms: C_30  and  C_34
REMARK   17  A    between atoms: O_31  and  C_32
REMARK                            x       y       z     vdW  Elec       q    Type
REMARK                         _______ _______ _______ _____ _____    ______ ____
ROOT
ATOM      1  C   LIG A   1     -10.069   6.118 129.590  0.00  0.00    +0.128 C 
ATOM      2  C   LIG A   1      -9.018   6.654 130.226  0.00  0.00    +0.055 C 
ATOM      3  C   LIG A   1      -8.321   5.802 131.107  0.00  0.00    -0.008 C 
ATOM      4  C   LIG A   1      -7.466   6.359 131.986  0.00  0.00    +0.059 C 
ATOM      5  C   LIG A   1      -7.023   5.496 133.052  0.00  0.00    +0.204 C 
ATOM      6  C   LIG A   1      -7.719   4.139 133.099  0.00  0.00    +0.199 C 
ATOM      7  O   LIG A   1      -6.565   3.409 133.358  0.00  0.00    -0.442 OA
ATOM      8  C   LIG A   1      -8.802   4.013 134.178  0.00  0.00    +0.070 C 
ATOM      9  C   LIG A   1      -7.917   3.487 131.808  0.00  0.00    +0.031 C 
ATOM     10  C   LIG A   1      -8.658   4.366 131.038  0.00  0.00    +0.025 C 
ATOM     11  C   LIG A   1      -9.716   3.926 130.364  0.00  0.00    +0.204 C 
ATOM     12  O   LIG A   1     -10.495   4.794 129.667  0.00  0.00    -0.463 OA
ATOM     13  C   LIG A   1      -7.051   2.531 131.446  0.00  0.00    +0.110 C 
ATOM     14  C   LIG A   1      -6.037   2.888 132.290  0.00  0.00    +0.344 C 
ATOM     15  O   LIG A   1      -4.784   2.588 132.194  0.00  0.00    -0.245 OA
ATOM     16  O   LIG A   1      -6.106   5.880 133.791  0.00  0.00    -0.288 OA
ENDROOT
BRANCH   1  18
ATOM     17  C   LIG A   1     -11.737   7.796 129.150  0.00  0.00    -0.020 C 
ATOM     18  C   LIG A   1     -10.863   6.883 128.717  0.00  0.00    +0.042 C 
BRANCH  17  19
ATOM     19  C   LIG A   1     -12.695   8.538 128.263  0.00  0.00    +0.008 C 
ATOM     20  C   LIG A   1     -13.775   7.564 127.795  0.00  0.00    +0.012 C 
BRANCH  19  22
ATOM     21  C   LIG A   1     -13.137   9.854 130.424  0.00  0.00    +0.004 C 
ATOM     22  C   LIG A   1     -13.300   9.801 128.913  0.00  0.00    +0.004 C 
ENDBRANCH  19  22
ENDBRANCH  17  19
ENDBRANCH   1  18
BRANCH  13  23
ATOM     23  C   LIG A   1      -6.895   1.594 130.305  0.00  0.00    +0.177 C 
ATOM     24  O   LIG A   1      -6.961   0.416 130.578  0.00  0.00    -0.291 OA
BRANCH  23  25
ATOM     25  C   LIG A   1      -6.413   2.127 128.879  0.00  0.00    +0.098 C 
ATOM     26  C   LIG A   1      -5.475   0.996 128.393  0.00  0.00    +0.020 C 
BRANCH  25  27
ATOM     27  C   LIG A   1      -7.346   2.518 127.690  0.00  0.00    +0.184 C 
ATOM     28  C   LIG A   1      -8.584   1.629 127.530  0.00  0.00    +0.052 C 
BRANCH  27  29
ATOM     29  O   LIG A   1      -7.742   3.905 127.496  0.00  0.00    -0.459 OA
BRANCH  29  30
ATOM     30  C   LIG A   1      -7.641   4.513 126.305  0.00  0.00    +0.341 C 
ATOM     31  O   LIG A   1      -8.541   5.283 125.979  0.00  0.00    -0.247 OA
BRANCH  30  32
ATOM     32  C   LIG A   1      -6.276   4.212 125.438  0.00  0.00    +0.256 C 
BRANCH  32  33
ATOM     33  C   LIG A   1      -4.982   4.253 126.188  0.00  0.00    -0.008 A 
ATOM     34  C   LIG A   1      -4.664   5.229 127.115  0.00  0.00    +0.007 A 
ATOM     35  C   LIG A   1      -3.464   5.347 127.752  0.00  0.00    +0.000 A 
ATOM     36  C   LIG A   1      -2.533   4.377 127.504  0.00  0.00    +0.000 A 
ATOM     37  C   LIG A   1      -2.824   3.325 126.630  0.00  0.00    +0.000 A 
ATOM     38  C   LIG A   1      -4.037   3.262 125.964  0.00  0.00    +0.007 A 
ENDBRANCH  32  33
BRANCH  32  39
ATOM     39  O   LIG A   1      -6.008   3.172 124.495  0.00  0.00    -0.364 OA
ATOM     40  C   LIG A   1      -7.195   2.730 123.934  0.00  0.00    +0.195 C 
ENDBRANCH  32  39
ENDBRANCH  30  32
ENDBRANCH  29  30
ENDBRANCH  27  29
ENDBRANCH  25  27
ENDBRANCH  23  25
ENDBRANCH  13  23
TORSDOF 11
ENDMDL
MODEL 7
REMARK VINA RESULT:      -8.9      3.791      7.640
REMARK  Name = NuBBE_681
REMARK  17 active torsions:
REMARK  status: ('A' for Active; 'I' for Inactive)
REMARK    1  A    between atoms: C_1  and  C_2
REMARK    2  A    between atoms: C_2  and  C_3
REMARK    3  A    between atoms: C_3  and  C_5
REMARK    4  A    between atoms: C_3  and  C_6
REMARK    5  A    between atoms: C_7  and  C_8
REMARK    6  A    between atoms: C_14  and  C_16
REMARK    7  A    between atoms: C_21  and  C_22
REMARK    8  A    between atoms: C_22  and  C_23
REMARK    9  A    between atoms: C_23  and  C_25
REMARK   10  A    between atoms: C_23  and  C_26
REMARK   11  A    between atoms: C_26  and  O_28
REMARK   12  A    between atoms: C_26  and  C_41
REMARK   13  A    between atoms: O_28  and  C_29
REMARK   14  A    between atoms: C_29  and  C_30
REMARK   15  A    between atoms: C_30  and  O_31
REMARK   16  A    between atoms: C_30  and  C_34
REMARK   17  A    between atoms: O_31  and  C_32
REMARK                            x       y       z     vdW  Elec       q    Type
REMARK                         _______ _______ _______ _____ _____    ______ ____
ROOT
ATOM      1  C   LIG A   1      -7.715  -2.090 127.289  0.00  0.00    +0.128 C 
ATOM      2  C   LIG A   1      -7.923  -2.901 128.337  0.00  0.00    +0.055 C 
ATOM      3  C   LIG A   1      -7.279  -2.543 129.539  0.00  0.00    -0.008 C 
ATOM      4  C   LIG A   1      -7.202  -3.465 130.517  0.00  0.00    +0.059 C 
ATOM      5  C   LIG A   1      -6.280  -3.164 131.583  0.00  0.00    +0.204 C 
ATOM      6  C   LIG A   1      -5.426  -1.922 131.349  0.00  0.00    +0.199 C 
ATOM      7  O   LIG A   1      -5.547  -1.433 132.644  0.00  0.00    -0.442 OA
ATOM      8  C   LIG A   1      -3.983  -2.211 130.915  0.00  0.00    +0.070 C 
ATOM      9  C   LIG A   1      -6.125  -0.773 130.783  0.00  0.00    +0.031 C 
ATOM     10  C   LIG A   1      -6.668  -1.199 129.585  0.00  0.00    +0.025 C 
ATOM     11  C   LIG A   1      -6.521  -0.459 128.490  0.00  0.00    +0.204 C 
ATOM     12  O   LIG A   1      -6.983  -0.905 127.293  0.00  0.00    -0.463 OA
ATOM     13  C   LIG A   1      -6.516   0.200 131.618  0.00  0.00    +0.110 C 
ATOM     14  C   LIG A   1      -6.479  -0.535 132.769  0.00  0.00    +0.344 C 
ATOM     15  O   LIG A   1      -7.078  -0.289 133.887  0.00  0.00    -0.245 OA
ATOM     16  O   LIG A   1      -6.286  -3.874 132.599  0.00  0.00    -0.288 OA
ENDROOT
BRANCH   1  18
ATOM     17  C   LIG A   1      -7.546  -2.808 124.998  0.00  0.00    -0.020 C 
ATOM     18  C   LIG A   1      -8.274  -2.367 126.028  0.00  0.00    +0.042 C 
BRANCH  17  19
ATOM     19  C   LIG A   1      -8.077  -2.989 123.604  0.00  0.00    +0.008 C 
ATOM     20  C   LIG A   1      -9.536  -3.429 123.694  0.00  0.00    +0.012 C 
BRANCH  19  22
ATOM     21  C   LIG A   1      -6.711  -0.879 123.073  0.00  0.00    +0.004 C 
ATOM     22  C   LIG A   1      -7.903  -1.748 122.703  0.00  0.00    +0.004 C 
ENDBRANCH  19  22
ENDBRANCH  17  19
ENDBRANCH   1  18
BRANCH  13  23
ATOM     23  C   LIG A   1      -7.176   1.524 131.496  0.00  0.00    +0.177 C 
ATOM     24  O   LIG A   1      -6.678   2.423 132.138  0.00  0.00    -0.291 OA
BRANCH  23  25
ATOM     25  C   LIG A   1      -8.593   1.660 130.772  0.00  0.00    +0.098 C 
ATOM     26  C   LIG A   1      -9.589   1.535 131.949  0.00  0.00    +0.020 C 
BRANCH  25  27
ATOM     27  C   LIG A   1      -9.049   2.860 129.883  0.00  0.00    +0.184 C 
ATOM     28  C   LIG A   1     -10.134   3.743 130.510  0.00  0.00    +0.052 C 
BRANCH  27  29
ATOM     29  O   LIG A   1      -8.060   3.719 129.249  0.00  0.00    -0.459 OA
BRANCH  29  30
ATOM     30  C   LIG A   1      -8.066   3.954 127.929  0.00  0.00    +0.341 C 
ATOM     31  O   LIG A   1      -8.515   5.030 127.542  0.00  0.00    -0.247 OA
BRANCH  30  32
ATOM     32  C   LIG A   1      -7.398   2.795 126.971  0.00  0.00    +0.256 C 
BRANCH  32  33
ATOM     33  C   LIG A   1      -8.209   2.347 125.797  0.00  0.00    -0.008 A 
ATOM     34  C   LIG A   1      -9.083   1.275 125.833  0.00  0.00    +0.007 A 
ATOM     35  C   LIG A   1      -9.771   0.786 124.762  0.00  0.00    +0.000 A 
ATOM     36  C   LIG A   1      -9.637   1.458 123.579  0.00  0.00    +0.000 A 
ATOM     37  C   LIG A   1      -8.823   2.593 123.499  0.00  0.00    +0.000 A 
ATOM     38  C   LIG A   1      -8.101   3.035 124.596  0.00  0.00    +0.007 A 
ENDBRANCH  32  33
BRANCH  32  39
ATOM     39  O   LIG A   1      -6.076   2.708 126.434  0.00  0.00    -0.364 OA
ATOM     40  C   LIG A   1      -5.273   3.682 127.005  0.00  0.00    +0.195 C 
ENDBRANCH  32  39
ENDBRANCH  30  32
ENDBRANCH  29  30
ENDBRANCH  27  29
ENDBRANCH  25  27
ENDBRANCH  23  25
ENDBRANCH  13  23
TORSDOF 11
ENDMDL
MODEL 8
REMARK VINA RESULT:      -8.8      3.741      8.131
REMARK  Name = NuBBE_681
REMARK  17 active torsions:
REMARK  status: ('A' for Active; 'I' for Inactive)
REMARK    1  A    between atoms: C_1  and  C_2
REMARK    2  A    between atoms: C_2  and  C_3
REMARK    3  A    between atoms: C_3  and  C_5
REMARK    4  A    between atoms: C_3  and  C_6
REMARK    5  A    between atoms: C_7  and  C_8
REMARK    6  A    between atoms: C_14  and  C_16
REMARK    7  A    between atoms: C_21  and  C_22
REMARK    8  A    between atoms: C_22  and  C_23
REMARK    9  A    between atoms: C_23  and  C_25
REMARK   10  A    between atoms: C_23  and  C_26
REMARK   11  A    between atoms: C_26  and  O_28
REMARK   12  A    between atoms: C_26  and  C_41
REMARK   13  A    between atoms: O_28  and  C_29
REMARK   14  A    between atoms: C_29  and  C_30
REMARK   15  A    between atoms: C_30  and  O_31
REMARK   16  A    between atoms: C_30  and  C_34
REMARK   17  A    between atoms: O_31  and  C_32
REMARK                            x       y       z     vdW  Elec       q    Type
REMARK                         _______ _______ _______ _____ _____    ______ ____
ROOT
ATOM      1  C   LIG A   1      -7.378   0.286 126.987  0.00  0.00    +0.128 C 
ATOM      2  C   LIG A   1      -6.061   0.478 126.822  0.00  0.00    +0.055 C 
ATOM      3  C   LIG A   1      -5.608   1.809 126.917  0.00  0.00    -0.008 C 
ATOM      4  C   LIG A   1      -4.373   2.094 126.465  0.00  0.00    +0.059 C 
ATOM      5  C   LIG A   1      -4.080   3.495 126.299  0.00  0.00    +0.204 C 
ATOM      6  C   LIG A   1      -5.273   4.421 126.514  0.00  0.00    +0.199 C 
ATOM      7  O   LIG A   1      -4.571   5.372 127.245  0.00  0.00    -0.442 OA
ATOM      8  C   LIG A   1      -5.908   4.957 125.224  0.00  0.00    +0.070 C 
ATOM      9  C   LIG A   1      -6.131   4.091 127.648  0.00  0.00    +0.031 C 
ATOM     10  C   LIG A   1      -6.574   2.798 127.437  0.00  0.00    +0.025 C 
ATOM     11  C   LIG A   1      -7.864   2.507 127.583  0.00  0.00    +0.204 C 
ATOM     12  O   LIG A   1      -8.322   1.260 127.304  0.00  0.00    -0.463 OA
ATOM     13  C   LIG A   1      -5.961   4.778 128.786  0.00  0.00    +0.110 C 
ATOM     14  C   LIG A   1      -4.696   5.226 128.531  0.00  0.00    +0.344 C 
ATOM     15  O   LIG A   1      -3.820   5.652 129.379  0.00  0.00    -0.245 OA
ATOM     16  O   LIG A   1      -2.914   3.839 126.058  0.00  0.00    -0.288 OA
ENDROOT
BRANCH   1  18
ATOM     17  C   LIG A   1      -7.421  -1.956 126.113  0.00  0.00    -0.020 C 
ATOM     18  C   LIG A   1      -7.950  -0.994 126.875  0.00  0.00    +0.042 C 
BRANCH  17  19
ATOM     19  C   LIG A   1      -8.069  -3.288 125.862  0.00  0.00    +0.008 C 
ATOM     20  C   LIG A   1      -9.459  -3.278 126.495  0.00  0.00    +0.012 C 
BRANCH  19  22
ATOM     21  C   LIG A   1      -9.404  -3.288 123.667  0.00  0.00    +0.004 C 
ATOM     22  C   LIG A   1      -8.117  -3.689 124.372  0.00  0.00    +0.004 C 
ENDBRANCH  19  22
ENDBRANCH  17  19
ENDBRANCH   1  18
BRANCH  13  23
ATOM     23  C   LIG A   1      -6.610   4.829 130.121  0.00  0.00    +0.177 C 
ATOM     24  O   LIG A   1      -7.478   5.664 130.253  0.00  0.00    -0.291 OA
BRANCH  23  25
ATOM     25  C   LIG A   1      -6.003   4.009 131.349  0.00  0.00    +0.098 C 
ATOM     26  C   LIG A   1      -7.053   4.239 132.462  0.00  0.00    +0.020 C 
BRANCH  25  27
ATOM     27  C   LIG A   1      -5.641   2.490 131.340  0.00  0.00    +0.184 C 
ATOM     28  C   LIG A   1      -4.288   2.160 130.700  0.00  0.00    +0.052 C 
BRANCH  27  29
ATOM     29  O   LIG A   1      -5.791   1.694 132.549  0.00  0.00    -0.459 OA
BRANCH  29  30
ATOM     30  C   LIG A   1      -6.643   0.662 132.619  0.00  0.00    +0.341 C 
ATOM     31  O   LIG A   1      -6.767   0.096 133.703  0.00  0.00    -0.247 OA
BRANCH  30  32
ATOM     32  C   LIG A   1      -7.489   0.310 131.253  0.00  0.00    +0.256 C 
BRANCH  32  33
ATOM     33  C   LIG A   1      -7.157  -0.980 130.572  0.00  0.00    -0.008 A 
ATOM     34  C   LIG A   1      -8.074  -1.993 130.362  0.00  0.00    +0.007 A 
ATOM     35  C   LIG A   1      -7.787  -3.214 129.824  0.00  0.00    +0.000 A 
ATOM     36  C   LIG A   1      -6.505  -3.417 129.396  0.00  0.00    +0.000 A 
ATOM     37  C   LIG A   1      -5.550  -2.402 129.518  0.00  0.00    +0.000 A 
ATOM     38  C   LIG A   1      -5.865  -1.190 130.111  0.00  0.00    +0.007 A 
ENDBRANCH  32  33
BRANCH  32  39
ATOM     39  O   LIG A   1      -8.895   0.389 131.008  0.00  0.00    -0.364 OA
ATOM     40  C   LIG A   1      -9.462   1.347 131.832  0.00  0.00    +0.195 C 
ENDBRANCH  32  39
ENDBRANCH  30  32
ENDBRANCH  29  30
ENDBRANCH  27  29
ENDBRANCH  25  27
ENDBRANCH  23  25
ENDBRANCH  13  23
TORSDOF 11
ENDMDL
MODEL 9
REMARK VINA RESULT:      -8.8      3.043      6.401
REMARK  Name = NuBBE_681
REMARK  17 active torsions:
REMARK  status: ('A' for Active; 'I' for Inactive)
REMARK    1  A    between atoms: C_1  and  C_2
REMARK    2  A    between atoms: C_2  and  C_3
REMARK    3  A    between atoms: C_3  and  C_5
REMARK    4  A    between atoms: C_3  and  C_6
REMARK    5  A    between atoms: C_7  and  C_8
REMARK    6  A    between atoms: C_14  and  C_16
REMARK    7  A    between atoms: C_21  and  C_22
REMARK    8  A    between atoms: C_22  and  C_23
REMARK    9  A    between atoms: C_23  and  C_25
REMARK   10  A    between atoms: C_23  and  C_26
REMARK   11  A    between atoms: C_26  and  O_28
REMARK   12  A    between atoms: C_26  and  C_41
REMARK   13  A    between atoms: O_28  and  C_29
REMARK   14  A    between atoms: C_29  and  C_30
REMARK   15  A    between atoms: C_30  and  O_31
REMARK   16  A    between atoms: C_30  and  C_34
REMARK   17  A    between atoms: O_31  and  C_32
REMARK                            x       y       z     vdW  Elec       q    Type
REMARK                         _______ _______ _______ _____ _____    ______ ____
ROOT
ATOM      1  C   LIG A   1      -7.685   0.783 130.074  0.00  0.00    +0.128 C 
ATOM      2  C   LIG A   1      -7.898   1.692 129.112  0.00  0.00    +0.055 C 
ATOM      3  C   LIG A   1      -8.062   3.026 129.539  0.00  0.00    -0.008 C 
ATOM      4  C   LIG A   1      -8.574   3.914 128.667  0.00  0.00    +0.059 C 
ATOM      5  C   LIG A   1      -9.006   5.165 129.237  0.00  0.00    +0.204 C 
ATOM      6  C   LIG A   1      -8.956   5.218 130.761  0.00  0.00    +0.199 C 
ATOM      7  O   LIG A   1      -8.426   6.501 130.831  0.00  0.00    -0.442 OA
ATOM      8  C   LIG A   1     -10.317   5.057 131.451  0.00  0.00    +0.070 C 
ATOM      9  C   LIG A   1      -7.771   4.627 131.375  0.00  0.00    +0.031 C 
ATOM     10  C   LIG A   1      -7.728   3.311 130.950  0.00  0.00    +0.025 C 
ATOM     11  C   LIG A   1      -7.515   2.337 131.830  0.00  0.00    +0.204 C 
ATOM     12  O   LIG A   1      -7.548   1.037 131.437  0.00  0.00    -0.463 OA
ATOM     13  C   LIG A   1      -6.785   5.449 131.759  0.00  0.00    +0.110 C 
ATOM     14  C   LIG A   1      -7.134   6.515 130.979  0.00  0.00    +0.344 C 
ATOM     15  O   LIG A   1      -6.392   7.507 130.614  0.00  0.00    -0.245 OA
ATOM     16  O   LIG A   1      -9.320   6.093 128.478  0.00  0.00    -0.288 OA
ENDROOT
BRANCH   1  18
ATOM     17  C   LIG A   1      -7.510  -1.044 128.517  0.00  0.00    -0.020 C 
ATOM     18  C   LIG A   1      -7.547  -0.584 129.771  0.00  0.00    +0.042 C 
BRANCH  17  19
ATOM     19  C   LIG A   1      -7.496  -2.500 128.151  0.00  0.00    +0.008 C 
ATOM     20  C   LIG A   1      -8.405  -3.252 129.121  0.00  0.00    +0.012 C 
BRANCH  19  22
ATOM     21  C   LIG A   1      -8.940  -1.850 126.128  0.00  0.00    +0.004 C 
ATOM     22  C   LIG A   1      -7.868  -2.779 126.678  0.00  0.00    +0.004 C 
ENDBRANCH  19  22
ENDBRANCH  17  19
ENDBRANCH   1  18
BRANCH  13  23
ATOM     23  C   LIG A   1      -5.477   5.315 132.449  0.00  0.00    +0.177 C 
ATOM     24  O   LIG A   1      -5.454   5.666 133.608  0.00  0.00    -0.291 OA
BRANCH  23  25
ATOM     25  C   LIG A   1      -4.154   4.976 131.621  0.00  0.00    +0.098 C 
ATOM     26  C   LIG A   1      -3.297   4.204 132.651  0.00  0.00    +0.020 C 
BRANCH  25  27
ATOM     27  C   LIG A   1      -4.101   4.194 130.270  0.00  0.00    +0.184 C 
ATOM     28  C   LIG A   1      -4.184   2.671 130.411  0.00  0.00    +0.052 C 
BRANCH  27  29
ATOM     29  O   LIG A   1      -4.938   4.605 129.153  0.00  0.00    -0.459 OA
BRANCH  29  30
ATOM     30  C   LIG A   1      -4.427   4.872 127.942  0.00  0.00    +0.341 C 
ATOM     31  O   LIG A   1      -4.308   6.051 127.620  0.00  0.00    -0.247 OA
BRANCH  30  32
ATOM     32  C   LIG A   1      -3.947   3.580 127.044  0.00  0.00    +0.256 C 
BRANCH  32  33
ATOM     33  C   LIG A   1      -5.029   2.769 126.405  0.00  0.00    -0.008 A 
ATOM     34  C   LIG A   1      -6.167   3.318 125.841  0.00  0.00    +0.007 A 
ATOM     35  C   LIG A   1      -7.212   2.607 125.328  0.00  0.00    +0.000 A 
ATOM     36  C   LIG A   1      -7.085   1.246 125.309  0.00  0.00    +0.000 A 
ATOM     37  C   LIG A   1      -5.926   0.637 125.801  0.00  0.00    +0.000 A 
ATOM     38  C   LIG A   1      -4.903   1.388 126.357  0.00  0.00    +0.007 A 
ENDBRANCH  32  33
BRANCH  32  39
ATOM     39  O   LIG A   1      -2.923   3.493 126.050  0.00  0.00    -0.364 OA
ATOM     40  C   LIG A   1      -1.721   3.145 126.644  0.00  0.00    +0.195 C 
ENDBRANCH  32  39
ENDBRANCH  30  32
ENDBRANCH  29  30
ENDBRANCH  27  29
ENDBRANCH  25  27
ENDBRANCH  23  25
ENDBRANCH  13  23
TORSDOF 11
ENDMDL
