MODEL 1
REMARK VINA RESULT:      -8.7      0.000      0.000
REMARK  Name = NuBBE_1585
REMARK  10 active torsions:
REMARK  status: ('A' for Active; 'I' for Inactive)
REMARK    1  A    between atoms: C_1  and  C_2
REMARK    2  A    between atoms: C_2  and  C_3
REMARK    3  A    between atoms: C_4  and  C_5
REMARK    4  A    between atoms: C_5  and  C_6
REMARK    5  A    between atoms: C_6  and  O_7
REMARK    6  A    between atoms: O_7  and  C_8
REMARK    7  A    between atoms: C_9  and  O_10
REMARK    8  A    between atoms: O_10  and  C_11
REMARK    9  A    between atoms: C_13  and  C_14
REMARK   10  A    between atoms: C_20  and  C_22
REMARK                            x       y       z     vdW  Elec       q    Type
REMARK                         _______ _______ _______ _____ _____    ______ ____
ROOT
ATOM      1  C   LIG A   1      -7.837   2.740 131.767  0.00  0.00    +0.154 C 
ATOM      2  C   LIG A   1      -8.956   3.761 131.780  0.00  0.00    +0.056 C 
ATOM      3  C   LIG A   1      -8.362   4.956 131.079  0.00  0.00    +0.056 C 
ATOM      4  C   LIG A   1      -9.151   6.132 131.633  0.00  0.00    +0.154 C 
ATOM      5  O   LIG A   1      -9.481   5.756 132.987  0.00  0.00    -0.371 OA
ATOM      6  C   LIG A   1      -9.230   4.350 133.164  0.00  0.00    +0.167 C 
ATOM      7  C   LIG A   1      -6.912   4.903 131.560  0.00  0.00    +0.167 C 
ATOM      8  O   LIG A   1      -6.634   3.539 131.943  0.00  0.00    -0.371 OA
ENDROOT
BRANCH   4   9
ATOM      9  C   LIG A   1     -10.418   6.455 130.844  0.00  0.00    -0.015 A 
ATOM     10  C   LIG A   1     -11.628   6.784 131.507  0.00  0.00    +0.010 A 
ATOM     11  C   LIG A   1     -12.791   7.108 130.799  0.00  0.00    +0.050 A 
ATOM     12  C   LIG A   1     -12.725   7.107 129.425  0.00  0.00    +0.166 A 
ATOM     13  O   LIG A   1     -13.750   7.404 128.582  0.00  0.00    -0.453 OA
ATOM     14  C   LIG A   1     -13.100   7.255 127.305  0.00  0.00    +0.466 C 
ATOM     15  O   LIG A   1     -11.712   6.866 127.409  0.00  0.00    -0.453 OA
ATOM     16  C   LIG A   1     -11.563   6.801 128.761  0.00  0.00    +0.167 A 
ATOM     17  C   LIG A   1     -10.399   6.476 129.435  0.00  0.00    +0.055 A 
ENDBRANCH   4   9
BRANCH   1  21
ATOM     18  C   LIG A   1      -7.753   0.043 128.341  0.00  0.00    +0.162 A 
ATOM     19  C   LIG A   1      -8.351   1.310 128.197  0.00  0.00    +0.162 A 
ATOM     20  C   LIG A   1      -8.333   2.223 129.285  0.00  0.00    +0.055 A 
ATOM     21  C   LIG A   1      -7.691   1.904 130.497  0.00  0.00    -0.015 A 
ATOM     22  C   LIG A   1      -6.995   0.693 130.548  0.00  0.00    +0.010 A 
ATOM     23  C   LIG A   1      -7.069  -0.238 129.519  0.00  0.00    +0.050 A 
BRANCH  19  24
ATOM     24  O   LIG A   1      -9.007   1.785 127.082  0.00  0.00    -0.491 OA
ATOM     25  C   LIG A   1      -8.204   2.312 126.027  0.00  0.00    +0.277 C 
ENDBRANCH  19  24
BRANCH  18  26
ATOM     26  O   LIG A   1      -7.968  -0.925 127.397  0.00  0.00    -0.488 OA
BRANCH  26  27
ATOM     27  C   LIG A   1      -7.534  -2.267 127.647  0.00  0.00    +0.233 C 
BRANCH  27  28
ATOM     28  C   LIG A   1      -8.638  -3.274 127.286  0.00  0.00    +0.068 C 
BRANCH  28  32
ATOM     29  C   LIG A   1      -9.498  -3.025 123.482  0.00  0.00    +0.038 C 
ATOM     30  C   LIG A   1      -8.735  -3.343 124.733  0.00  0.00    -0.080 C 
ATOM     31  C   LIG A   1      -7.398  -3.979 124.500  0.00  0.00    +0.038 C 
ATOM     32  C   LIG A   1      -9.271  -3.042 125.958  0.00  0.00    -0.025 C 
ENDBRANCH  28  32
ENDBRANCH  27  28
ENDBRANCH  26  27
ENDBRANCH  18  26
ENDBRANCH   1  21
TORSDOF 7
ENDMDL
MODEL 2
REMARK VINA RESULT:      -8.6      1.576      2.245
REMARK  Name = NuBBE_1585
REMARK  10 active torsions:
REMARK  status: ('A' for Active; 'I' for Inactive)
REMARK    1  A    between atoms: C_1  and  C_2
REMARK    2  A    between atoms: C_2  and  C_3
REMARK    3  A    between atoms: C_4  and  C_5
REMARK    4  A    between atoms: C_5  and  C_6
REMARK    5  A    between atoms: C_6  and  O_7
REMARK    6  A    between atoms: O_7  and  C_8
REMARK    7  A    between atoms: C_9  and  O_10
REMARK    8  A    between atoms: O_10  and  C_11
REMARK    9  A    between atoms: C_13  and  C_14
REMARK   10  A    between atoms: C_20  and  C_22
REMARK                            x       y       z     vdW  Elec       q    Type
REMARK                         _______ _______ _______ _____ _____    ______ ____
ROOT
ATOM      1  C   LIG A   1      -8.286   1.007 130.519  0.00  0.00    +0.154 C 
ATOM      2  C   LIG A   1      -9.082   2.252 130.856  0.00  0.00    +0.056 C 
ATOM      3  C   LIG A   1      -8.054   3.354 130.832  0.00  0.00    +0.056 C 
ATOM      4  C   LIG A   1      -8.634   4.412 131.756  0.00  0.00    +0.154 C 
ATOM      5  O   LIG A   1      -9.370   3.674 132.755  0.00  0.00    -0.371 OA
ATOM      6  C   LIG A   1      -9.530   2.313 132.316  0.00  0.00    +0.167 C 
ATOM      7  C   LIG A   1      -6.827   2.642 131.401  0.00  0.00    +0.167 C 
ATOM      8  O   LIG A   1      -7.003   1.228 131.167  0.00  0.00    -0.371 OA
ENDROOT
BRANCH   4   9
ATOM      9  C   LIG A   1      -9.547   5.416 131.054  0.00  0.00    -0.015 A 
ATOM     10  C   LIG A   1     -10.651   5.996 131.728  0.00  0.00    +0.010 A 
ATOM     11  C   LIG A   1     -11.481   6.937 131.108  0.00  0.00    +0.050 A 
ATOM     12  C   LIG A   1     -11.188   7.295 129.813  0.00  0.00    +0.166 A 
ATOM     13  O   LIG A   1     -11.878   8.195 129.063  0.00  0.00    -0.453 OA
ATOM     14  C   LIG A   1     -11.116   8.167 127.840  0.00  0.00    +0.466 C 
ATOM     15  O   LIG A   1     -10.000   7.249 127.879  0.00  0.00    -0.453 OA
ATOM     16  C   LIG A   1     -10.118   6.754 129.143  0.00  0.00    +0.167 A 
ATOM     17  C   LIG A   1      -9.281   5.822 129.731  0.00  0.00    +0.055 A 
ENDBRANCH   4   9
BRANCH   1  21
ATOM     18  C   LIG A   1      -7.939  -0.145 126.327  0.00  0.00    +0.162 A 
ATOM     19  C   LIG A   1      -8.562   1.076 126.649  0.00  0.00    +0.162 A 
ATOM     20  C   LIG A   1      -8.629   1.494 128.005  0.00  0.00    +0.055 A 
ATOM     21  C   LIG A   1      -8.047   0.731 129.035  0.00  0.00    -0.015 A 
ATOM     22  C   LIG A   1      -7.323  -0.402 128.656  0.00  0.00    +0.010 A 
ATOM     23  C   LIG A   1      -7.314  -0.859 127.343  0.00  0.00    +0.050 A 
BRANCH  19  24
ATOM     24  O   LIG A   1      -9.168   1.946 125.768  0.00  0.00    -0.491 OA
ATOM     25  C   LIG A   1      -8.331   2.890 125.102  0.00  0.00    +0.277 C 
ENDBRANCH  19  24
BRANCH  18  26
ATOM     26  O   LIG A   1      -8.075  -0.670 125.070  0.00  0.00    -0.488 OA
BRANCH  26  27
ATOM     27  C   LIG A   1      -9.115  -1.620 124.808  0.00  0.00    +0.233 C 
BRANCH  27  28
ATOM     28  C   LIG A   1      -8.620  -2.724 123.861  0.00  0.00    +0.068 C 
BRANCH  28  32
ATOM     29  C   LIG A   1      -4.828  -3.652 124.050  0.00  0.00    +0.038 C 
ATOM     30  C   LIG A   1      -6.092  -2.991 123.590  0.00  0.00    -0.080 C 
ATOM     31  C   LIG A   1      -5.915  -2.047 122.439  0.00  0.00    +0.038 C 
ATOM     32  C   LIG A   1      -7.281  -3.278 124.208  0.00  0.00    -0.025 C 
ENDBRANCH  28  32
ENDBRANCH  27  28
ENDBRANCH  26  27
ENDBRANCH  18  26
ENDBRANCH   1  21
TORSDOF 7
ENDMDL
MODEL 3
REMARK VINA RESULT:      -8.5      2.229      4.664
REMARK  Name = NuBBE_1585
REMARK  10 active torsions:
REMARK  status: ('A' for Active; 'I' for Inactive)
REMARK    1  A    between atoms: C_1  and  C_2
REMARK    2  A    between atoms: C_2  and  C_3
REMARK    3  A    between atoms: C_4  and  C_5
REMARK    4  A    between atoms: C_5  and  C_6
REMARK    5  A    between atoms: C_6  and  O_7
REMARK    6  A    between atoms: O_7  and  C_8
REMARK    7  A    between atoms: C_9  and  O_10
REMARK    8  A    between atoms: O_10  and  C_11
REMARK    9  A    between atoms: C_13  and  C_14
REMARK   10  A    between atoms: C_20  and  C_22
REMARK                            x       y       z     vdW  Elec       q    Type
REMARK                         _______ _______ _______ _____ _____    ______ ____
ROOT
ATOM      1  C   LIG A   1      -7.556  -2.250 130.110  0.00  0.00    +0.154 C 
ATOM      2  C   LIG A   1      -8.002  -1.097 130.986  0.00  0.00    +0.056 C 
ATOM      3  C   LIG A   1      -6.885  -0.093 130.856  0.00  0.00    +0.056 C 
ATOM      4  C   LIG A   1      -6.967   0.710 132.144  0.00  0.00    +0.154 C 
ATOM      5  O   LIG A   1      -7.439  -0.224 133.138  0.00  0.00    -0.371 OA
ATOM      6  C   LIG A   1      -7.936  -1.404 132.482  0.00  0.00    +0.167 C 
ATOM      7  C   LIG A   1      -5.661  -1.005 130.772  0.00  0.00    +0.167 C 
ATOM      8  O   LIG A   1      -6.114  -2.291 130.295  0.00  0.00    -0.371 OA
ENDROOT
BRANCH   4   9
ATOM      9  C   LIG A   1      -7.897   1.919 132.063  0.00  0.00    -0.015 A 
ATOM     10  C   LIG A   1      -8.303   2.608 133.234  0.00  0.00    +0.010 A 
ATOM     11  C   LIG A   1      -9.133   3.734 133.175  0.00  0.00    +0.050 A 
ATOM     12  C   LIG A   1      -9.543   4.163 131.934  0.00  0.00    +0.166 A 
ATOM     13  O   LIG A   1     -10.339   5.238 131.690  0.00  0.00    -0.453 OA
ATOM     14  C   LIG A   1     -10.407   5.202 130.251  0.00  0.00    +0.466 C 
ATOM     15  O   LIG A   1      -9.662   4.109 129.668  0.00  0.00    -0.453 OA
ATOM     16  C   LIG A   1      -9.154   3.518 130.786  0.00  0.00    +0.167 A 
ATOM     17  C   LIG A   1      -8.335   2.403 130.814  0.00  0.00    +0.055 A 
ENDBRANCH   4   9
BRANCH   1  21
ATOM     18  C   LIG A   1      -8.896  -1.962 125.970  0.00  0.00    +0.162 A 
ATOM     19  C   LIG A   1      -8.401  -0.808 126.609  0.00  0.00    +0.162 A 
ATOM     20  C   LIG A   1      -7.904  -0.899 127.936  0.00  0.00    +0.055 A 
ATOM     21  C   LIG A   1      -7.858  -2.130 128.617  0.00  0.00    -0.015 A 
ATOM     22  C   LIG A   1      -8.233  -3.269 127.899  0.00  0.00    +0.010 A 
ATOM     23  C   LIG A   1      -8.789  -3.182 126.628  0.00  0.00    +0.050 A 
BRANCH  19  24
ATOM     24  O   LIG A   1      -8.361   0.466 126.085  0.00  0.00    -0.491 OA
ATOM     25  C   LIG A   1      -7.880   1.507 126.934  0.00  0.00    +0.277 C 
ENDBRANCH  19  24
BRANCH  18  26
ATOM     26  O   LIG A   1      -9.589  -1.847 124.795  0.00  0.00    -0.488 OA
BRANCH  26  27
ATOM     27  C   LIG A   1      -9.024  -2.368 123.586  0.00  0.00    +0.233 C 
BRANCH  27  28
ATOM     28  C   LIG A   1      -7.714  -1.643 123.240  0.00  0.00    +0.068 C 
BRANCH  28  32
ATOM     29  C   LIG A   1      -4.392  -3.680 123.537  0.00  0.00    +0.038 C 
ATOM     30  C   LIG A   1      -5.507  -2.748 123.904  0.00  0.00    -0.080 C 
ATOM     31  C   LIG A   1      -5.353  -2.094 125.244  0.00  0.00    +0.038 C 
ATOM     32  C   LIG A   1      -6.547  -2.546 123.035  0.00  0.00    -0.025 C 
ENDBRANCH  28  32
ENDBRANCH  27  28
ENDBRANCH  26  27
ENDBRANCH  18  26
ENDBRANCH   1  21
TORSDOF 7
ENDMDL
MODEL 4
REMARK VINA RESULT:      -8.4      2.096      8.876
REMARK  Name = NuBBE_1585
REMARK  10 active torsions:
REMARK  status: ('A' for Active; 'I' for Inactive)
REMARK    1  A    between atoms: C_1  and  C_2
REMARK    2  A    between atoms: C_2  and  C_3
REMARK    3  A    between atoms: C_4  and  C_5
REMARK    4  A    between atoms: C_5  and  C_6
REMARK    5  A    between atoms: C_6  and  O_7
REMARK    6  A    between atoms: O_7  and  C_8
REMARK    7  A    between atoms: C_9  and  O_10
REMARK    8  A    between atoms: O_10  and  C_11
REMARK    9  A    between atoms: C_13  and  C_14
REMARK   10  A    between atoms: C_20  and  C_22
REMARK                            x       y       z     vdW  Elec       q    Type
REMARK                         _______ _______ _______ _____ _____    ______ ____
ROOT
ATOM      1  C   LIG A   1      -6.926   0.054 130.983  0.00  0.00    +0.154 C 
ATOM      2  C   LIG A   1      -6.580  -0.657 129.691  0.00  0.00    +0.056 C 
ATOM      3  C   LIG A   1      -7.613  -1.751 129.593  0.00  0.00    +0.056 C 
ATOM      4  C   LIG A   1      -6.939  -2.813 128.741  0.00  0.00    +0.154 C 
ATOM      5  O   LIG A   1      -5.534  -2.711 129.058  0.00  0.00    -0.371 OA
ATOM      6  C   LIG A   1      -5.297  -1.485 129.774  0.00  0.00    +0.167 C 
ATOM      7  C   LIG A   1      -7.779  -2.147 131.060  0.00  0.00    +0.167 C 
ATOM      8  O   LIG A   1      -7.373  -1.017 131.861  0.00  0.00    -0.371 OA
ENDROOT
BRANCH   4   9
ATOM      9  C   LIG A   1      -7.161  -2.639 127.240  0.00  0.00    -0.015 A 
ATOM     10  C   LIG A   1      -6.108  -2.217 126.389  0.00  0.00    +0.010 A 
ATOM     11  C   LIG A   1      -6.288  -2.078 125.008  0.00  0.00    +0.050 A 
ATOM     12  C   LIG A   1      -7.528  -2.372 124.491  0.00  0.00    +0.166 A 
ATOM     13  O   LIG A   1      -7.878  -2.301 123.179  0.00  0.00    -0.453 OA
ATOM     14  C   LIG A   1      -9.253  -2.729 123.243  0.00  0.00    +0.466 C 
ATOM     15  O   LIG A   1      -9.697  -3.036 124.583  0.00  0.00    -0.453 OA
ATOM     16  C   LIG A   1      -8.561  -2.791 125.294  0.00  0.00    +0.167 A 
ATOM     17  C   LIG A   1      -8.411  -2.937 126.662  0.00  0.00    +0.055 A 
ENDBRANCH   4   9
BRANCH   1  21
ATOM     18  C   LIG A   1      -9.769   3.360 131.064  0.00  0.00    +0.162 A 
ATOM     19  C   LIG A   1      -9.046   3.111 129.881  0.00  0.00    +0.162 A 
ATOM     20  C   LIG A   1      -8.161   2.002 129.819  0.00  0.00    +0.055 A 
ATOM     21  C   LIG A   1      -8.021   1.116 130.905  0.00  0.00    -0.015 A 
ATOM     22  C   LIG A   1      -8.857   1.323 132.006  0.00  0.00    +0.010 A 
ATOM     23  C   LIG A   1      -9.670   2.446 132.107  0.00  0.00    +0.050 A 
BRANCH  19  24
ATOM     24  O   LIG A   1      -9.074   3.866 128.729  0.00  0.00    -0.491 OA
ATOM     25  C   LIG A   1      -7.827   4.131 128.090  0.00  0.00    +0.277 C 
ENDBRANCH  19  24
BRANCH  18  26
ATOM     26  O   LIG A   1     -10.435   4.546 131.221  0.00  0.00    -0.488 OA
BRANCH  26  27
ATOM     27  C   LIG A   1      -9.729   5.696 131.703  0.00  0.00    +0.233 C 
BRANCH  27  28
ATOM     28  C   LIG A   1      -9.787   6.841 130.681  0.00  0.00    +0.068 C 
BRANCH  28  32
ATOM     29  C   LIG A   1     -12.943   8.228 128.839  0.00  0.00    +0.038 C 
ATOM     30  C   LIG A   1     -11.503   7.928 129.129  0.00  0.00    -0.080 C 
ATOM     31  C   LIG A   1     -10.539   8.484 128.125  0.00  0.00    +0.038 C 
ATOM     32  C   LIG A   1     -11.163   7.206 130.243  0.00  0.00    -0.025 C 
ENDBRANCH  28  32
ENDBRANCH  27  28
ENDBRANCH  26  27
ENDBRANCH  18  26
ENDBRANCH   1  21
TORSDOF 7
ENDMDL
MODEL 5
REMARK VINA RESULT:      -8.4      2.089      8.628
REMARK  Name = NuBBE_1585
REMARK  10 active torsions:
REMARK  status: ('A' for Active; 'I' for Inactive)
REMARK    1  A    between atoms: C_1  and  C_2
REMARK    2  A    between atoms: C_2  and  C_3
REMARK    3  A    between atoms: C_4  and  C_5
REMARK    4  A    between atoms: C_5  and  C_6
REMARK    5  A    between atoms: C_6  and  O_7
REMARK    6  A    between atoms: O_7  and  C_8
REMARK    7  A    between atoms: C_9  and  O_10
REMARK    8  A    between atoms: O_10  and  C_11
REMARK    9  A    between atoms: C_13  and  C_14
REMARK   10  A    between atoms: C_20  and  C_22
REMARK                            x       y       z     vdW  Elec       q    Type
REMARK                         _______ _______ _______ _____ _____    ______ ____
ROOT
ATOM      1  C   LIG A   1      -6.975   0.898 132.022  0.00  0.00    +0.154 C 
ATOM      2  C   LIG A   1      -6.869  -0.105 130.891  0.00  0.00    +0.056 C 
ATOM      3  C   LIG A   1      -8.043  -1.024 131.113  0.00  0.00    +0.056 C 
ATOM      4  C   LIG A   1      -7.613  -2.327 130.460  0.00  0.00    +0.154 C 
ATOM      5  O   LIG A   1      -6.180  -2.380 130.636  0.00  0.00    -0.371 OA
ATOM      6  C   LIG A   1      -5.706  -1.085 131.050  0.00  0.00    +0.167 C 
ATOM      7  C   LIG A   1      -8.099  -1.086 132.639  0.00  0.00    +0.167 C 
ATOM      8  O   LIG A   1      -7.462   0.108 133.143  0.00  0.00    -0.371 OA
ENDROOT
BRANCH   4   9
ATOM      9  C   LIG A   1      -7.972  -2.428 128.979  0.00  0.00    -0.015 A 
ATOM     10  C   LIG A   1      -8.608  -3.583 128.458  0.00  0.00    +0.010 A 
ATOM     11  C   LIG A   1      -8.968  -3.680 127.109  0.00  0.00    +0.050 A 
ATOM     12  C   LIG A   1      -8.692  -2.607 126.294  0.00  0.00    +0.166 A 
ATOM     13  O   LIG A   1      -8.978  -2.525 124.966  0.00  0.00    -0.453 OA
ATOM     14  C   LIG A   1      -8.486  -1.204 124.666  0.00  0.00    +0.466 C 
ATOM     15  O   LIG A   1      -7.912  -0.532 125.809  0.00  0.00    -0.453 OA
ATOM     16  C   LIG A   1      -8.085  -1.474 126.777  0.00  0.00    +0.167 A 
ATOM     17  C   LIG A   1      -7.718  -1.351 128.106  0.00  0.00    +0.055 A 
ENDBRANCH   4   9
BRANCH   1  21
ATOM     18  C   LIG A   1      -9.303   4.555 131.555  0.00  0.00    +0.162 A 
ATOM     19  C   LIG A   1      -8.873   3.868 130.403  0.00  0.00    +0.162 A 
ATOM     20  C   LIG A   1      -8.167   2.643 130.538  0.00  0.00    +0.055 A 
ATOM     21  C   LIG A   1      -7.920   2.077 131.803  0.00  0.00    -0.015 A 
ATOM     22  C   LIG A   1      -8.480   2.722 132.909  0.00  0.00    +0.010 A 
ATOM     23  C   LIG A   1      -9.108   3.957 132.795  0.00  0.00    +0.050 A 
BRANCH  19  24
ATOM     24  O   LIG A   1      -9.042   4.272 129.096  0.00  0.00    -0.491 OA
ATOM     25  C   LIG A   1      -7.928   4.123 128.217  0.00  0.00    +0.277 C 
ENDBRANCH  19  24
BRANCH  18  26
ATOM     26  O   LIG A   1      -9.769   5.839 131.450  0.00  0.00    -0.488 OA
BRANCH  26  27
ATOM     27  C   LIG A   1     -11.089   6.151 131.910  0.00  0.00    +0.233 C 
BRANCH  27  28
ATOM     28  C   LIG A   1     -12.060   6.288 130.726  0.00  0.00    +0.068 C 
BRANCH  28  32
ATOM     29  C   LIG A   1     -13.087   9.909 129.673  0.00  0.00    +0.038 C 
ATOM     30  C   LIG A   1     -12.379   8.588 129.657  0.00  0.00    -0.080 C 
ATOM     31  C   LIG A   1     -11.356   8.445 128.570  0.00  0.00    +0.038 C 
ATOM     32  C   LIG A   1     -12.682   7.635 130.595  0.00  0.00    -0.025 C 
ENDBRANCH  28  32
ENDBRANCH  27  28
ENDBRANCH  26  27
ENDBRANCH  18  26
ENDBRANCH   1  21
TORSDOF 7
ENDMDL
MODEL 6
REMARK VINA RESULT:      -8.4      3.781      4.724
REMARK  Name = NuBBE_1585
REMARK  10 active torsions:
REMARK  status: ('A' for Active; 'I' for Inactive)
REMARK    1  A    between atoms: C_1  and  C_2
REMARK    2  A    between atoms: C_2  and  C_3
REMARK    3  A    between atoms: C_4  and  C_5
REMARK    4  A    between atoms: C_5  and  C_6
REMARK    5  A    between atoms: C_6  and  O_7
REMARK    6  A    between atoms: O_7  and  C_8
REMARK    7  A    between atoms: C_9  and  O_10
REMARK    8  A    between atoms: O_10  and  C_11
REMARK    9  A    between atoms: C_13  and  C_14
REMARK   10  A    between atoms: C_20  and  C_22
REMARK                            x       y       z     vdW  Elec       q    Type
REMARK                         _______ _______ _______ _____ _____    ______ ____
ROOT
ATOM      1  C   LIG A   1      -5.782   3.453 131.673  0.00  0.00    +0.154 C 
ATOM      2  C   LIG A   1      -7.157   4.081 131.772  0.00  0.00    +0.056 C 
ATOM      3  C   LIG A   1      -6.875   5.561 131.808  0.00  0.00    +0.056 C 
ATOM      4  C   LIG A   1      -8.078   6.143 132.534  0.00  0.00    +0.154 C 
ATOM      5  O   LIG A   1      -8.480   5.120 133.471  0.00  0.00    -0.371 OA
ATOM      6  C   LIG A   1      -7.822   3.884 133.135  0.00  0.00    +0.167 C 
ATOM      7  C   LIG A   1      -5.581   5.607 132.620  0.00  0.00    +0.167 C 
ATOM      8  O   LIG A   1      -4.945   4.318 132.489  0.00  0.00    -0.371 OA
ENDROOT
BRANCH   4   9
ATOM      9  C   LIG A   1      -9.240   6.512 131.614  0.00  0.00    -0.015 A 
ATOM     10  C   LIG A   1     -10.576   6.179 131.954  0.00  0.00    +0.010 A 
ATOM     11  C   LIG A   1     -11.654   6.533 131.135  0.00  0.00    +0.050 A 
ATOM     12  C   LIG A   1     -11.380   7.228 129.981  0.00  0.00    +0.166 A 
ATOM     13  O   LIG A   1     -12.300   7.659 129.077  0.00  0.00    -0.453 OA
ATOM     14  C   LIG A   1     -11.448   8.317 128.118  0.00  0.00    +0.466 C 
ATOM     15  O   LIG A   1     -10.046   8.260 128.462  0.00  0.00    -0.453 OA
ATOM     16  C   LIG A   1     -10.095   7.570 129.635  0.00  0.00    +0.167 A 
ATOM     17  C   LIG A   1      -9.011   7.232 130.425  0.00  0.00    +0.055 A 
ENDBRANCH   4   9
BRANCH   1  21
ATOM     18  C   LIG A   1      -4.420   3.474 127.530  0.00  0.00    +0.162 A 
ATOM     19  C   LIG A   1      -3.662   4.158 128.501  0.00  0.00    +0.162 A 
ATOM     20  C   LIG A   1      -4.059   4.110 129.863  0.00  0.00    +0.055 A 
ATOM     21  C   LIG A   1      -5.175   3.356 130.274  0.00  0.00    -0.015 A 
ATOM     22  C   LIG A   1      -5.816   2.586 129.300  0.00  0.00    +0.010 A 
ATOM     23  C   LIG A   1      -5.482   2.684 127.954  0.00  0.00    +0.050 A 
BRANCH  19  24
ATOM     24  O   LIG A   1      -2.542   4.927 128.274  0.00  0.00    -0.491 OA
ATOM     25  C   LIG A   1      -2.731   6.335 128.138  0.00  0.00    +0.277 C 
ENDBRANCH  19  24
BRANCH  18  26
ATOM     26  O   LIG A   1      -4.192   3.703 126.199  0.00  0.00    -0.488 OA
BRANCH  26  27
ATOM     27  C   LIG A   1      -5.098   3.174 125.225  0.00  0.00    +0.233 C 
BRANCH  27  28
ATOM     28  C   LIG A   1      -5.726   4.304 124.393  0.00  0.00    +0.068 C 
BRANCH  28  32
ATOM     29  C   LIG A   1      -6.166   3.674 120.561  0.00  0.00    +0.038 C 
ATOM     30  C   LIG A   1      -5.559   4.148 121.847  0.00  0.00    -0.080 C 
ATOM     31  C   LIG A   1      -4.274   4.903 121.685  0.00  0.00    +0.038 C 
ATOM     32  C   LIG A   1      -6.185   3.888 123.038  0.00  0.00    -0.025 C 
ENDBRANCH  28  32
ENDBRANCH  27  28
ENDBRANCH  26  27
ENDBRANCH  18  26
ENDBRANCH   1  21
TORSDOF 7
ENDMDL
MODEL 7
REMARK VINA RESULT:      -8.2      5.124      6.712
REMARK  Name = NuBBE_1585
REMARK  10 active torsions:
REMARK  status: ('A' for Active; 'I' for Inactive)
REMARK    1  A    between atoms: C_1  and  C_2
REMARK    2  A    between atoms: C_2  and  C_3
REMARK    3  A    between atoms: C_4  and  C_5
REMARK    4  A    between atoms: C_5  and  C_6
REMARK    5  A    between atoms: C_6  and  O_7
REMARK    6  A    between atoms: O_7  and  C_8
REMARK    7  A    between atoms: C_9  and  O_10
REMARK    8  A    between atoms: O_10  and  C_11
REMARK    9  A    between atoms: C_13  and  C_14
REMARK   10  A    between atoms: C_20  and  C_22
REMARK                            x       y       z     vdW  Elec       q    Type
REMARK                         _______ _______ _______ _____ _____    ______ ____
ROOT
ATOM      1  C   LIG A   1      -7.680  -2.633 130.085  0.00  0.00    +0.154 C 
ATOM      2  C   LIG A   1      -6.973  -1.451 130.717  0.00  0.00    +0.056 C 
ATOM      3  C   LIG A   1      -5.514  -1.716 130.443  0.00  0.00    +0.056 C 
ATOM      4  C   LIG A   1      -4.795  -0.973 131.557  0.00  0.00    +0.154 C 
ATOM      5  O   LIG A   1      -5.687  -1.041 132.690  0.00  0.00    -0.371 OA
ATOM      6  C   LIG A   1      -6.985  -1.478 132.245  0.00  0.00    +0.167 C 
ATOM      7  C   LIG A   1      -5.449  -3.237 130.572  0.00  0.00    +0.167 C 
ATOM      8  O   LIG A   1      -6.777  -3.748 130.324  0.00  0.00    -0.371 OA
ENDROOT
BRANCH   4   9
ATOM      9  C   LIG A   1      -4.467   0.481 131.223  0.00  0.00    -0.015 A 
ATOM     10  C   LIG A   1      -4.231   1.432 132.248  0.00  0.00    +0.010 A 
ATOM     11  C   LIG A   1      -3.904   2.761 131.959  0.00  0.00    +0.050 A 
ATOM     12  C   LIG A   1      -3.807   3.123 130.636  0.00  0.00    +0.166 A 
ATOM     13  O   LIG A   1      -3.492   4.363 130.173  0.00  0.00    -0.453 OA
ATOM     14  C   LIG A   1      -3.527   4.136 128.750  0.00  0.00    +0.466 C 
ATOM     15  O   LIG A   1      -3.868   2.779 128.393  0.00  0.00    -0.453 OA
ATOM     16  C   LIG A   1      -4.022   2.218 129.625  0.00  0.00    +0.167 A 
ATOM     17  C   LIG A   1      -4.347   0.898 129.883  0.00  0.00    +0.055 A 
ENDBRANCH   4   9
BRANCH   1  21
ATOM     18  C   LIG A   1      -8.961  -2.375 125.925  0.00  0.00    +0.162 A 
ATOM     19  C   LIG A   1      -8.377  -1.245 126.530  0.00  0.00    +0.162 A 
ATOM     20  C   LIG A   1      -7.899  -1.331 127.864  0.00  0.00    +0.055 A 
ATOM     21  C   LIG A   1      -7.960  -2.539 128.586  0.00  0.00    -0.015 A 
ATOM     22  C   LIG A   1      -8.422  -3.666 127.902  0.00  0.00    +0.010 A 
ATOM     23  C   LIG A   1      -8.960  -3.576 126.623  0.00  0.00    +0.050 A 
BRANCH  19  24
ATOM     24  O   LIG A   1      -8.228   0.003 125.964  0.00  0.00    -0.491 OA
ATOM     25  C   LIG A   1      -9.383   0.839 125.912  0.00  0.00    +0.277 C 
ENDBRANCH  19  24
BRANCH  18  26
ATOM     26  O   LIG A   1      -9.634  -2.243 124.739  0.00  0.00    -0.488 OA
BRANCH  26  27
ATOM     27  C   LIG A   1      -9.058  -2.768 123.537  0.00  0.00    +0.233 C 
BRANCH  27  28
ATOM     28  C   LIG A   1      -7.755  -2.031 123.189  0.00  0.00    +0.068 C 
BRANCH  28  32
ATOM     29  C   LIG A   1      -4.390  -3.975 123.597  0.00  0.00    +0.038 C 
ATOM     30  C   LIG A   1      -5.524  -3.046 123.912  0.00  0.00    -0.080 C 
ATOM     31  C   LIG A   1      -5.383  -2.312 125.211  0.00  0.00    +0.038 C 
ATOM     32  C   LIG A   1      -6.569  -2.919 123.035  0.00  0.00    -0.025 C 
ENDBRANCH  28  32
ENDBRANCH  27  28
ENDBRANCH  26  27
ENDBRANCH  18  26
ENDBRANCH   1  21
TORSDOF 7
ENDMDL
MODEL 8
REMARK VINA RESULT:      -8.2      2.186      9.046
REMARK  Name = NuBBE_1585
REMARK  10 active torsions:
REMARK  status: ('A' for Active; 'I' for Inactive)
REMARK    1  A    between atoms: C_1  and  C_2
REMARK    2  A    between atoms: C_2  and  C_3
REMARK    3  A    between atoms: C_4  and  C_5
REMARK    4  A    between atoms: C_5  and  C_6
REMARK    5  A    between atoms: C_6  and  O_7
REMARK    6  A    between atoms: O_7  and  C_8
REMARK    7  A    between atoms: C_9  and  O_10
REMARK    8  A    between atoms: O_10  and  C_11
REMARK    9  A    between atoms: C_13  and  C_14
REMARK   10  A    between atoms: C_20  and  C_22
REMARK                            x       y       z     vdW  Elec       q    Type
REMARK                         _______ _______ _______ _____ _____    ______ ____
ROOT
ATOM      1  C   LIG A   1      -6.642   0.079 131.091  0.00  0.00    +0.154 C 
ATOM      2  C   LIG A   1      -6.398  -0.702 129.815  0.00  0.00    +0.056 C 
ATOM      3  C   LIG A   1      -7.577  -1.638 129.734  0.00  0.00    +0.056 C 
ATOM      4  C   LIG A   1      -7.060  -2.804 128.908  0.00  0.00    +0.154 C 
ATOM      5  O   LIG A   1      -5.655  -2.897 129.230  0.00  0.00    -0.371 OA
ATOM      6  C   LIG A   1      -5.247  -1.703 129.922  0.00  0.00    +0.167 C 
ATOM      7  C   LIG A   1      -7.802  -1.976 131.208  0.00  0.00    +0.167 C 
ATOM      8  O   LIG A   1      -7.240  -0.898 131.988  0.00  0.00    -0.371 OA
ENDROOT
BRANCH   4   9
ATOM      9  C   LIG A   1      -7.251  -2.630 127.402  0.00  0.00    -0.015 A 
ATOM     10  C   LIG A   1      -6.179  -2.215 126.572  0.00  0.00    +0.010 A 
ATOM     11  C   LIG A   1      -6.331  -2.077 125.188  0.00  0.00    +0.050 A 
ATOM     12  C   LIG A   1      -7.562  -2.366 124.646  0.00  0.00    +0.166 A 
ATOM     13  O   LIG A   1      -7.885  -2.296 123.327  0.00  0.00    -0.453 OA
ATOM     14  C   LIG A   1      -9.262  -2.718 123.364  0.00  0.00    +0.466 C 
ATOM     15  O   LIG A   1      -9.735  -3.021 124.696  0.00  0.00    -0.453 OA
ATOM     16  C   LIG A   1      -8.612  -2.779 125.429  0.00  0.00    +0.167 A 
ATOM     17  C   LIG A   1      -8.491  -2.924 126.800  0.00  0.00    +0.055 A 
ENDBRANCH   4   9
BRANCH   1  21
ATOM     18  C   LIG A   1      -9.656   3.200 130.656  0.00  0.00    +0.162 A 
ATOM     19  C   LIG A   1      -9.206   2.861 131.948  0.00  0.00    +0.162 A 
ATOM     20  C   LIG A   1      -8.182   1.890 132.102  0.00  0.00    +0.055 A 
ATOM     21  C   LIG A   1      -7.573   1.285 130.985  0.00  0.00    -0.015 A 
ATOM     22  C   LIG A   1      -7.955   1.749 129.724  0.00  0.00    +0.010 A 
ATOM     23  C   LIG A   1      -9.006   2.644 129.561  0.00  0.00    +0.050 A 
BRANCH  19  24
ATOM     24  O   LIG A   1      -9.681   3.364 133.140  0.00  0.00    -0.491 OA
ATOM     25  C   LIG A   1      -8.725   3.917 134.043  0.00  0.00    +0.277 C 
ENDBRANCH  19  24
BRANCH  18  26
ATOM     26  O   LIG A   1     -10.792   3.949 130.504  0.00  0.00    -0.488 OA
BRANCH  26  27
ATOM     27  C   LIG A   1     -10.689   5.370 130.358  0.00  0.00    +0.233 C 
BRANCH  27  28
ATOM     28  C   LIG A   1     -11.896   6.074 130.997  0.00  0.00    +0.068 C 
BRANCH  28  32
ATOM     29  C   LIG A   1     -12.932   9.302 129.054  0.00  0.00    +0.038 C 
ATOM     30  C   LIG A   1     -12.818   7.850 129.407  0.00  0.00    -0.080 C 
ATOM     31  C   LIG A   1     -13.505   6.923 128.451  0.00  0.00    +0.038 C 
ATOM     32  C   LIG A   1     -12.118   7.468 130.522  0.00  0.00    -0.025 C 
ENDBRANCH  28  32
ENDBRANCH  27  28
ENDBRANCH  26  27
ENDBRANCH  18  26
ENDBRANCH   1  21
TORSDOF 7
ENDMDL
MODEL 9
REMARK VINA RESULT:      -8.2      1.630      2.508
REMARK  Name = NuBBE_1585
REMARK  10 active torsions:
REMARK  status: ('A' for Active; 'I' for Inactive)
REMARK    1  A    between atoms: C_1  and  C_2
REMARK    2  A    between atoms: C_2  and  C_3
REMARK    3  A    between atoms: C_4  and  C_5
REMARK    4  A    between atoms: C_5  and  C_6
REMARK    5  A    between atoms: C_6  and  O_7
REMARK    6  A    between atoms: O_7  and  C_8
REMARK    7  A    between atoms: C_9  and  O_10
REMARK    8  A    between atoms: O_10  and  C_11
REMARK    9  A    between atoms: C_13  and  C_14
REMARK   10  A    between atoms: C_20  and  C_22
REMARK                            x       y       z     vdW  Elec       q    Type
REMARK                         _______ _______ _______ _____ _____    ______ ____
ROOT
ATOM      1  C   LIG A   1      -8.174   1.890 132.433  0.00  0.00    +0.154 C 
ATOM      2  C   LIG A   1      -8.959   3.186 132.423  0.00  0.00    +0.056 C 
ATOM      3  C   LIG A   1      -8.002   4.183 131.822  0.00  0.00    +0.056 C 
ATOM      4  C   LIG A   1      -8.468   5.517 132.380  0.00  0.00    +0.154 C 
ATOM      5  O   LIG A   1      -8.993   5.213 133.691  0.00  0.00    -0.371 OA
ATOM      6  C   LIG A   1      -9.161   3.788 133.814  0.00  0.00    +0.167 C 
ATOM      7  C   LIG A   1      -6.666   3.707 132.393  0.00  0.00    +0.167 C 
ATOM      8  O   LIG A   1      -6.813   2.310 132.726  0.00  0.00    -0.371 OA
ENDROOT
BRANCH   4   9
ATOM      9  C   LIG A   1      -9.530   6.209 131.528  0.00  0.00    -0.015 A 
ATOM     10  C   LIG A   1     -10.881   6.273 131.953  0.00  0.00    +0.010 A 
ATOM     11  C   LIG A   1     -11.861   6.926 131.196  0.00  0.00    +0.050 A 
ATOM     12  C   LIG A   1     -11.471   7.519 130.018  0.00  0.00    +0.166 A 
ATOM     13  O   LIG A   1     -12.283   8.200 129.166  0.00  0.00    -0.453 OA
ATOM     14  C   LIG A   1     -11.339   8.591 128.149  0.00  0.00    +0.466 C 
ATOM     15  O   LIG A   1      -9.994   8.132 128.408  0.00  0.00    -0.453 OA
ATOM     16  C   LIG A   1     -10.167   7.479 129.591  0.00  0.00    +0.167 A 
ATOM     17  C   LIG A   1      -9.178   6.840 130.318  0.00  0.00    +0.055 A 
ENDBRANCH   4   9
BRANCH   1  21
ATOM     18  C   LIG A   1      -7.696  -0.270 128.675  0.00  0.00    +0.162 A 
ATOM     19  C   LIG A   1      -7.810  -1.003 129.873  0.00  0.00    +0.162 A 
ATOM     20  C   LIG A   1      -8.027  -0.317 131.098  0.00  0.00    +0.055 A 
ATOM     21  C   LIG A   1      -8.173   1.083 131.136  0.00  0.00    -0.015 A 
ATOM     22  C   LIG A   1      -8.188   1.755 129.910  0.00  0.00    +0.010 A 
ATOM     23  C   LIG A   1      -7.903   1.104 128.716  0.00  0.00    +0.050 A 
BRANCH  19  24
ATOM     24  O   LIG A   1      -7.705  -2.370 130.012  0.00  0.00    -0.491 OA
ATOM     25  C   LIG A   1      -6.500  -2.879 130.581  0.00  0.00    +0.277 C 
ENDBRANCH  19  24
BRANCH  18  26
ATOM     26  O   LIG A   1      -7.254  -0.889 127.536  0.00  0.00    -0.488 OA
BRANCH  26  27
ATOM     27  C   LIG A   1      -8.197  -1.531 126.669  0.00  0.00    +0.233 C 
BRANCH  27  28
ATOM     28  C   LIG A   1      -7.683  -1.546 125.221  0.00  0.00    +0.068 C 
BRANCH  28  32
ATOM     29  C   LIG A   1      -4.750  -3.650 123.723  0.00  0.00    +0.038 C 
ATOM     30  C   LIG A   1      -5.883  -2.671 123.797  0.00  0.00    -0.080 C 
ATOM     31  C   LIG A   1      -6.205  -1.995 122.499  0.00  0.00    +0.038 C 
ATOM     32  C   LIG A   1      -6.534  -2.464 124.986  0.00  0.00    -0.025 C 
ENDBRANCH  28  32
ENDBRANCH  27  28
ENDBRANCH  26  27
ENDBRANCH  18  26
ENDBRANCH   1  21
TORSDOF 7
ENDMDL
