MODEL 1
REMARK VINA RESULT:      -9.0      0.000      0.000
REMARK  Name = NuBBE_613
REMARK  10 active torsions:
REMARK  status: ('A' for Active; 'I' for Inactive)
REMARK    1  A    between atoms: C_1  and  C_2
REMARK    2  A    between atoms: C_10  and  C_12
REMARK    3  A    between atoms: C_14  and  C_16
REMARK    4  A    between atoms: C_16  and  C_17
REMARK    5  A    between atoms: C_25  and  O_46
REMARK    6  A    between atoms: C_32  and  C_44
REMARK    7  A    between atoms: C_32  and  O_45
REMARK    8  A    between atoms: C_34  and  C_36
REMARK    9  A    between atoms: O_46  and  C_47
REMARK   10  A    between atoms: C_47  and  C_48
REMARK                            x       y       z     vdW  Elec       q    Type
REMARK                         _______ _______ _______ _____ _____    ______ ____
ROOT
ATOM      1  C   LIG A   1     -10.343   3.417 130.240  0.00  0.00    +0.044 C 
ATOM      2  C   LIG A   1      -8.926   2.943 130.389  0.00  0.00    +0.097 C 
ATOM      3  O   LIG A   1      -8.552   2.865 131.775  0.00  0.00    -0.364 OA
ATOM      4  C   LIG A   1      -7.874   3.856 130.991  0.00  0.00    +0.158 C 
ATOM      5  C   LIG A   1      -6.377   3.638 130.865  0.00  0.00    +0.071 C 
ATOM      6  C   LIG A   1      -5.929   2.431 129.971  0.00  0.00    +0.099 C 
ATOM      7  C   LIG A   1      -7.067   1.338 130.020  0.00  0.00    +0.034 C 
ATOM      8  C   LIG A   1      -8.477   1.747 129.564  0.00  0.00    +0.026 C 
ATOM      9  C   LIG A   1      -8.647   2.030 128.079  0.00  0.00    +0.011 C 
ATOM     10  C   LIG A   1      -6.413   0.028 129.578  0.00  0.00    +0.082 C 
ATOM     11  N   LIG A   1      -5.119   0.201 130.207  0.00  0.00    -0.311 N 
ATOM     12  H   LIG A   1      -4.455  -0.534 130.416  0.00  0.00    +0.149 HD
ATOM     13  C   LIG A   1      -5.350   2.990 128.577  0.00  0.00    +0.223 C 
ATOM     14  C   LIG A   1      -3.863   3.410 128.629  0.00  0.00    +0.192 C 
ATOM     15  C   LIG A   1      -3.068   4.720 128.936  0.00  0.00    +0.190 C 
ATOM     16  O   LIG A   1      -3.562   4.406 127.631  0.00  0.00    -0.361 OA
ATOM     17  C   LIG A   1      -3.481   6.059 129.497  0.00  0.00    +0.149 C 
ATOM     18  C   LIG A   1      -2.960   6.303 130.957  0.00  0.00    +0.170 C 
ATOM     19  C   LIG A   1      -2.760   5.116 131.906  0.00  0.00    +0.058 C 
ATOM     20  C   LIG A   1      -1.326   5.101 132.425  0.00  0.00    +0.015 C 
ATOM     21  C   LIG A   1      -3.768   5.185 133.073  0.00  0.00    +0.045 C 
ATOM     22  C   LIG A   1      -5.147   5.121 132.522  0.00  0.00    +0.148 C 
ATOM     23  C   LIG A   1      -5.678   3.747 132.195  0.00  0.00    +0.154 C 
ATOM     24  O   LIG A   1      -6.218   4.553 133.260  0.00  0.00    -0.368 OA
ATOM     25  O   LIG A   1      -2.808   7.454 131.386  0.00  0.00    -0.294 OA
ATOM     26  C   LIG A   1      -2.882   7.180 128.621  0.00  0.00    +0.052 C 
ATOM     27  C   LIG A   1      -4.801   1.522 130.501  0.00  0.00    +0.224 C 
ATOM     28  O   LIG A   1      -3.760   1.851 131.010  0.00  0.00    -0.275 OA
ENDROOT
BRANCH  17  29
ATOM     29  O   LIG A   1      -4.895   6.211 129.465  0.00  0.00    -0.379 OA
ATOM     30  H   LIG A   1      -5.144   6.342 128.531  0.00  0.00    +0.211 HD
ENDBRANCH  17  29
BRANCH  10  31
ATOM     31  C   LIG A   1      -7.138  -1.261 130.032  0.00  0.00    +0.057 C 
BRANCH  31  32
ATOM     32  C   LIG A   1      -7.799  -2.095 128.941  0.00  0.00    -0.046 A 
ATOM     33  C   LIG A   1      -8.386  -3.348 129.176  0.00  0.00    +0.003 A 
ATOM     34  C   LIG A   1      -8.967  -4.085 128.142  0.00  0.00    +0.000 A 
ATOM     35  C   LIG A   1      -8.965  -3.587 126.844  0.00  0.00    +0.000 A 
ATOM     36  C   LIG A   1      -8.389  -2.347 126.584  0.00  0.00    +0.000 A 
ATOM     37  C   LIG A   1      -7.813  -1.606 127.623  0.00  0.00    +0.003 A 
ENDBRANCH  31  32
ENDBRANCH  10  31
BRANCH  13  38
ATOM     38  O   LIG A   1      -5.429   1.959 127.536  0.00  0.00    -0.458 OA
BRANCH  38  39
ATOM     39  C   LIG A   1      -5.898   2.317 126.307  0.00  0.00    +0.304 C 
ATOM     40  C   LIG A   1      -6.169   1.120 125.439  0.00  0.00    +0.136 C 
ATOM     41  O   LIG A   1      -6.167   3.460 125.958  0.00  0.00    -0.251 OA
ENDBRANCH  38  39
ENDBRANCH  13  38
TORSDOF 5
ENDMDL
MODEL 2
REMARK VINA RESULT:      -8.9      3.788      6.650
REMARK  Name = NuBBE_613
REMARK  10 active torsions:
REMARK  status: ('A' for Active; 'I' for Inactive)
REMARK    1  A    between atoms: C_1  and  C_2
REMARK    2  A    between atoms: C_10  and  C_12
REMARK    3  A    between atoms: C_14  and  C_16
REMARK    4  A    between atoms: C_16  and  C_17
REMARK    5  A    between atoms: C_25  and  O_46
REMARK    6  A    between atoms: C_32  and  C_44
REMARK    7  A    between atoms: C_32  and  O_45
REMARK    8  A    between atoms: C_34  and  C_36
REMARK    9  A    between atoms: O_46  and  C_47
REMARK   10  A    between atoms: C_47  and  C_48
REMARK                            x       y       z     vdW  Elec       q    Type
REMARK                         _______ _______ _______ _____ _____    ______ ____
ROOT
ATOM      1  C   LIG A   1      -8.917   1.418 131.029  0.00  0.00    +0.044 C 
ATOM      2  C   LIG A   1      -8.027   1.056 129.875  0.00  0.00    +0.097 C 
ATOM      3  O   LIG A   1      -7.082   2.105 129.605  0.00  0.00    -0.364 OA
ATOM      4  C   LIG A   1      -8.070   1.867 128.593  0.00  0.00    +0.158 C 
ATOM      5  C   LIG A   1      -7.505   1.399 127.264  0.00  0.00    +0.071 C 
ATOM      6  C   LIG A   1      -6.930  -0.058 127.235  0.00  0.00    +0.099 C 
ATOM      7  C   LIG A   1      -6.414  -0.410 128.684  0.00  0.00    +0.034 C 
ATOM      8  C   LIG A   1      -7.422  -0.339 129.843  0.00  0.00    +0.026 C 
ATOM      9  C   LIG A   1      -8.516  -1.395 129.847  0.00  0.00    +0.011 C 
ATOM     10  C   LIG A   1      -5.444  -1.579 128.515  0.00  0.00    +0.082 C 
ATOM     11  N   LIG A   1      -4.826  -1.180 127.268  0.00  0.00    -0.311 N 
ATOM     12  H   LIG A   1      -3.936  -1.505 126.911  0.00  0.00    +0.149 HD
ATOM     13  C   LIG A   1      -7.953  -1.016 126.444  0.00  0.00    +0.223 C 
ATOM     14  C   LIG A   1      -7.786  -0.997 124.907  0.00  0.00    +0.192 C 
ATOM     15  C   LIG A   1      -8.379  -0.178 123.716  0.00  0.00    +0.190 C 
ATOM     16  O   LIG A   1      -9.014  -1.348 124.239  0.00  0.00    -0.361 OA
ATOM     17  C   LIG A   1      -9.229   1.067 123.654  0.00  0.00    +0.149 C 
ATOM     18  C   LIG A   1      -8.446   2.324 123.135  0.00  0.00    +0.170 C 
ATOM     19  C   LIG A   1      -6.942   2.451 123.401  0.00  0.00    +0.058 C 
ATOM     20  C   LIG A   1      -6.196   2.637 122.084  0.00  0.00    +0.015 C 
ATOM     21  C   LIG A   1      -6.663   3.624 124.364  0.00  0.00    +0.045 C 
ATOM     22  C   LIG A   1      -7.348   3.360 125.656  0.00  0.00    +0.148 C 
ATOM     23  C   LIG A   1      -6.635   2.447 126.622  0.00  0.00    +0.154 C 
ATOM     24  O   LIG A   1      -6.834   3.850 126.885  0.00  0.00    -0.368 OA
ATOM     25  O   LIG A   1      -9.049   3.267 122.606  0.00  0.00    -0.294 OA
ATOM     26  C   LIG A   1     -10.394   0.835 122.667  0.00  0.00    +0.052 C 
ATOM     27  C   LIG A   1      -5.583  -0.286 126.517  0.00  0.00    +0.224 C 
ATOM     28  O   LIG A   1      -5.231   0.139 125.448  0.00  0.00    -0.275 OA
ENDROOT
BRANCH  17  29
ATOM     29  O   LIG A   1      -9.806   1.356 124.923  0.00  0.00    -0.379 OA
ATOM     30  H   LIG A   1      -9.211   0.974 125.595  0.00  0.00    +0.211 HD
ENDBRANCH  17  29
BRANCH  10  31
ATOM     31  C   LIG A   1      -4.423  -1.767 129.663  0.00  0.00    +0.057 C 
BRANCH  31  32
ATOM     32  C   LIG A   1      -4.659  -2.942 130.604  0.00  0.00    -0.046 A 
ATOM     33  C   LIG A   1      -4.141  -3.003 131.907  0.00  0.00    +0.003 A 
ATOM     34  C   LIG A   1      -4.370  -4.108 132.730  0.00  0.00    +0.000 A 
ATOM     35  C   LIG A   1      -5.115  -5.184 132.262  0.00  0.00    +0.000 A 
ATOM     36  C   LIG A   1      -5.639  -5.149 130.973  0.00  0.00    +0.000 A 
ATOM     37  C   LIG A   1      -5.415  -4.038 130.151  0.00  0.00    +0.003 A 
ENDBRANCH  31  32
ENDBRANCH  10  31
BRANCH  13  38
ATOM     38  O   LIG A   1      -7.759  -2.416 126.840  0.00  0.00    -0.458 OA
BRANCH  38  39
ATOM     39  C   LIG A   1      -8.857  -3.218 126.934  0.00  0.00    +0.304 C 
ATOM     40  C   LIG A   1      -8.730  -4.216 128.052  0.00  0.00    +0.136 C 
ATOM     41  O   LIG A   1      -9.878  -3.103 126.267  0.00  0.00    -0.251 OA
ENDBRANCH  38  39
ENDBRANCH  13  38
TORSDOF 5
ENDMDL
MODEL 3
REMARK VINA RESULT:      -8.5      2.489      7.826
REMARK  Name = NuBBE_613
REMARK  10 active torsions:
REMARK  status: ('A' for Active; 'I' for Inactive)
REMARK    1  A    between atoms: C_1  and  C_2
REMARK    2  A    between atoms: C_10  and  C_12
REMARK    3  A    between atoms: C_14  and  C_16
REMARK    4  A    between atoms: C_16  and  C_17
REMARK    5  A    between atoms: C_25  and  O_46
REMARK    6  A    between atoms: C_32  and  C_44
REMARK    7  A    between atoms: C_32  and  O_45
REMARK    8  A    between atoms: C_34  and  C_36
REMARK    9  A    between atoms: O_46  and  C_47
REMARK   10  A    between atoms: C_47  and  C_48
REMARK                            x       y       z     vdW  Elec       q    Type
REMARK                         _______ _______ _______ _____ _____    ______ ____
ROOT
ATOM      1  C   LIG A   1      -9.187   3.866 130.375  0.00  0.00    +0.044 C 
ATOM      2  C   LIG A   1      -8.155   3.325 129.429  0.00  0.00    +0.097 C 
ATOM      3  O   LIG A   1      -8.264   3.949 128.138  0.00  0.00    -0.364 OA
ATOM      4  C   LIG A   1      -8.582   2.551 128.194  0.00  0.00    +0.158 C 
ATOM      5  C   LIG A   1      -7.658   1.666 127.376  0.00  0.00    +0.071 C 
ATOM      6  C   LIG A   1      -6.201   1.495 127.928  0.00  0.00    +0.099 C 
ATOM      7  C   LIG A   1      -5.829   2.797 128.738  0.00  0.00    +0.034 C 
ATOM      8  C   LIG A   1      -6.724   3.187 129.925  0.00  0.00    +0.026 C 
ATOM      9  C   LIG A   1      -6.667   2.272 131.138  0.00  0.00    +0.011 C 
ATOM     10  C   LIG A   1      -4.302   2.817 128.825  0.00  0.00    +0.082 C 
ATOM     11  N   LIG A   1      -3.996   2.297 127.508  0.00  0.00    -0.311 N 
ATOM     12  H   LIG A   1      -3.115   2.393 127.018  0.00  0.00    +0.149 HD
ATOM     13  C   LIG A   1      -6.046   0.025 128.567  0.00  0.00    +0.223 C 
ATOM     14  C   LIG A   1      -5.711  -1.082 127.543  0.00  0.00    +0.192 C 
ATOM     15  C   LIG A   1      -6.519  -2.078 126.649  0.00  0.00    +0.190 C 
ATOM     16  O   LIG A   1      -6.157  -2.375 128.000  0.00  0.00    -0.361 OA
ATOM     17  C   LIG A   1      -7.987  -2.192 126.315  0.00  0.00    +0.149 C 
ATOM     18  C   LIG A   1      -8.317  -1.784 124.836  0.00  0.00    +0.170 C 
ATOM     19  C   LIG A   1      -7.461  -0.729 124.125  0.00  0.00    +0.058 C 
ATOM     20  C   LIG A   1      -6.903  -1.303 122.827  0.00  0.00    +0.015 C 
ATOM     21  C   LIG A   1      -8.292   0.543 123.854  0.00  0.00    +0.045 C 
ATOM     22  C   LIG A   1      -8.749   1.106 125.151  0.00  0.00    +0.148 C 
ATOM     23  C   LIG A   1      -7.757   1.959 125.903  0.00  0.00    +0.154 C 
ATOM     24  O   LIG A   1      -8.963   2.498 125.326  0.00  0.00    -0.368 OA
ATOM     25  O   LIG A   1      -9.326  -2.226 124.272  0.00  0.00    -0.294 OA
ATOM     26  C   LIG A   1      -8.429  -3.663 126.476  0.00  0.00    +0.052 C 
ATOM     27  C   LIG A   1      -5.035   1.583 126.921  0.00  0.00    +0.224 C 
ATOM     28  O   LIG A   1      -4.950   1.067 125.838  0.00  0.00    -0.275 OA
ENDROOT
BRANCH  17  29
ATOM     29  O   LIG A   1      -8.776  -1.416 127.210  0.00  0.00    -0.379 OA
ATOM     30  H   LIG A   1      -8.887  -1.947 128.021  0.00  0.00    +0.211 HD
ENDBRANCH  17  29
BRANCH  10  31
ATOM     31  C   LIG A   1      -3.671   4.206 129.088  0.00  0.00    +0.057 C 
BRANCH  31  32
ATOM     32  C   LIG A   1      -3.039   4.422 130.458  0.00  0.00    -0.046 A 
ATOM     33  C   LIG A   1      -3.228   3.551 131.541  0.00  0.00    +0.003 A 
ATOM     34  C   LIG A   1      -2.641   3.798 132.784  0.00  0.00    +0.000 A 
ATOM     35  C   LIG A   1      -1.859   4.931 132.974  0.00  0.00    +0.000 A 
ATOM     36  C   LIG A   1      -1.657   5.812 131.915  0.00  0.00    +0.000 A 
ATOM     37  C   LIG A   1      -2.239   5.560 130.668  0.00  0.00    +0.003 A 
ENDBRANCH  31  32
ENDBRANCH  10  31
BRANCH  13  38
ATOM     38  O   LIG A   1      -4.949   0.001 129.542  0.00  0.00    -0.458 OA
BRANCH  38  39
ATOM     39  C   LIG A   1      -4.988  -0.933 130.534  0.00  0.00    +0.304 C 
ATOM     40  C   LIG A   1      -3.633  -1.528 130.798  0.00  0.00    +0.136 C 
ATOM     41  O   LIG A   1      -5.972  -1.206 131.211  0.00  0.00    -0.251 OA
ENDBRANCH  38  39
ENDBRANCH  13  38
TORSDOF 5
ENDMDL
MODEL 4
REMARK VINA RESULT:      -8.4      2.988      7.073
REMARK  Name = NuBBE_613
REMARK  10 active torsions:
REMARK  status: ('A' for Active; 'I' for Inactive)
REMARK    1  A    between atoms: C_1  and  C_2
REMARK    2  A    between atoms: C_10  and  C_12
REMARK    3  A    between atoms: C_14  and  C_16
REMARK    4  A    between atoms: C_16  and  C_17
REMARK    5  A    between atoms: C_25  and  O_46
REMARK    6  A    between atoms: C_32  and  C_44
REMARK    7  A    between atoms: C_32  and  O_45
REMARK    8  A    between atoms: C_34  and  C_36
REMARK    9  A    between atoms: O_46  and  C_47
REMARK   10  A    between atoms: C_47  and  C_48
REMARK                            x       y       z     vdW  Elec       q    Type
REMARK                         _______ _______ _______ _____ _____    ______ ____
ROOT
ATOM      1  C   LIG A   1      -3.224   4.638 131.161  0.00  0.00    +0.044 C 
ATOM      2  C   LIG A   1      -4.533   3.986 131.500  0.00  0.00    +0.097 C 
ATOM      3  O   LIG A   1      -4.639   3.750 132.915  0.00  0.00    -0.364 OA
ATOM      4  C   LIG A   1      -4.561   2.584 132.082  0.00  0.00    +0.158 C 
ATOM      5  C   LIG A   1      -5.794   1.699 132.126  0.00  0.00    +0.071 C 
ATOM      6  C   LIG A   1      -7.078   2.273 131.434  0.00  0.00    +0.099 C 
ATOM      7  C   LIG A   1      -7.013   3.847 131.510  0.00  0.00    +0.034 C 
ATOM      8  C   LIG A   1      -5.800   4.548 130.875  0.00  0.00    +0.026 C 
ATOM      9  C   LIG A   1      -5.714   4.498 129.358  0.00  0.00    +0.011 C 
ATOM     10  C   LIG A   1      -8.445   4.340 131.297  0.00  0.00    +0.082 C 
ATOM     11  N   LIG A   1      -9.149   3.300 132.018  0.00  0.00    -0.311 N 
ATOM     12  H   LIG A   1     -10.093   3.358 132.379  0.00  0.00    +0.149 HD
ATOM     13  C   LIG A   1      -7.320   1.500 130.043  0.00  0.00    +0.223 C 
ATOM     14  C   LIG A   1      -8.081   0.161 130.182  0.00  0.00    +0.192 C 
ATOM     15  C   LIG A   1      -7.699  -1.339 130.399  0.00  0.00    +0.190 C 
ATOM     16  O   LIG A   1      -7.764  -0.739 129.102  0.00  0.00    -0.361 OA
ATOM     17  C   LIG A   1      -6.400  -2.023 130.749  0.00  0.00    +0.149 C 
ATOM     18  C   LIG A   1      -6.378  -2.595 132.210  0.00  0.00    +0.170 C 
ATOM     19  C   LIG A   1      -7.189  -1.905 133.313  0.00  0.00    +0.058 C 
ATOM     20  C   LIG A   1      -8.138  -2.906 133.963  0.00  0.00    +0.015 C 
ATOM     21  C   LIG A   1      -6.245  -1.278 134.362  0.00  0.00    +0.045 C 
ATOM     22  C   LIG A   1      -5.395  -0.258 133.695  0.00  0.00    +0.148 C 
ATOM     23  C   LIG A   1      -6.011   1.104 133.492  0.00  0.00    +0.154 C 
ATOM     24  O   LIG A   1      -4.910   0.879 134.394  0.00  0.00    -0.368 OA
ATOM     25  O   LIG A   1      -5.629  -3.535 132.506  0.00  0.00    -0.294 OA
ATOM     26  C   LIG A   1      -6.190  -3.224 129.802  0.00  0.00    +0.052 C 
ATOM     27  C   LIG A   1      -8.423   2.124 132.177  0.00  0.00    +0.224 C 
ATOM     28  O   LIG A   1      -8.858   1.152 132.736  0.00  0.00    -0.275 OA
ENDROOT
BRANCH  17  29
ATOM     29  O   LIG A   1      -5.295  -1.145 130.565  0.00  0.00    -0.379 OA
ATOM     30  H   LIG A   1      -5.537  -0.297 130.982  0.00  0.00    +0.211 HD
ENDBRANCH  17  29
BRANCH  10  31
ATOM     31  C   LIG A   1      -8.746   5.759 131.836  0.00  0.00    +0.057 C 
BRANCH  31  32
ATOM     32  C   LIG A   1      -9.964   6.468 131.257  0.00  0.00    -0.046 A 
ATOM     33  C   LIG A   1     -11.237   6.421 131.847  0.00  0.00    +0.003 A 
ATOM     34  C   LIG A   1     -12.329   7.074 131.271  0.00  0.00    +0.000 A 
ATOM     35  C   LIG A   1     -12.175   7.781 130.085  0.00  0.00    +0.000 A 
ATOM     36  C   LIG A   1     -10.923   7.843 129.480  0.00  0.00    +0.000 A 
ATOM     37  C   LIG A   1      -9.827   7.194 130.060  0.00  0.00    +0.003 A 
ENDBRANCH  31  32
ENDBRANCH  10  31
BRANCH  13  38
ATOM     38  O   LIG A   1      -8.133   2.317 129.135  0.00  0.00    -0.458 OA
BRANCH  38  39
ATOM     39  C   LIG A   1      -8.116   2.015 127.805  0.00  0.00    +0.304 C 
ATOM     40  C   LIG A   1      -6.717   1.959 127.259  0.00  0.00    +0.136 C 
ATOM     41  O   LIG A   1      -9.099   1.725 127.133  0.00  0.00    -0.251 OA
ENDBRANCH  38  39
ENDBRANCH  13  38
TORSDOF 5
ENDMDL
MODEL 5
REMARK VINA RESULT:      -8.2      2.509      6.875
REMARK  Name = NuBBE_613
REMARK  10 active torsions:
REMARK  status: ('A' for Active; 'I' for Inactive)
REMARK    1  A    between atoms: C_1  and  C_2
REMARK    2  A    between atoms: C_10  and  C_12
REMARK    3  A    between atoms: C_14  and  C_16
REMARK    4  A    between atoms: C_16  and  C_17
REMARK    5  A    between atoms: C_25  and  O_46
REMARK    6  A    between atoms: C_32  and  C_44
REMARK    7  A    between atoms: C_32  and  O_45
REMARK    8  A    between atoms: C_34  and  C_36
REMARK    9  A    between atoms: O_46  and  C_47
REMARK   10  A    between atoms: C_47  and  C_48
REMARK                            x       y       z     vdW  Elec       q    Type
REMARK                         _______ _______ _______ _____ _____    ______ ____
ROOT
ATOM      1  C   LIG A   1      -2.732   4.799 130.803  0.00  0.00    +0.044 C 
ATOM      2  C   LIG A   1      -4.090   4.175 130.663  0.00  0.00    +0.097 C 
ATOM      3  O   LIG A   1      -4.455   3.463 131.858  0.00  0.00    -0.364 OA
ATOM      4  C   LIG A   1      -4.244   2.665 130.685  0.00  0.00    +0.158 C 
ATOM      5  C   LIG A   1      -5.477   1.922 130.203  0.00  0.00    +0.071 C 
ATOM      6  C   LIG A   1      -6.606   2.802 129.564  0.00  0.00    +0.099 C 
ATOM      7  C   LIG A   1      -6.533   4.238 130.214  0.00  0.00    +0.034 C 
ATOM      8  C   LIG A   1      -5.215   5.020 130.085  0.00  0.00    +0.026 C 
ATOM      9  C   LIG A   1      -4.855   5.503 128.689  0.00  0.00    +0.011 C 
ATOM     10  C   LIG A   1      -7.895   4.886 129.962  0.00  0.00    +0.082 C 
ATOM     11  N   LIG A   1      -8.733   3.717 130.132  0.00  0.00    -0.311 N 
ATOM     12  H   LIG A   1      -9.726   3.718 130.329  0.00  0.00    +0.149 HD
ATOM     13  C   LIG A   1      -6.602   2.593 127.968  0.00  0.00    +0.223 C 
ATOM     14  C   LIG A   1      -7.394   1.356 127.487  0.00  0.00    +0.192 C 
ATOM     15  C   LIG A   1      -7.080  -0.149 127.206  0.00  0.00    +0.190 C 
ATOM     16  O   LIG A   1      -6.899   0.873 126.222  0.00  0.00    -0.361 OA
ATOM     17  C   LIG A   1      -5.876  -1.013 127.493  0.00  0.00    +0.149 C 
ATOM     18  C   LIG A   1      -6.128  -2.064 128.630  0.00  0.00    +0.170 C 
ATOM     19  C   LIG A   1      -7.115  -1.747 129.759  0.00  0.00    +0.058 C 
ATOM     20  C   LIG A   1      -8.181  -2.835 129.837  0.00  0.00    +0.015 C 
ATOM     21  C   LIG A   1      -6.369  -1.608 131.103  0.00  0.00    +0.045 C 
ATOM     22  C   LIG A   1      -5.397  -0.488 131.000  0.00  0.00    +0.148 C 
ATOM     23  C   LIG A   1      -5.947   0.901 131.205  0.00  0.00    +0.154 C 
ATOM     24  O   LIG A   1      -5.031   0.286 132.132  0.00  0.00    -0.368 OA
ATOM     25  O   LIG A   1      -5.459  -3.104 128.685  0.00  0.00    -0.294 OA
ATOM     26  C   LIG A   1      -5.514  -1.814 126.223  0.00  0.00    +0.052 C 
ATOM     27  C   LIG A   1      -8.065   2.508 129.971  0.00  0.00    +0.224 C 
ATOM     28  O   LIG A   1      -8.608   1.438 130.062  0.00  0.00    -0.275 OA
ENDROOT
BRANCH  17  29
ATOM     29  O   LIG A   1      -4.743  -0.217 127.823  0.00  0.00    -0.379 OA
ATOM     30  H   LIG A   1      -4.356   0.086 126.981  0.00  0.00    +0.211 HD
ENDBRANCH  17  29
BRANCH  10  31
ATOM     31  C   LIG A   1      -8.268   6.042 130.921  0.00  0.00    +0.057 C 
BRANCH  31  32
ATOM     32  C   LIG A   1      -9.682   6.597 130.806  0.00  0.00    -0.046 A 
ATOM     33  C   LIG A   1     -10.703   6.305 131.724  0.00  0.00    +0.003 A 
ATOM     34  C   LIG A   1     -11.990   6.825 131.570  0.00  0.00    +0.000 A 
ATOM     35  C   LIG A   1     -12.288   7.642 130.486  0.00  0.00    +0.000 A 
ATOM     36  C   LIG A   1     -11.294   7.946 129.561  0.00  0.00    +0.000 A 
ATOM     37  C   LIG A   1     -10.002   7.431 129.720  0.00  0.00    +0.003 A 
ENDBRANCH  31  32
ENDBRANCH  10  31
BRANCH  13  38
ATOM     38  O   LIG A   1      -7.224   3.740 127.297  0.00  0.00    -0.458 OA
BRANCH  38  39
ATOM     39  C   LIG A   1      -6.875   3.998 126.005  0.00  0.00    +0.304 C 
ATOM     40  C   LIG A   1      -8.076   4.077 125.104  0.00  0.00    +0.136 C 
ATOM     41  O   LIG A   1      -5.739   4.238 125.612  0.00  0.00    -0.251 OA
ENDBRANCH  38  39
ENDBRANCH  13  38
TORSDOF 5
ENDMDL
MODEL 6
REMARK VINA RESULT:      -8.2      3.032      6.205
REMARK  Name = NuBBE_613
REMARK  10 active torsions:
REMARK  status: ('A' for Active; 'I' for Inactive)
REMARK    1  A    between atoms: C_1  and  C_2
REMARK    2  A    between atoms: C_10  and  C_12
REMARK    3  A    between atoms: C_14  and  C_16
REMARK    4  A    between atoms: C_16  and  C_17
REMARK    5  A    between atoms: C_25  and  O_46
REMARK    6  A    between atoms: C_32  and  C_44
REMARK    7  A    between atoms: C_32  and  O_45
REMARK    8  A    between atoms: C_34  and  C_36
REMARK    9  A    between atoms: O_46  and  C_47
REMARK   10  A    between atoms: C_47  and  C_48
REMARK                            x       y       z     vdW  Elec       q    Type
REMARK                         _______ _______ _______ _____ _____    ______ ____
ROOT
ATOM      1  C   LIG A   1      -9.744   2.122 131.593  0.00  0.00    +0.044 C 
ATOM      2  C   LIG A   1      -8.548   2.101 130.686  0.00  0.00    +0.097 C 
ATOM      3  O   LIG A   1      -8.061   3.432 130.445  0.00  0.00    -0.364 OA
ATOM      4  C   LIG A   1      -8.617   2.747 129.314  0.00  0.00    +0.158 C 
ATOM      5  C   LIG A   1      -7.628   2.485 128.193  0.00  0.00    +0.071 C 
ATOM      6  C   LIG A   1      -6.532   1.402 128.480  0.00  0.00    +0.099 C 
ATOM      7  C   LIG A   1      -6.262   1.380 130.035  0.00  0.00    +0.034 C 
ATOM      8  C   LIG A   1      -7.449   1.088 130.967  0.00  0.00    +0.026 C 
ATOM      9  C   LIG A   1      -8.005  -0.327 130.922  0.00  0.00    +0.011 C 
ATOM     10  C   LIG A   1      -4.897   0.715 130.216  0.00  0.00    +0.082 C 
ATOM     11  N   LIG A   1      -4.223   1.266 129.059  0.00  0.00    -0.311 N 
ATOM     12  H   LIG A   1      -3.222   1.323 128.922  0.00  0.00    +0.149 HD
ATOM     13  C   LIG A   1      -6.885   0.061 127.661  0.00  0.00    +0.223 C 
ATOM     14  C   LIG A   1      -6.395   0.064 126.195  0.00  0.00    +0.192 C 
ATOM     15  C   LIG A   1      -6.978   0.492 124.810  0.00  0.00    +0.190 C 
ATOM     16  O   LIG A   1      -7.198  -0.805 125.371  0.00  0.00    -0.361 OA
ATOM     17  C   LIG A   1      -8.214   1.262 124.414  0.00  0.00    +0.149 C 
ATOM     18  C   LIG A   1      -7.898   2.700 123.872  0.00  0.00    +0.170 C 
ATOM     19  C   LIG A   1      -6.670   3.459 124.388  0.00  0.00    +0.058 C 
ATOM     20  C   LIG A   1      -5.782   3.866 123.217  0.00  0.00    +0.015 C 
ATOM     21  C   LIG A   1      -7.104   4.693 125.206  0.00  0.00    +0.045 C 
ATOM     22  C   LIG A   1      -7.901   4.239 126.376  0.00  0.00    +0.148 C 
ATOM     23  C   LIG A   1      -7.124   3.763 127.577  0.00  0.00    +0.154 C 
ATOM     24  O   LIG A   1      -7.916   4.966 127.594  0.00  0.00    -0.368 OA
ATOM     25  O   LIG A   1      -8.688   3.274 123.111  0.00  0.00    -0.294 OA
ATOM     26  C   LIG A   1      -8.936   0.510 123.275  0.00  0.00    +0.052 C 
ATOM     27  C   LIG A   1      -5.081   1.718 128.062  0.00  0.00    +0.224 C 
ATOM     28  O   LIG A   1      -4.694   2.191 127.025  0.00  0.00    -0.275 OA
ENDROOT
BRANCH  17  29
ATOM     29  O   LIG A   1      -9.128   1.354 125.501  0.00  0.00    -0.379 OA
ATOM     30  H   LIG A   1      -9.980   1.651 125.129  0.00  0.00    +0.211 HD
ENDBRANCH  17  29
BRANCH  10  31
ATOM     31  C   LIG A   1      -4.174   1.035 131.547  0.00  0.00    +0.057 C 
BRANCH  31  32
ATOM     32  C   LIG A   1      -3.670  -0.153 132.356  0.00  0.00    -0.046 A 
ATOM     33  C   LIG A   1      -2.861  -0.024 133.495  0.00  0.00    +0.003 A 
ATOM     34  C   LIG A   1      -2.408  -1.144 134.197  0.00  0.00    +0.000 A 
ATOM     35  C   LIG A   1      -2.749  -2.421 133.768  0.00  0.00    +0.000 A 
ATOM     36  C   LIG A   1      -3.551  -2.577 132.641  0.00  0.00    +0.000 A 
ATOM     37  C   LIG A   1      -4.009  -1.454 131.942  0.00  0.00    +0.003 A 
ENDBRANCH  31  32
ENDBRANCH  10  31
BRANCH  13  38
ATOM     38  O   LIG A   1      -6.247  -1.105 128.284  0.00  0.00    -0.458 OA
BRANCH  38  39
ATOM     39  C   LIG A   1      -6.997  -2.228 128.470  0.00  0.00    +0.304 C 
ATOM     40  C   LIG A   1      -6.339  -3.192 129.418  0.00  0.00    +0.136 C 
ATOM     41  O   LIG A   1      -8.117  -2.415 128.011  0.00  0.00    -0.251 OA
ENDBRANCH  38  39
ENDBRANCH  13  38
TORSDOF 5
ENDMDL
MODEL 7
REMARK VINA RESULT:      -8.1      2.450      6.472
REMARK  Name = NuBBE_613
REMARK  10 active torsions:
REMARK  status: ('A' for Active; 'I' for Inactive)
REMARK    1  A    between atoms: C_1  and  C_2
REMARK    2  A    between atoms: C_10  and  C_12
REMARK    3  A    between atoms: C_14  and  C_16
REMARK    4  A    between atoms: C_16  and  C_17
REMARK    5  A    between atoms: C_25  and  O_46
REMARK    6  A    between atoms: C_32  and  C_44
REMARK    7  A    between atoms: C_32  and  O_45
REMARK    8  A    between atoms: C_34  and  C_36
REMARK    9  A    between atoms: O_46  and  C_47
REMARK   10  A    between atoms: C_47  and  C_48
REMARK                            x       y       z     vdW  Elec       q    Type
REMARK                         _______ _______ _______ _____ _____    ______ ____
ROOT
ATOM      1  C   LIG A   1      -9.812   1.892 131.826  0.00  0.00    +0.044 C 
ATOM      2  C   LIG A   1      -8.634   1.832 130.897  0.00  0.00    +0.097 C 
ATOM      3  O   LIG A   1      -8.062   3.138 130.707  0.00  0.00    -0.364 OA
ATOM      4  C   LIG A   1      -8.680   2.544 129.557  0.00  0.00    +0.158 C 
ATOM      5  C   LIG A   1      -7.729   2.267 128.407  0.00  0.00    +0.071 C 
ATOM      6  C   LIG A   1      -6.705   1.101 128.626  0.00  0.00    +0.099 C 
ATOM      7  C   LIG A   1      -6.413   0.989 130.172  0.00  0.00    +0.034 C 
ATOM      8  C   LIG A   1      -7.603   0.736 131.113  0.00  0.00    +0.026 C 
ATOM      9  C   LIG A   1      -8.254  -0.635 131.015  0.00  0.00    +0.011 C 
ATOM     10  C   LIG A   1      -5.094   0.227 130.299  0.00  0.00    +0.082 C 
ATOM     11  N   LIG A   1      -4.402   0.784 129.155  0.00  0.00    -0.311 N 
ATOM     12  H   LIG A   1      -3.401   0.780 129.003  0.00  0.00    +0.149 HD
ATOM     13  C   LIG A   1      -7.160  -0.174 127.755  0.00  0.00    +0.223 C 
ATOM     14  C   LIG A   1      -6.694  -0.138 126.281  0.00  0.00    +0.192 C 
ATOM     15  C   LIG A   1      -7.268   0.391 124.927  0.00  0.00    +0.190 C 
ATOM     16  O   LIG A   1      -7.567  -0.913 125.434  0.00  0.00    -0.361 OA
ATOM     17  C   LIG A   1      -8.455   1.260 124.589  0.00  0.00    +0.149 C 
ATOM     18  C   LIG A   1      -8.050   2.697 124.106  0.00  0.00    +0.170 C 
ATOM     19  C   LIG A   1      -6.765   3.347 124.632  0.00  0.00    +0.058 C 
ATOM     20  C   LIG A   1      -5.870   3.746 123.464  0.00  0.00    +0.015 C 
ATOM     21  C   LIG A   1      -7.102   4.569 125.513  0.00  0.00    +0.045 C 
ATOM     22  C   LIG A   1      -7.910   4.116 126.675  0.00  0.00    +0.148 C 
ATOM     23  C   LIG A   1      -7.148   3.535 127.840  0.00  0.00    +0.154 C 
ATOM     24  O   LIG A   1      -7.857   4.787 127.925  0.00  0.00    -0.368 OA
ATOM     25  O   LIG A   1      -8.811   3.356 123.386  0.00  0.00    -0.294 OA
ATOM     26  C   LIG A   1      -9.243   0.611 123.431  0.00  0.00    +0.052 C 
ATOM     27  C   LIG A   1      -5.242   1.338 128.195  0.00  0.00    +0.224 C 
ATOM     28  O   LIG A   1      -4.840   1.830 127.173  0.00  0.00    -0.275 OA
ENDROOT
BRANCH  17  29
ATOM     29  O   LIG A   1      -9.344   1.363 125.696  0.00  0.00    -0.379 OA
ATOM     30  H   LIG A   1      -9.462   2.315 125.874  0.00  0.00    +0.211 HD
ENDBRANCH  17  29
BRANCH  10  31
ATOM     31  C   LIG A   1      -4.330   0.437 131.629  0.00  0.00    +0.057 C 
BRANCH  31  32
ATOM     32  C   LIG A   1      -4.374   1.837 132.230  0.00  0.00    -0.046 A 
ATOM     33  C   LIG A   1      -3.701   2.936 131.675  0.00  0.00    +0.003 A 
ATOM     34  C   LIG A   1      -3.756   4.199 132.270  0.00  0.00    +0.000 A 
ATOM     35  C   LIG A   1      -4.481   4.388 133.441  0.00  0.00    +0.000 A 
ATOM     36  C   LIG A   1      -5.157   3.313 134.012  0.00  0.00    +0.000 A 
ATOM     37  C   LIG A   1      -5.106   2.049 133.411  0.00  0.00    +0.003 A 
ENDBRANCH  31  32
ENDBRANCH  10  31
BRANCH  13  38
ATOM     38  O   LIG A   1      -6.594  -1.408 128.313  0.00  0.00    -0.458 OA
BRANCH  38  39
ATOM     39  C   LIG A   1      -7.404  -2.498 128.422  0.00  0.00    +0.304 C 
ATOM     40  C   LIG A   1      -6.878  -3.491 129.421  0.00  0.00    +0.136 C 
ATOM     41  O   LIG A   1      -8.484  -2.637 127.860  0.00  0.00    -0.251 OA
ENDBRANCH  38  39
ENDBRANCH  13  38
TORSDOF 5
ENDMDL
MODEL 8
REMARK VINA RESULT:      -8.1      1.696      2.299
REMARK  Name = NuBBE_613
REMARK  10 active torsions:
REMARK  status: ('A' for Active; 'I' for Inactive)
REMARK    1  A    between atoms: C_1  and  C_2
REMARK    2  A    between atoms: C_10  and  C_12
REMARK    3  A    between atoms: C_14  and  C_16
REMARK    4  A    between atoms: C_16  and  C_17
REMARK    5  A    between atoms: C_25  and  O_46
REMARK    6  A    between atoms: C_32  and  C_44
REMARK    7  A    between atoms: C_32  and  O_45
REMARK    8  A    between atoms: C_34  and  C_36
REMARK    9  A    between atoms: O_46  and  C_47
REMARK   10  A    between atoms: C_47  and  C_48
REMARK                            x       y       z     vdW  Elec       q    Type
REMARK                         _______ _______ _______ _____ _____    ______ ____
ROOT
ATOM      1  C   LIG A   1      -9.520   3.725 133.871  0.00  0.00    +0.044 C 
ATOM      2  C   LIG A   1      -8.139   3.464 133.343  0.00  0.00    +0.097 C 
ATOM      3  O   LIG A   1      -7.185   3.379 134.416  0.00  0.00    -0.364 OA
ATOM      4  C   LIG A   1      -7.042   4.497 133.528  0.00  0.00    +0.158 C 
ATOM      5  C   LIG A   1      -5.740   4.514 132.748  0.00  0.00    +0.071 C 
ATOM      6  C   LIG A   1      -5.597   3.431 131.623  0.00  0.00    +0.099 C 
ATOM      7  C   LIG A   1      -6.461   2.178 132.039  0.00  0.00    +0.034 C 
ATOM      8  C   LIG A   1      -7.965   2.390 132.281  0.00  0.00    +0.026 C 
ATOM      9  C   LIG A   1      -8.804   2.712 131.054  0.00  0.00    +0.011 C 
ATOM     10  C   LIG A   1      -5.923   1.004 131.220  0.00  0.00    +0.082 C 
ATOM     11  N   LIG A   1      -4.515   1.341 131.245  0.00  0.00    -0.311 N 
ATOM     12  H   LIG A   1      -3.746   0.707 131.067  0.00  0.00    +0.149 HD
ATOM     13  C   LIG A   1      -5.761   4.136 130.185  0.00  0.00    +0.223 C 
ATOM     14  C   LIG A   1      -4.464   4.773 129.637  0.00  0.00    +0.192 C 
ATOM     15  C   LIG A   1      -3.773   6.172 129.711  0.00  0.00    +0.190 C 
ATOM     16  O   LIG A   1      -4.752   5.848 128.721  0.00  0.00    -0.361 OA
ATOM     17  C   LIG A   1      -4.047   7.406 130.537  0.00  0.00    +0.149 C 
ATOM     18  C   LIG A   1      -2.968   7.658 131.647  0.00  0.00    +0.170 C 
ATOM     19  C   LIG A   1      -2.234   6.472 132.284  0.00  0.00    +0.058 C 
ATOM     20  C   LIG A   1      -0.727   6.651 132.129  0.00  0.00    +0.015 C 
ATOM     21  C   LIG A   1      -2.624   6.334 133.770  0.00  0.00    +0.045 C 
ATOM     22  C   LIG A   1      -4.087   6.087 133.863  0.00  0.00    +0.148 C 
ATOM     23  C   LIG A   1      -4.545   4.666 133.650  0.00  0.00    +0.154 C 
ATOM     24  O   LIG A   1      -4.649   5.331 134.925  0.00  0.00    -0.368 OA
ATOM     25  O   LIG A   1      -2.777   8.798 132.091  0.00  0.00    -0.294 OA
ATOM     26  C   LIG A   1      -4.031   8.645 129.615  0.00  0.00    +0.052 C 
ATOM     27  C   LIG A   1      -4.254   2.680 131.515  0.00  0.00    +0.224 C 
ATOM     28  O   LIG A   1      -3.142   3.139 131.558  0.00  0.00    -0.275 OA
ENDROOT
BRANCH  17  29
ATOM     29  O   LIG A   1      -5.338   7.344 131.134  0.00  0.00    -0.379 OA
ATOM     30  H   LIG A   1      -5.920   6.886 130.499  0.00  0.00    +0.211 HD
ENDBRANCH  17  29
BRANCH  10  31
ATOM     31  C   LIG A   1      -6.219  -0.400 131.799  0.00  0.00    +0.057 C 
BRANCH  31  32
ATOM     32  C   LIG A   1      -6.721  -1.454 130.819  0.00  0.00    -0.046 A 
ATOM     33  C   LIG A   1      -6.415  -2.818 130.929  0.00  0.00    +0.003 A 
ATOM     34  C   LIG A   1      -6.885  -3.747 129.998  0.00  0.00    +0.000 A 
ATOM     35  C   LIG A   1      -7.665  -3.328 128.927  0.00  0.00    +0.000 A 
ATOM     36  C   LIG A   1      -7.982  -1.979 128.794  0.00  0.00    +0.000 A 
ATOM     37  C   LIG A   1      -7.517  -1.050 129.732  0.00  0.00    +0.003 A 
ENDBRANCH  31  32
ENDBRANCH  10  31
BRANCH  13  38
ATOM     38  O   LIG A   1      -6.172   3.154 129.175  0.00  0.00    -0.458 OA
BRANCH  38  39
ATOM     39  C   LIG A   1      -7.152   3.504 128.295  0.00  0.00    +0.304 C 
ATOM     40  C   LIG A   1      -7.655   2.322 127.514  0.00  0.00    +0.136 C 
ATOM     41  O   LIG A   1      -7.650   4.620 128.197  0.00  0.00    -0.251 OA
ENDBRANCH  38  39
ENDBRANCH  13  38
TORSDOF 5
ENDMDL
MODEL 9
REMARK VINA RESULT:      -8.0      2.640      7.078
REMARK  Name = NuBBE_613
REMARK  10 active torsions:
REMARK  status: ('A' for Active; 'I' for Inactive)
REMARK    1  A    between atoms: C_1  and  C_2
REMARK    2  A    between atoms: C_10  and  C_12
REMARK    3  A    between atoms: C_14  and  C_16
REMARK    4  A    between atoms: C_16  and  C_17
REMARK    5  A    between atoms: C_25  and  O_46
REMARK    6  A    between atoms: C_32  and  C_44
REMARK    7  A    between atoms: C_32  and  O_45
REMARK    8  A    between atoms: C_34  and  C_36
REMARK    9  A    between atoms: O_46  and  C_47
REMARK   10  A    between atoms: C_47  and  C_48
REMARK                            x       y       z     vdW  Elec       q    Type
REMARK                         _______ _______ _______ _____ _____    ______ ____
ROOT
ATOM      1  C   LIG A   1      -2.824   7.163 131.312  0.00  0.00    +0.044 C 
ATOM      2  C   LIG A   1      -3.603   5.898 131.098  0.00  0.00    +0.097 C 
ATOM      3  O   LIG A   1      -2.726   4.795 130.810  0.00  0.00    -0.364 OA
ATOM      4  C   LIG A   1      -3.590   5.212 129.743  0.00  0.00    +0.158 C 
ATOM      5  C   LIG A   1      -4.594   4.162 129.305  0.00  0.00    +0.071 C 
ATOM      6  C   LIG A   1      -5.758   3.860 130.310  0.00  0.00    +0.099 C 
ATOM      7  C   LIG A   1      -5.231   4.146 131.770  0.00  0.00    +0.034 C 
ATOM      8  C   LIG A   1      -4.712   5.559 132.082  0.00  0.00    +0.026 C 
ATOM      9  C   LIG A   1      -5.754   6.666 132.113  0.00  0.00    +0.011 C 
ATOM     10  C   LIG A   1      -6.170   3.393 132.713  0.00  0.00    +0.082 C 
ATOM     11  N   LIG A   1      -6.392   2.209 131.909  0.00  0.00    -0.311 N 
ATOM     12  H   LIG A   1      -6.727   1.314 132.245  0.00  0.00    +0.149 HD
ATOM     13  C   LIG A   1      -7.120   4.516 129.757  0.00  0.00    +0.223 C 
ATOM     14  C   LIG A   1      -7.877   3.642 128.730  0.00  0.00    +0.192 C 
ATOM     15  C   LIG A   1      -7.887   3.477 127.176  0.00  0.00    +0.190 C 
ATOM     16  O   LIG A   1      -8.691   4.446 127.853  0.00  0.00    -0.361 OA
ATOM     17  C   LIG A   1      -6.988   4.006 126.085  0.00  0.00    +0.149 C 
ATOM     18  C   LIG A   1      -6.086   2.898 125.437  0.00  0.00    +0.170 C 
ATOM     19  C   LIG A   1      -5.631   1.696 126.273  0.00  0.00    +0.058 C 
ATOM     20  C   LIG A   1      -6.052   0.399 125.590  0.00  0.00    +0.015 C 
ATOM     21  C   LIG A   1      -4.103   1.737 126.485  0.00  0.00    +0.045 C 
ATOM     22  C   LIG A   1      -3.752   2.981 127.219  0.00  0.00    +0.148 C 
ATOM     23  C   LIG A   1      -3.921   2.950 128.718  0.00  0.00    +0.154 C 
ATOM     24  O   LIG A   1      -2.629   3.043 128.086  0.00  0.00    -0.368 OA
ATOM     25  O   LIG A   1      -5.650   3.035 124.287  0.00  0.00    -0.294 OA
ATOM     26  C   LIG A   1      -7.859   4.587 124.950  0.00  0.00    +0.052 C 
ATOM     27  C   LIG A   1      -6.134   2.383 130.554  0.00  0.00    +0.224 C 
ATOM     28  O   LIG A   1      -6.281   1.510 129.738  0.00  0.00    -0.275 OA
ENDROOT
BRANCH  17  29
ATOM     29  O   LIG A   1      -6.167   5.064 126.569  0.00  0.00    -0.379 OA
ATOM     30  H   LIG A   1      -5.250   4.731 126.570  0.00  0.00    +0.211 HD
ENDBRANCH  17  29
BRANCH  10  31
ATOM     31  C   LIG A   1      -5.589   3.074 134.112  0.00  0.00    +0.057 C 
BRANCH  31  32
ATOM     32  C   LIG A   1      -5.961   4.028 135.241  0.00  0.00    -0.046 A 
ATOM     33  C   LIG A   1      -5.251   4.107 136.449  0.00  0.00    +0.003 A 
ATOM     34  C   LIG A   1      -5.638   4.986 137.463  0.00  0.00    +0.000 A 
ATOM     35  C   LIG A   1      -6.752   5.799 137.295  0.00  0.00    +0.000 A 
ATOM     36  C   LIG A   1      -7.474   5.739 136.107  0.00  0.00    +0.000 A 
ATOM     37  C   LIG A   1      -7.082   4.863 135.088  0.00  0.00    +0.003 A 
ENDBRANCH  31  32
ENDBRANCH  10  31
BRANCH  13  38
ATOM     38  O   LIG A   1      -8.068   4.738 130.855  0.00  0.00    -0.458 OA
BRANCH  38  39
ATOM     39  C   LIG A   1      -8.725   5.931 130.909  0.00  0.00    +0.304 C 
ATOM     40  C   LIG A   1      -9.501   6.087 132.187  0.00  0.00    +0.136 C 
ATOM     41  O   LIG A   1      -8.637   6.826 130.077  0.00  0.00    -0.251 OA
ENDBRANCH  38  39
ENDBRANCH  13  38
TORSDOF 5
ENDMDL
