MODEL 1
REMARK VINA RESULT:      -8.1      0.000      0.000
REMARK  Name = NuBBE_2245
REMARK  6 active torsions:
REMARK  status: ('A' for Active; 'I' for Inactive)
REMARK    1  A    between atoms: C_1  and  C_2
REMARK    2  A    between atoms: C_2  and  C_3
REMARK    3  A    between atoms: C_9  and  O_10
REMARK    4  A    between atoms: C_15  and  C_16
REMARK    5  A    between atoms: C_15  and  C_17
REMARK    6  A    between atoms: C_22  and  C_23
REMARK                            x       y       z     vdW  Elec       q    Type
REMARK                         _______ _______ _______ _____ _____    ______ ____
ROOT
ATOM      1  C   LIG A   1      -6.239  -2.362 123.242  0.00  0.00    +0.016 C 
ATOM      2  C   LIG A   1      -7.219  -1.537 124.107  0.00  0.00    -0.006 C 
ATOM      3  C   LIG A   1      -6.923  -0.029 123.913  0.00  0.00    +0.016 C 
ATOM      4  C   LIG A   1      -8.654  -1.734 123.549  0.00  0.00    +0.011 C 
ATOM      5  C   LIG A   1      -9.185  -3.119 123.843  0.00  0.00    +0.005 C 
ATOM      6  C   LIG A   1      -9.318  -3.292 125.343  0.00  0.00    +0.036 C 
ATOM      7  C   LIG A   1      -8.138  -2.803 126.168  0.00  0.00    -0.037 A 
ATOM      8  C   LIG A   1      -7.121  -1.982 125.585  0.00  0.00    +0.007 A 
ATOM      9  C   LIG A   1      -6.052  -1.604 126.419  0.00  0.00    +0.164 A 
ATOM     10  C   LIG A   1      -6.026  -1.948 127.776  0.00  0.00    +0.176 A 
ATOM     11  O   LIG A   1      -4.918  -1.566 128.534  0.00  0.00    -0.422 OA
ATOM     12  C   LIG A   1      -5.325  -0.535 129.348  0.00  0.00    +0.313 C 
ATOM     13  C   LIG A   1      -5.659  -1.043 130.731  0.00  0.00    +0.132 C 
ATOM     14  C   LIG A   1      -6.933  -1.916 130.823  0.00  0.00    -0.000 C 
ATOM     15  C   LIG A   1      -6.956  -2.505 132.255  0.00  0.00    +0.016 C 
ATOM     16  C   LIG A   1      -6.861  -3.114 129.827  0.00  0.00    +0.050 C 
ATOM     17  O   LIG A   1      -5.247   0.654 129.058  0.00  0.00    -0.250 OA
ATOM     18  C   LIG A   1      -7.019  -2.737 128.364  0.00  0.00    +0.003 A 
ATOM     19  C   LIG A   1      -8.104  -3.149 127.561  0.00  0.00    -0.040 A 
ATOM     20  C   LIG A   1      -9.205  -3.990 128.175  0.00  0.00    +0.044 C 
ENDROOT
BRANCH   9  21
ATOM     21  O   LIG A   1      -4.969  -0.893 125.979  0.00  0.00    -0.503 OA
ATOM     22  H   LIG A   1      -4.266  -0.956 126.638  0.00  0.00    +0.292 HD
ENDBRANCH   9  21
BRANCH  14  23
ATOM     23  C   LIG A   1      -8.253  -1.163 130.656  0.00  0.00    -0.027 C 
ATOM     24  C   LIG A   1      -8.681  -0.081 131.318  0.00  0.00    +0.004 C 
ENDBRANCH  14  23
TORSDOF 2
ENDMDL
MODEL 2
REMARK VINA RESULT:      -7.9      1.503      5.736
REMARK  Name = NuBBE_2245
REMARK  6 active torsions:
REMARK  status: ('A' for Active; 'I' for Inactive)
REMARK    1  A    between atoms: C_1  and  C_2
REMARK    2  A    between atoms: C_2  and  C_3
REMARK    3  A    between atoms: C_9  and  O_10
REMARK    4  A    between atoms: C_15  and  C_16
REMARK    5  A    between atoms: C_15  and  C_17
REMARK    6  A    between atoms: C_22  and  C_23
REMARK                            x       y       z     vdW  Elec       q    Type
REMARK                         _______ _______ _______ _____ _____    ______ ____
ROOT
ATOM      1  C   LIG A   1      -7.051   0.397 131.110  0.00  0.00    +0.016 C 
ATOM      2  C   LIG A   1      -6.233  -0.593 130.249  0.00  0.00    -0.006 C 
ATOM      3  C   LIG A   1      -4.931   0.100 129.775  0.00  0.00    +0.016 C 
ATOM      4  C   LIG A   1      -5.755  -1.757 131.157  0.00  0.00    +0.011 C 
ATOM      5  C   LIG A   1      -6.896  -2.669 131.549  0.00  0.00    +0.005 C 
ATOM      6  C   LIG A   1      -7.446  -3.339 130.305  0.00  0.00    +0.036 C 
ATOM      7  C   LIG A   1      -7.655  -2.428 129.105  0.00  0.00    -0.037 A 
ATOM      8  C   LIG A   1      -7.098  -1.110 129.076  0.00  0.00    +0.007 A 
ATOM      9  C   LIG A   1      -7.371  -0.330 127.936  0.00  0.00    +0.164 A 
ATOM     10  C   LIG A   1      -8.085  -0.848 126.849  0.00  0.00    +0.176 A 
ATOM     11  O   LIG A   1      -8.345  -0.005 125.767  0.00  0.00    -0.422 OA
ATOM     12  C   LIG A   1      -7.524  -0.407 124.739  0.00  0.00    +0.313 C 
ATOM     13  C   LIG A   1      -8.270  -1.300 123.775  0.00  0.00    +0.132 C 
ATOM     14  C   LIG A   1      -8.641  -2.697 124.324  0.00  0.00    -0.000 C 
ATOM     15  C   LIG A   1      -9.580  -3.344 123.275  0.00  0.00    +0.016 C 
ATOM     16  C   LIG A   1      -9.443  -2.579 125.656  0.00  0.00    +0.050 C 
ATOM     17  O   LIG A   1      -6.405   0.045 124.525  0.00  0.00    -0.250 OA
ATOM     18  C   LIG A   1      -8.623  -2.137 126.856  0.00  0.00    +0.003 A 
ATOM     19  C   LIG A   1      -8.384  -2.952 127.985  0.00  0.00    -0.040 A 
ATOM     20  C   LIG A   1      -8.939  -4.361 128.015  0.00  0.00    +0.044 C 
ENDROOT
BRANCH   9  21
ATOM     21  O   LIG A   1      -6.977   0.974 127.804  0.00  0.00    -0.503 OA
ATOM     22  H   LIG A   1      -7.031   1.404 128.667  0.00  0.00    +0.292 HD
ENDBRANCH   9  21
BRANCH  14  23
ATOM     23  C   LIG A   1      -7.469  -3.665 124.492  0.00  0.00    -0.027 C 
ATOM     24  C   LIG A   1      -6.203  -3.514 124.083  0.00  0.00    +0.004 C 
ENDBRANCH  14  23
TORSDOF 2
ENDMDL
MODEL 3
REMARK VINA RESULT:      -7.5      3.605      6.239
REMARK  Name = NuBBE_2245
REMARK  6 active torsions:
REMARK  status: ('A' for Active; 'I' for Inactive)
REMARK    1  A    between atoms: C_1  and  C_2
REMARK    2  A    between atoms: C_2  and  C_3
REMARK    3  A    between atoms: C_9  and  O_10
REMARK    4  A    between atoms: C_15  and  C_16
REMARK    5  A    between atoms: C_15  and  C_17
REMARK    6  A    between atoms: C_22  and  C_23
REMARK                            x       y       z     vdW  Elec       q    Type
REMARK                         _______ _______ _______ _____ _____    ______ ____
ROOT
ATOM      1  C   LIG A   1      -7.491   4.499 125.362  0.00  0.00    +0.016 C 
ATOM      2  C   LIG A   1      -6.622   3.549 124.504  0.00  0.00    -0.006 C 
ATOM      3  C   LIG A   1      -6.852   3.865 123.005  0.00  0.00    +0.016 C 
ATOM      4  C   LIG A   1      -5.128   3.886 124.755  0.00  0.00    +0.011 C 
ATOM      5  C   LIG A   1      -4.677   3.445 126.130  0.00  0.00    +0.005 C 
ATOM      6  C   LIG A   1      -4.762   1.934 126.219  0.00  0.00    +0.036 C 
ATOM      7  C   LIG A   1      -6.034   1.313 125.664  0.00  0.00    -0.037 A 
ATOM      8  C   LIG A   1      -6.939   2.079 124.862  0.00  0.00    +0.007 A 
ATOM      9  C   LIG A   1      -8.105   1.426 124.420  0.00  0.00    +0.164 A 
ATOM     10  C   LIG A   1      -8.329   0.070 124.685  0.00  0.00    +0.176 A 
ATOM     11  O   LIG A   1      -9.524  -0.501 124.242  0.00  0.00    -0.422 OA
ATOM     12  C   LIG A   1      -9.211  -1.307 123.172  0.00  0.00    +0.313 C 
ATOM     13  C   LIG A   1      -9.087  -2.749 123.605  0.00  0.00    +0.132 C 
ATOM     14  C   LIG A   1      -7.861  -3.068 124.492  0.00  0.00    -0.000 C 
ATOM     15  C   LIG A   1      -8.054  -4.520 124.998  0.00  0.00    +0.016 C 
ATOM     16  C   LIG A   1      -7.820  -2.140 125.744  0.00  0.00    +0.050 C 
ATOM     17  O   LIG A   1      -9.219  -0.944 122.001  0.00  0.00    -0.250 OA
ATOM     18  C   LIG A   1      -7.449  -0.695 125.454  0.00  0.00    +0.003 A 
ATOM     19  C   LIG A   1      -6.271  -0.079 125.929  0.00  0.00    -0.040 A 
ATOM     20  C   LIG A   1      -5.289  -0.887 126.751  0.00  0.00    +0.044 C 
ENDROOT
BRANCH   9  21
ATOM     21  O   LIG A   1      -9.097   2.053 123.717  0.00  0.00    -0.503 OA
ATOM     22  H   LIG A   1      -8.884   2.017 122.776  0.00  0.00    +0.292 HD
ENDBRANCH   9  21
BRANCH  14  23
ATOM     23  C   LIG A   1      -6.513  -3.050 123.771  0.00  0.00    -0.027 C 
ATOM     24  C   LIG A   1      -5.357  -3.606 124.157  0.00  0.00    +0.004 C 
ENDBRANCH  14  23
TORSDOF 2
ENDMDL
MODEL 4
REMARK VINA RESULT:      -7.2      2.688      6.123
REMARK  Name = NuBBE_2245
REMARK  6 active torsions:
REMARK  status: ('A' for Active; 'I' for Inactive)
REMARK    1  A    between atoms: C_1  and  C_2
REMARK    2  A    between atoms: C_2  and  C_3
REMARK    3  A    between atoms: C_9  and  O_10
REMARK    4  A    between atoms: C_15  and  C_16
REMARK    5  A    between atoms: C_15  and  C_17
REMARK    6  A    between atoms: C_22  and  C_23
REMARK                            x       y       z     vdW  Elec       q    Type
REMARK                         _______ _______ _______ _____ _____    ______ ____
ROOT
ATOM      1  C   LIG A   1      -8.135   2.747 129.615  0.00  0.00    +0.016 C 
ATOM      2  C   LIG A   1      -7.054   2.042 128.764  0.00  0.00    -0.006 C 
ATOM      3  C   LIG A   1      -6.324   3.096 127.894  0.00  0.00    +0.016 C 
ATOM      4  C   LIG A   1      -5.961   1.489 129.716  0.00  0.00    +0.011 C 
ATOM      5  C   LIG A   1      -6.456   0.298 130.507  0.00  0.00    +0.005 C 
ATOM      6  C   LIG A   1      -6.761  -0.840 129.552  0.00  0.00    +0.036 C 
ATOM      7  C   LIG A   1      -7.534  -0.458 128.299  0.00  0.00    -0.037 A 
ATOM      8  C   LIG A   1      -7.697   0.914 127.924  0.00  0.00    +0.007 A 
ATOM      9  C   LIG A   1      -8.454   1.170 126.766  0.00  0.00    +0.164 A 
ATOM     10  C   LIG A   1      -8.956   0.130 125.974  0.00  0.00    +0.176 A 
ATOM     11  O   LIG A   1      -9.726   0.461 124.858  0.00  0.00    -0.422 OA
ATOM     12  C   LIG A   1      -8.948   0.219 123.749  0.00  0.00    +0.313 C 
ATOM     13  C   LIG A   1      -9.279  -1.126 123.145  0.00  0.00    +0.132 C 
ATOM     14  C   LIG A   1      -8.852  -2.350 123.989  0.00  0.00    -0.000 C 
ATOM     15  C   LIG A   1      -9.480  -3.591 123.306  0.00  0.00    +0.016 C 
ATOM     16  C   LIG A   1      -9.437  -2.265 125.431  0.00  0.00    +0.050 C 
ATOM     17  O   LIG A   1      -8.227   1.051 123.210  0.00  0.00    -0.250 OA
ATOM     18  C   LIG A   1      -8.793  -1.215 126.319  0.00  0.00    +0.003 A 
ATOM     19  C   LIG A   1      -8.050  -1.518 127.480  0.00  0.00    -0.040 A 
ATOM     20  C   LIG A   1      -7.840  -2.967 127.870  0.00  0.00    +0.044 C 
ENDROOT
BRANCH   9  21
ATOM     21  O   LIG A   1      -8.764   2.431 126.333  0.00  0.00    -0.503 OA
ATOM     22  H   LIG A   1      -9.724   2.533 126.333  0.00  0.00    +0.292 HD
ENDBRANCH   9  21
BRANCH  14  23
ATOM     23  C   LIG A   1      -7.347  -2.615 124.039  0.00  0.00    -0.027 C 
ATOM     24  C   LIG A   1      -6.401  -2.188 123.193  0.00  0.00    +0.004 C 
ENDBRANCH  14  23
TORSDOF 2
ENDMDL
MODEL 5
REMARK VINA RESULT:      -7.2      7.583      9.691
REMARK  Name = NuBBE_2245
REMARK  6 active torsions:
REMARK  status: ('A' for Active; 'I' for Inactive)
REMARK    1  A    between atoms: C_1  and  C_2
REMARK    2  A    between atoms: C_2  and  C_3
REMARK    3  A    between atoms: C_9  and  O_10
REMARK    4  A    between atoms: C_15  and  C_16
REMARK    5  A    between atoms: C_15  and  C_17
REMARK    6  A    between atoms: C_22  and  C_23
REMARK                            x       y       z     vdW  Elec       q    Type
REMARK                         _______ _______ _______ _____ _____    ______ ____
ROOT
ATOM      1  C   LIG A   1      -9.533   3.994 130.566  0.00  0.00    +0.016 C 
ATOM      2  C   LIG A   1      -9.005   5.433 130.767  0.00  0.00    -0.006 C 
ATOM      3  C   LIG A   1      -9.349   6.281 129.517  0.00  0.00    +0.016 C 
ATOM      4  C   LIG A   1      -9.802   6.092 131.924  0.00  0.00    +0.011 C 
ATOM      5  C   LIG A   1      -9.425   5.510 133.268  0.00  0.00    +0.005 C 
ATOM      6  C   LIG A   1      -7.971   5.830 133.558  0.00  0.00    +0.036 C 
ATOM      7  C   LIG A   1      -7.007   5.611 132.402  0.00  0.00    -0.037 A 
ATOM      8  C   LIG A   1      -7.489   5.401 131.071  0.00  0.00    +0.007 A 
ATOM      9  C   LIG A   1      -6.522   5.176 130.073  0.00  0.00    +0.164 A 
ATOM     10  C   LIG A   1      -5.152   5.236 130.355  0.00  0.00    +0.176 A 
ATOM     11  O   LIG A   1      -4.252   4.970 129.322  0.00  0.00    -0.422 OA
ATOM     12  C   LIG A   1      -3.690   6.173 128.960  0.00  0.00    +0.313 C 
ATOM     13  C   LIG A   1      -2.343   6.354 129.619  0.00  0.00    +0.132 C 
ATOM     14  C   LIG A   1      -2.381   6.576 131.149  0.00  0.00    -0.000 C 
ATOM     15  C   LIG A   1      -0.913   6.509 131.637  0.00  0.00    +0.016 C 
ATOM     16  C   LIG A   1      -3.162   5.429 131.860  0.00  0.00    +0.050 C 
ATOM     17  O   LIG A   1      -4.125   6.908 128.082  0.00  0.00    -0.250 OA
ATOM     18  C   LIG A   1      -4.666   5.454 131.647  0.00  0.00    +0.003 A 
ATOM     19  C   LIG A   1      -5.600   5.672 132.682  0.00  0.00    -0.040 A 
ATOM     20  C   LIG A   1      -5.103   5.929 134.089  0.00  0.00    +0.044 C 
ENDROOT
BRANCH   9  21
ATOM     21  O   LIG A   1      -6.836   4.879 128.775  0.00  0.00    -0.503 OA
ATOM     22  H   LIG A   1      -7.459   5.539 128.446  0.00  0.00    +0.292 HD
ENDBRANCH   9  21
BRANCH  14  23
ATOM     23  C   LIG A   1      -2.911   7.938 131.597  0.00  0.00    -0.027 C 
ATOM     24  C   LIG A   1      -2.516   8.681 132.639  0.00  0.00    +0.004 C 
ENDBRANCH  14  23
TORSDOF 2
ENDMDL
MODEL 6
REMARK VINA RESULT:      -6.9      1.708      5.610
REMARK  Name = NuBBE_2245
REMARK  6 active torsions:
REMARK  status: ('A' for Active; 'I' for Inactive)
REMARK    1  A    between atoms: C_1  and  C_2
REMARK    2  A    between atoms: C_2  and  C_3
REMARK    3  A    between atoms: C_9  and  O_10
REMARK    4  A    between atoms: C_15  and  C_16
REMARK    5  A    between atoms: C_15  and  C_17
REMARK    6  A    between atoms: C_22  and  C_23
REMARK                            x       y       z     vdW  Elec       q    Type
REMARK                         _______ _______ _______ _____ _____    ______ ____
ROOT
ATOM      1  C   LIG A   1      -4.602  -1.626 132.064  0.00  0.00    +0.016 C 
ATOM      2  C   LIG A   1      -4.327  -2.409 130.759  0.00  0.00    -0.006 C 
ATOM      3  C   LIG A   1      -2.896  -2.084 130.262  0.00  0.00    +0.016 C 
ATOM      4  C   LIG A   1      -4.296  -3.925 131.091  0.00  0.00    +0.011 C 
ATOM      5  C   LIG A   1      -5.676  -4.459 131.404  0.00  0.00    +0.005 C 
ATOM      6  C   LIG A   1      -6.545  -4.343 130.167  0.00  0.00    +0.036 C 
ATOM      7  C   LIG A   1      -6.456  -3.021 129.422  0.00  0.00    -0.037 A 
ATOM      8  C   LIG A   1      -5.415  -2.082 129.710  0.00  0.00    +0.007 A 
ATOM      9  C   LIG A   1      -5.433  -0.872 128.991  0.00  0.00    +0.164 A 
ATOM     10  C   LIG A   1      -6.378  -0.633 127.985  0.00  0.00    +0.176 A 
ATOM     11  O   LIG A   1      -6.355   0.603 127.337  0.00  0.00    -0.422 OA
ATOM     12  C   LIG A   1      -5.850   0.385 126.076  0.00  0.00    +0.313 C 
ATOM     13  C   LIG A   1      -6.967   0.268 125.065  0.00  0.00    +0.132 C 
ATOM     14  C   LIG A   1      -7.832  -1.009 125.184  0.00  0.00    -0.000 C 
ATOM     15  C   LIG A   1      -9.030  -0.816 124.221  0.00  0.00    +0.016 C 
ATOM     16  C   LIG A   1      -8.411  -1.159 126.624  0.00  0.00    +0.050 C 
ATOM     17  O   LIG A   1      -4.664   0.466 125.777  0.00  0.00    -0.250 OA
ATOM     18  C   LIG A   1      -7.392  -1.545 127.683  0.00  0.00    +0.003 A 
ATOM     19  C   LIG A   1      -7.420  -2.768 128.388  0.00  0.00    -0.040 A 
ATOM     20  C   LIG A   1      -8.496  -3.785 128.070  0.00  0.00    +0.044 C 
ENDROOT
BRANCH   9  21
ATOM     21  O   LIG A   1      -4.553   0.151 129.217  0.00  0.00    -0.503 OA
ATOM     22  H   LIG A   1      -3.970  -0.095 129.946  0.00  0.00    +0.292 HD
ENDBRANCH   9  21
BRANCH  14  23
ATOM     23  C   LIG A   1      -7.146  -2.304 124.748  0.00  0.00    -0.027 C 
ATOM     24  C   LIG A   1      -7.713  -3.466 124.396  0.00  0.00    +0.004 C 
ENDBRANCH  14  23
TORSDOF 2
ENDMDL
MODEL 7
REMARK VINA RESULT:      -6.9      3.785      5.954
REMARK  Name = NuBBE_2245
REMARK  6 active torsions:
REMARK  status: ('A' for Active; 'I' for Inactive)
REMARK    1  A    between atoms: C_1  and  C_2
REMARK    2  A    between atoms: C_2  and  C_3
REMARK    3  A    between atoms: C_9  and  O_10
REMARK    4  A    between atoms: C_15  and  C_16
REMARK    5  A    between atoms: C_15  and  C_17
REMARK    6  A    between atoms: C_22  and  C_23
REMARK                            x       y       z     vdW  Elec       q    Type
REMARK                         _______ _______ _______ _____ _____    ______ ____
ROOT
ATOM      1  C   LIG A   1      -9.213  -0.151 125.850  0.00  0.00    +0.016 C 
ATOM      2  C   LIG A   1      -7.714  -0.240 125.479  0.00  0.00    -0.006 C 
ATOM      3  C   LIG A   1      -7.098  -1.493 126.150  0.00  0.00    +0.016 C 
ATOM      4  C   LIG A   1      -7.599  -0.510 123.955  0.00  0.00    +0.011 C 
ATOM      5  C   LIG A   1      -7.974   0.708 123.140  0.00  0.00    +0.005 C 
ATOM      6  C   LIG A   1      -6.981   1.819 123.421  0.00  0.00    +0.036 C 
ATOM      7  C   LIG A   1      -6.632   2.034 124.885  0.00  0.00    -0.037 A 
ATOM      8  C   LIG A   1      -6.994   1.069 125.878  0.00  0.00    +0.007 A 
ATOM      9  C   LIG A   1      -6.655   1.371 127.211  0.00  0.00    +0.164 A 
ATOM     10  C   LIG A   1      -5.928   2.521 127.538  0.00  0.00    +0.176 A 
ATOM     11  O   LIG A   1      -5.657   2.771 128.884  0.00  0.00    -0.422 OA
ATOM     12  C   LIG A   1      -4.320   2.513 129.079  0.00  0.00    +0.313 C 
ATOM     13  C   LIG A   1      -3.517   3.792 129.040  0.00  0.00    +0.132 C 
ATOM     14  C   LIG A   1      -3.415   4.464 127.650  0.00  0.00    -0.000 C 
ATOM     15  C   LIG A   1      -2.757   5.848 127.881  0.00  0.00    +0.016 C 
ATOM     16  C   LIG A   1      -4.831   4.716 127.047  0.00  0.00    +0.050 C 
ATOM     17  O   LIG A   1      -3.863   1.430 129.426  0.00  0.00    -0.250 OA
ATOM     18  C   LIG A   1      -5.555   3.466 126.579  0.00  0.00    +0.003 A 
ATOM     19  C   LIG A   1      -5.884   3.210 125.230  0.00  0.00    -0.040 A 
ATOM     20  C   LIG A   1      -5.478   4.207 124.164  0.00  0.00    +0.044 C 
ENDROOT
BRANCH   9  21
ATOM     21  O   LIG A   1      -7.010   0.585 128.273  0.00  0.00    -0.503 OA
ATOM     22  H   LIG A   1      -7.955   0.694 128.439  0.00  0.00    +0.292 HD
ENDBRANCH   9  21
BRANCH  14  23
ATOM     23  C   LIG A   1      -2.527   3.740 126.639  0.00  0.00    -0.027 C 
ATOM     24  C   LIG A   1      -1.506   2.906 126.877  0.00  0.00    +0.004 C 
ENDBRANCH  14  23
TORSDOF 2
ENDMDL
MODEL 8
REMARK VINA RESULT:      -6.9      2.006      3.321
REMARK  Name = NuBBE_2245
REMARK  6 active torsions:
REMARK  status: ('A' for Active; 'I' for Inactive)
REMARK    1  A    between atoms: C_1  and  C_2
REMARK    2  A    between atoms: C_2  and  C_3
REMARK    3  A    between atoms: C_9  and  O_10
REMARK    4  A    between atoms: C_15  and  C_16
REMARK    5  A    between atoms: C_15  and  C_17
REMARK    6  A    between atoms: C_22  and  C_23
REMARK                            x       y       z     vdW  Elec       q    Type
REMARK                         _______ _______ _______ _____ _____    ______ ____
ROOT
ATOM      1  C   LIG A   1      -9.333  -2.903 123.917  0.00  0.00    +0.016 C 
ATOM      2  C   LIG A   1      -7.872  -2.743 124.397  0.00  0.00    -0.006 C 
ATOM      3  C   LIG A   1      -7.192  -4.135 124.429  0.00  0.00    +0.016 C 
ATOM      4  C   LIG A   1      -7.086  -1.943 123.324  0.00  0.00    +0.011 C 
ATOM      5  C   LIG A   1      -7.490  -0.486 123.304  0.00  0.00    +0.005 C 
ATOM      6  C   LIG A   1      -7.116   0.153 124.627  0.00  0.00    +0.036 C 
ATOM      7  C   LIG A   1      -7.462  -0.654 125.868  0.00  0.00    -0.037 A 
ATOM      8  C   LIG A   1      -7.843  -2.030 125.769  0.00  0.00    +0.007 A 
ATOM      9  C   LIG A   1      -8.176  -2.686 126.969  0.00  0.00    +0.164 A 
ATOM     10  C   LIG A   1      -8.061  -2.045 128.209  0.00  0.00    +0.176 A 
ATOM     11  O   LIG A   1      -8.439  -2.748 129.354  0.00  0.00    -0.422 OA
ATOM     12  C   LIG A   1      -7.283  -3.085 130.018  0.00  0.00    +0.313 C 
ATOM     13  C   LIG A   1      -7.000  -2.107 131.134  0.00  0.00    +0.132 C 
ATOM     14  C   LIG A   1      -6.590  -0.687 130.679  0.00  0.00    -0.000 C 
ATOM     15  C   LIG A   1      -6.574   0.193 131.953  0.00  0.00    +0.016 C 
ATOM     16  C   LIG A   1      -7.652  -0.084 129.709  0.00  0.00    +0.050 C 
ATOM     17  O   LIG A   1      -6.668  -4.134 129.857  0.00  0.00    -0.250 OA
ATOM     18  C   LIG A   1      -7.676  -0.706 128.324  0.00  0.00    +0.003 A 
ATOM     19  C   LIG A   1      -7.345  -0.006 127.144  0.00  0.00    -0.040 A 
ATOM     20  C   LIG A   1      -6.907   1.441 127.237  0.00  0.00    +0.044 C 
ENDROOT
BRANCH   9  21
ATOM     21  O   LIG A   1      -8.637  -3.973 127.021  0.00  0.00    -0.503 OA
ATOM     22  H   LIG A   1      -8.677  -4.325 126.123  0.00  0.00    +0.292 HD
ENDBRANCH   9  21
BRANCH  14  23
ATOM     23  C   LIG A   1      -5.191  -0.575 130.073  0.00  0.00    -0.027 C 
ATOM     24  C   LIG A   1      -4.420   0.514 129.959  0.00  0.00    +0.004 C 
ENDBRANCH  14  23
TORSDOF 2
ENDMDL
MODEL 9
REMARK VINA RESULT:      -6.9      2.535      3.806
REMARK  Name = NuBBE_2245
REMARK  6 active torsions:
REMARK  status: ('A' for Active; 'I' for Inactive)
REMARK    1  A    between atoms: C_1  and  C_2
REMARK    2  A    between atoms: C_2  and  C_3
REMARK    3  A    between atoms: C_9  and  O_10
REMARK    4  A    between atoms: C_15  and  C_16
REMARK    5  A    between atoms: C_15  and  C_17
REMARK    6  A    between atoms: C_22  and  C_23
REMARK                            x       y       z     vdW  Elec       q    Type
REMARK                         _______ _______ _______ _____ _____    ______ ____
ROOT
ATOM      1  C   LIG A   1      -6.862  -2.624 125.619  0.00  0.00    +0.016 C 
ATOM      2  C   LIG A   1      -8.151  -2.083 126.281  0.00  0.00    -0.006 C 
ATOM      3  C   LIG A   1      -9.012  -1.368 125.210  0.00  0.00    +0.016 C 
ATOM      4  C   LIG A   1      -9.011  -3.289 126.742  0.00  0.00    +0.011 C 
ATOM      5  C   LIG A   1      -8.404  -3.987 127.938  0.00  0.00    +0.005 C 
ATOM      6  C   LIG A   1      -8.395  -3.035 129.118  0.00  0.00    +0.036 C 
ATOM      7  C   LIG A   1      -7.925  -1.620 128.817  0.00  0.00    -0.037 A 
ATOM      8  C   LIG A   1      -7.785  -1.162 127.469  0.00  0.00    +0.007 A 
ATOM      9  C   LIG A   1      -7.314   0.153 127.290  0.00  0.00    +0.164 A 
ATOM     10  C   LIG A   1      -7.071   0.997 128.380  0.00  0.00    +0.176 A 
ATOM     11  O   LIG A   1      -6.574   2.277 128.126  0.00  0.00    -0.422 OA
ATOM     12  C   LIG A   1      -7.605   3.160 128.351  0.00  0.00    +0.313 C 
ATOM     13  C   LIG A   1      -7.498   3.769 129.729  0.00  0.00    +0.132 C 
ATOM     14  C   LIG A   1      -7.773   2.799 130.902  0.00  0.00    -0.000 C 
ATOM     15  C   LIG A   1      -7.391   3.560 132.197  0.00  0.00    +0.016 C 
ATOM     16  C   LIG A   1      -6.857   1.541 130.813  0.00  0.00    +0.050 C 
ATOM     17  O   LIG A   1      -8.391   3.545 127.493  0.00  0.00    -0.250 OA
ATOM     18  C   LIG A   1      -7.216   0.569 129.702  0.00  0.00    +0.003 A 
ATOM     19  C   LIG A   1      -7.675  -0.746 129.929  0.00  0.00    -0.040 A 
ATOM     20  C   LIG A   1      -7.859  -1.234 131.351  0.00  0.00    +0.044 C 
ENDROOT
BRANCH   9  21
ATOM     21  O   LIG A   1      -7.053   0.698 126.062  0.00  0.00    -0.503 OA
ATOM     22  H   LIG A   1      -6.476   1.464 126.178  0.00  0.00    +0.292 HD
ENDBRANCH   9  21
BRANCH  14  23
ATOM     23  C   LIG A   1      -9.235   2.383 131.075  0.00  0.00    -0.027 C 
ATOM     24  C   LIG A   1      -9.829   1.867 132.158  0.00  0.00    +0.004 C 
ENDBRANCH  14  23
TORSDOF 2
ENDMDL
