MODEL 1
REMARK VINA RESULT:      -6.5      0.000      0.000
REMARK  Name = NuBBE_1994
REMARK  14 active torsions:
REMARK  status: ('A' for Active; 'I' for Inactive)
REMARK    1  A    between atoms: C_1  and  O_2
REMARK    2  A    between atoms: O_2  and  C_3
REMARK    3  A    between atoms: C_5  and  O_6
REMARK    4  A    between atoms: O_6  and  C_7
REMARK    5  A    between atoms: C_8  and  C_9
REMARK    6  A    between atoms: C_9  and  C_11
REMARK    7  A    between atoms: C_12  and  O_13
REMARK    8  A    between atoms: O_13  and  C_14
REMARK    9  A    between atoms: C_16  and  O_17
REMARK   10  A    between atoms: O_17  and  C_18
REMARK   11  A    between atoms: C_19  and  C_20
REMARK   12  A    between atoms: C_21  and  O_22
REMARK   13  A    between atoms: C_23  and  O_24
REMARK   14  A    between atoms: C_25  and  C_26
REMARK                            x       y       z     vdW  Elec       q    Type
REMARK                         _______ _______ _______ _____ _____    ______ ____
ROOT
ATOM      1  C   LIG A   1      -8.266   2.040 125.208  0.00  0.00    +0.207 C 
ATOM      2  O   LIG A   1      -8.907   2.909 125.859  0.00  0.00    -0.286 OA
ENDROOT
BRANCH   1   6
ATOM      3  C   LIG A   1      -6.589   3.862 121.626  0.00  0.00    +0.130 A 
ATOM      4  C   LIG A   1      -5.800   3.695 122.776  0.00  0.00    +0.092 A 
ATOM      5  C   LIG A   1      -6.274   3.030 123.930  0.00  0.00    +0.138 A 
ATOM      6  C   LIG A   1      -7.598   2.570 123.965  0.00  0.00    +0.106 A 
ATOM      7  C   LIG A   1      -8.363   2.693 122.769  0.00  0.00    +0.138 A 
ATOM      8  C   LIG A   1      -7.907   3.396 121.628  0.00  0.00    +0.034 A 
ATOM      9  C   LIG A   1      -8.858   3.676 120.493  0.00  0.00    +0.051 C 
BRANCH   3  11
ATOM     10  C   LIG A   1      -4.681   5.092 120.897  0.00  0.00    +0.277 C 
ATOM     11  O   LIG A   1      -5.975   4.558 120.612  0.00  0.00    -0.495 OA
ENDBRANCH   3  11
BRANCH   5  12
ATOM     12  O   LIG A   1      -5.532   2.863 125.070  0.00  0.00    -0.494 OA
ATOM     13  C   LIG A   1      -4.666   3.928 125.449  0.00  0.00    +0.277 C 
ENDBRANCH   5  12
BRANCH   7  14
ATOM     14  O   LIG A   1      -9.626   2.150 122.662  0.00  0.00    -0.505 OA
ATOM     15  H   LIG A   1      -9.909   2.198 121.725  0.00  0.00    +0.292 HD
ENDBRANCH   7  14
ENDBRANCH   1   6
BRANCH   1  16
ATOM     16  C   LIG A   1      -8.313   0.631 125.778  0.00  0.00    +0.106 A 
ATOM     17  C   LIG A   1      -8.908  -0.528 125.231  0.00  0.00    +0.138 A 
ATOM     18  C   LIG A   1      -8.761  -1.789 125.884  0.00  0.00    +0.092 A 
ATOM     19  C   LIG A   1      -8.024  -1.958 127.053  0.00  0.00    +0.130 A 
ATOM     20  C   LIG A   1      -7.355  -0.853 127.585  0.00  0.00    +0.034 A 
ATOM     21  C   LIG A   1      -6.470  -1.042 128.796  0.00  0.00    +0.051 C 
ATOM     22  C   LIG A   1      -7.492   0.404 126.936  0.00  0.00    +0.138 A 
BRANCH  17  23
ATOM     23  O   LIG A   1      -9.512  -0.757 124.022  0.00  0.00    -0.494 OA
ATOM     24  C   LIG A   1      -8.782  -1.302 122.954  0.00  0.00    +0.277 C 
ENDBRANCH  17  23
BRANCH  19  25
ATOM     25  O   LIG A   1      -7.839  -3.166 127.676  0.00  0.00    -0.495 OA
ATOM     26  C   LIG A   1      -8.997  -3.979 127.864  0.00  0.00    +0.277 C 
ENDBRANCH  19  25
BRANCH  22  27
ATOM     27  O   LIG A   1      -6.736   1.425 127.483  0.00  0.00    -0.505 OA
ATOM     28  H   LIG A   1      -6.321   1.922 126.748  0.00  0.00    +0.292 HD
ENDBRANCH  22  27
ENDBRANCH   1  16
TORSDOF 8
ENDMDL
MODEL 2
REMARK VINA RESULT:      -6.5      0.768      2.390
REMARK  Name = NuBBE_1994
REMARK  14 active torsions:
REMARK  status: ('A' for Active; 'I' for Inactive)
REMARK    1  A    between atoms: C_1  and  O_2
REMARK    2  A    between atoms: O_2  and  C_3
REMARK    3  A    between atoms: C_5  and  O_6
REMARK    4  A    between atoms: O_6  and  C_7
REMARK    5  A    between atoms: C_8  and  C_9
REMARK    6  A    between atoms: C_9  and  C_11
REMARK    7  A    between atoms: C_12  and  O_13
REMARK    8  A    between atoms: O_13  and  C_14
REMARK    9  A    between atoms: C_16  and  O_17
REMARK   10  A    between atoms: O_17  and  C_18
REMARK   11  A    between atoms: C_19  and  C_20
REMARK   12  A    between atoms: C_21  and  O_22
REMARK   13  A    between atoms: C_23  and  O_24
REMARK   14  A    between atoms: C_25  and  C_26
REMARK                            x       y       z     vdW  Elec       q    Type
REMARK                         _______ _______ _______ _____ _____    ______ ____
ROOT
ATOM      1  C   LIG A   1      -8.431   1.874 124.875  0.00  0.00    +0.207 C 
ATOM      2  O   LIG A   1      -9.447   2.536 125.220  0.00  0.00    -0.286 OA
ENDROOT
BRANCH   1   6
ATOM      3  C   LIG A   1      -6.353   4.014 121.701  0.00  0.00    +0.130 A 
ATOM      4  C   LIG A   1      -5.713   3.757 122.926  0.00  0.00    +0.092 A 
ATOM      5  C   LIG A   1      -6.315   2.991 123.950  0.00  0.00    +0.138 A 
ATOM      6  C   LIG A   1      -7.622   2.516 123.776  0.00  0.00    +0.106 A 
ATOM      7  C   LIG A   1      -8.233   2.733 122.506  0.00  0.00    +0.138 A 
ATOM      8  C   LIG A   1      -7.651   3.535 121.496  0.00  0.00    +0.034 A 
ATOM      9  C   LIG A   1      -8.456   3.903 120.277  0.00  0.00    +0.051 C 
BRANCH   3  11
ATOM     10  C   LIG A   1      -4.349   5.239 121.292  0.00  0.00    +0.277 C 
ATOM     11  O   LIG A   1      -5.631   4.801 120.837  0.00  0.00    -0.495 OA
ENDBRANCH   3  11
BRANCH   5  12
ATOM     12  O   LIG A   1      -5.720   2.735 125.157  0.00  0.00    -0.494 OA
ATOM     13  C   LIG A   1      -5.495   3.842 126.024  0.00  0.00    +0.277 C 
ENDBRANCH   5  12
BRANCH   7  14
ATOM     14  O   LIG A   1      -9.460   2.188 122.193  0.00  0.00    -0.505 OA
ATOM     15  H   LIG A   1      -9.502   2.046 121.225  0.00  0.00    +0.292 HD
ENDBRANCH   7  14
ENDBRANCH   1   6
BRANCH   1  16
ATOM     16  C   LIG A   1      -8.233   0.553 125.603  0.00  0.00    +0.106 A 
ATOM     17  C   LIG A   1      -7.715   0.323 126.897  0.00  0.00    +0.138 A 
ATOM     18  C   LIG A   1      -7.697  -0.996 127.440  0.00  0.00    +0.092 A 
ATOM     19  C   LIG A   1      -8.197  -2.105 126.762  0.00  0.00    +0.130 A 
ATOM     20  C   LIG A   1      -8.789  -1.909 125.512  0.00  0.00    +0.034 A 
ATOM     21  C   LIG A   1      -9.426  -3.086 124.808  0.00  0.00    +0.051 C 
ATOM     22  C   LIG A   1      -8.816  -0.596 124.967  0.00  0.00    +0.138 A 
BRANCH  17  23
ATOM     23  O   LIG A   1      -7.341   1.186 127.894  0.00  0.00    -0.494 OA
ATOM     24  C   LIG A   1      -8.310   1.817 128.690  0.00  0.00    +0.277 C 
ENDBRANCH  17  23
BRANCH  19  25
ATOM     25  O   LIG A   1      -8.223  -3.375 127.280  0.00  0.00    -0.495 OA
ATOM     26  C   LIG A   1      -8.512  -3.498 128.671  0.00  0.00    +0.277 C 
ENDBRANCH  19  25
BRANCH  22  27
ATOM     27  O   LIG A   1      -9.488  -0.481 123.765  0.00  0.00    -0.505 OA
ATOM     28  H   LIG A   1      -9.966   0.375 123.766  0.00  0.00    +0.292 HD
ENDBRANCH  22  27
ENDBRANCH   1  16
TORSDOF 8
ENDMDL
MODEL 3
REMARK VINA RESULT:      -6.4      6.596      9.335
REMARK  Name = NuBBE_1994
REMARK  14 active torsions:
REMARK  status: ('A' for Active; 'I' for Inactive)
REMARK    1  A    between atoms: C_1  and  O_2
REMARK    2  A    between atoms: O_2  and  C_3
REMARK    3  A    between atoms: C_5  and  O_6
REMARK    4  A    between atoms: O_6  and  C_7
REMARK    5  A    between atoms: C_8  and  C_9
REMARK    6  A    between atoms: C_9  and  C_11
REMARK    7  A    between atoms: C_12  and  O_13
REMARK    8  A    between atoms: O_13  and  C_14
REMARK    9  A    between atoms: C_16  and  O_17
REMARK   10  A    between atoms: O_17  and  C_18
REMARK   11  A    between atoms: C_19  and  C_20
REMARK   12  A    between atoms: C_21  and  O_22
REMARK   13  A    between atoms: C_23  and  O_24
REMARK   14  A    between atoms: C_25  and  C_26
REMARK                            x       y       z     vdW  Elec       q    Type
REMARK                         _______ _______ _______ _____ _____    ______ ____
ROOT
ATOM      1  C   LIG A   1      -9.751   4.760 129.923  0.00  0.00    +0.207 C 
ATOM      2  O   LIG A   1     -10.469   3.734 129.775  0.00  0.00    -0.286 OA
ENDROOT
BRANCH   1   6
ATOM      3  C   LIG A   1      -5.538   4.256 130.908  0.00  0.00    +0.130 A 
ATOM      4  C   LIG A   1      -6.521   4.148 131.907  0.00  0.00    +0.092 A 
ATOM      5  C   LIG A   1      -7.904   4.215 131.619  0.00  0.00    +0.138 A 
ATOM      6  C   LIG A   1      -8.322   4.461 130.304  0.00  0.00    +0.106 A 
ATOM      7  C   LIG A   1      -7.315   4.508 129.296  0.00  0.00    +0.138 A 
ATOM      8  C   LIG A   1      -5.931   4.483 129.586  0.00  0.00    +0.034 A 
ATOM      9  C   LIG A   1      -4.933   4.765 128.492  0.00  0.00    +0.051 C 
BRANCH   3  11
ATOM     10  C   LIG A   1      -4.079   3.836 132.746  0.00  0.00    +0.277 C 
ATOM     11  O   LIG A   1      -4.247   4.197 131.374  0.00  0.00    -0.495 OA
ENDBRANCH   3  11
BRANCH   5  12
ATOM     12  O   LIG A   1      -8.884   4.126 132.572  0.00  0.00    -0.494 OA
ATOM     13  C   LIG A   1      -8.854   2.995 133.437  0.00  0.00    +0.277 C 
ENDBRANCH   5  12
BRANCH   7  14
ATOM     14  O   LIG A   1      -7.638   4.609 127.960  0.00  0.00    -0.505 OA
ATOM     15  H   LIG A   1      -6.984   5.194 127.523  0.00  0.00    +0.292 HD
ENDBRANCH   7  14
ENDBRANCH   1   6
BRANCH   1  16
ATOM     16  C   LIG A   1     -10.461   6.089 129.722  0.00  0.00    +0.106 A 
ATOM     17  C   LIG A   1     -10.483   6.919 128.578  0.00  0.00    +0.138 A 
ATOM     18  C   LIG A   1     -11.292   8.094 128.557  0.00  0.00    +0.092 A 
ATOM     19  C   LIG A   1     -12.109   8.473 129.619  0.00  0.00    +0.130 A 
ATOM     20  C   LIG A   1     -12.177   7.640 130.738  0.00  0.00    +0.034 A 
ATOM     21  C   LIG A   1     -13.133   7.987 131.856  0.00  0.00    +0.051 C 
ATOM     22  C   LIG A   1     -11.377   6.465 130.763  0.00  0.00    +0.138 A 
BRANCH  17  23
ATOM     23  O   LIG A   1      -9.977   6.743 127.317  0.00  0.00    -0.494 OA
ATOM     24  C   LIG A   1     -10.598   7.343 126.211  0.00  0.00    +0.277 C 
ENDBRANCH  17  23
BRANCH  19  25
ATOM     25  O   LIG A   1     -12.923   9.578 129.606  0.00  0.00    -0.495 OA
ATOM     26  C   LIG A   1     -13.724   9.774 128.442  0.00  0.00    +0.277 C 
ENDBRANCH  19  25
BRANCH  22  27
ATOM     27  O   LIG A   1     -11.564   5.660 131.872  0.00  0.00    -0.505 OA
ATOM     28  H   LIG A   1     -10.770   5.740 132.442  0.00  0.00    +0.292 HD
ENDBRANCH  22  27
ENDBRANCH   1  16
TORSDOF 8
ENDMDL
MODEL 4
REMARK VINA RESULT:      -6.3      6.354      9.515
REMARK  Name = NuBBE_1994
REMARK  14 active torsions:
REMARK  status: ('A' for Active; 'I' for Inactive)
REMARK    1  A    between atoms: C_1  and  O_2
REMARK    2  A    between atoms: O_2  and  C_3
REMARK    3  A    between atoms: C_5  and  O_6
REMARK    4  A    between atoms: O_6  and  C_7
REMARK    5  A    between atoms: C_8  and  C_9
REMARK    6  A    between atoms: C_9  and  C_11
REMARK    7  A    between atoms: C_12  and  O_13
REMARK    8  A    between atoms: O_13  and  C_14
REMARK    9  A    between atoms: C_16  and  O_17
REMARK   10  A    between atoms: O_17  and  C_18
REMARK   11  A    between atoms: C_19  and  C_20
REMARK   12  A    between atoms: C_21  and  O_22
REMARK   13  A    between atoms: C_23  and  O_24
REMARK   14  A    between atoms: C_25  and  C_26
REMARK                            x       y       z     vdW  Elec       q    Type
REMARK                         _______ _______ _______ _____ _____    ______ ____
ROOT
ATOM      1  C   LIG A   1      -8.994   5.211 130.686  0.00  0.00    +0.207 C 
ATOM      2  O   LIG A   1      -7.915   5.739 131.067  0.00  0.00    -0.286 OA
ENDROOT
BRANCH   1   6
ATOM      3  C   LIG A   1      -8.712   0.874 130.971  0.00  0.00    +0.130 A 
ATOM      4  C   LIG A   1      -9.065   1.640 132.094  0.00  0.00    +0.092 A 
ATOM      5  C   LIG A   1      -9.255   3.040 132.028  0.00  0.00    +0.138 A 
ATOM      6  C   LIG A   1      -9.026   3.709 130.818  0.00  0.00    +0.106 A 
ATOM      7  C   LIG A   1      -8.728   2.909 129.676  0.00  0.00    +0.138 A 
ATOM      8  C   LIG A   1      -8.495   1.516 129.748  0.00  0.00    +0.034 A 
ATOM      9  C   LIG A   1      -7.965   0.783 128.543  0.00  0.00    +0.051 C 
BRANCH   3  11
ATOM     10  C   LIG A   1      -7.589  -0.804 132.238  0.00  0.00    +0.277 C 
ATOM     11  O   LIG A   1      -8.541  -0.465 131.227  0.00  0.00    -0.495 OA
ENDBRANCH   3  11
BRANCH   5  12
ATOM     12  O   LIG A   1      -9.587   3.814 133.109  0.00  0.00    -0.494 OA
ATOM     13  C   LIG A   1      -8.643   3.893 134.171  0.00  0.00    +0.277 C 
ENDBRANCH   5  12
BRANCH   7  14
ATOM     14  O   LIG A   1      -8.621   3.462 128.417  0.00  0.00    -0.505 OA
ATOM     15  H   LIG A   1      -9.013   4.360 128.435  0.00  0.00    +0.292 HD
ENDBRANCH   7  14
ENDBRANCH   1   6
BRANCH   1  16
ATOM     16  C   LIG A   1     -10.037   6.176 130.144  0.00  0.00    +0.106 A 
ATOM     17  C   LIG A   1     -10.237   6.610 128.814  0.00  0.00    +0.138 A 
ATOM     18  C   LIG A   1     -11.341   7.456 128.493  0.00  0.00    +0.092 A 
ATOM     19  C   LIG A   1     -12.278   7.874 129.433  0.00  0.00    +0.130 A 
ATOM     20  C   LIG A   1     -12.161   7.404 130.744  0.00  0.00    +0.034 A 
ATOM     21  C   LIG A   1     -13.226   7.768 131.753  0.00  0.00    +0.051 C 
ATOM     22  C   LIG A   1     -11.068   6.557 131.070  0.00  0.00    +0.138 A 
BRANCH  17  23
ATOM     23  O   LIG A   1      -9.646   6.236 127.636  0.00  0.00    -0.494 OA
ATOM     24  C   LIG A   1     -10.094   6.765 126.415  0.00  0.00    +0.277 C 
ENDBRANCH  17  23
BRANCH  19  25
ATOM     25  O   LIG A   1     -13.366   8.656 129.139  0.00  0.00    -0.495 OA
ATOM     26  C   LIG A   1     -13.160  10.068 129.122  0.00  0.00    +0.277 C 
ENDBRANCH  19  25
BRANCH  22  27
ATOM     27  O   LIG A   1     -11.073   6.076 132.367  0.00  0.00    -0.505 OA
ATOM     28  H   LIG A   1     -10.243   6.366 132.800  0.00  0.00    +0.292 HD
ENDBRANCH  22  27
ENDBRANCH   1  16
TORSDOF 8
ENDMDL
MODEL 5
REMARK VINA RESULT:      -6.3      1.464      3.534
REMARK  Name = NuBBE_1994
REMARK  14 active torsions:
REMARK  status: ('A' for Active; 'I' for Inactive)
REMARK    1  A    between atoms: C_1  and  O_2
REMARK    2  A    between atoms: O_2  and  C_3
REMARK    3  A    between atoms: C_5  and  O_6
REMARK    4  A    between atoms: O_6  and  C_7
REMARK    5  A    between atoms: C_8  and  C_9
REMARK    6  A    between atoms: C_9  and  C_11
REMARK    7  A    between atoms: C_12  and  O_13
REMARK    8  A    between atoms: O_13  and  C_14
REMARK    9  A    between atoms: C_16  and  O_17
REMARK   10  A    between atoms: O_17  and  C_18
REMARK   11  A    between atoms: C_19  and  C_20
REMARK   12  A    between atoms: C_21  and  O_22
REMARK   13  A    between atoms: C_23  and  O_24
REMARK   14  A    between atoms: C_25  and  C_26
REMARK                            x       y       z     vdW  Elec       q    Type
REMARK                         _______ _______ _______ _____ _____    ______ ____
ROOT
ATOM      1  C   LIG A   1      -7.624   2.322 125.174  0.00  0.00    +0.207 C 
ATOM      2  O   LIG A   1      -8.329   2.987 125.981  0.00  0.00    -0.286 OA
ENDROOT
BRANCH   1   6
ATOM      3  C   LIG A   1      -7.177   3.753 121.085  0.00  0.00    +0.130 A 
ATOM      4  C   LIG A   1      -8.364   3.122 121.493  0.00  0.00    +0.092 A 
ATOM      5  C   LIG A   1      -8.588   2.722 122.831  0.00  0.00    +0.138 A 
ATOM      6  C   LIG A   1      -7.573   2.898 123.781  0.00  0.00    +0.106 A 
ATOM      7  C   LIG A   1      -6.401   3.594 123.364  0.00  0.00    +0.138 A 
ATOM      8  C   LIG A   1      -6.156   3.957 122.019  0.00  0.00    +0.034 A 
ATOM      9  C   LIG A   1      -4.801   4.482 121.622  0.00  0.00    +0.051 C 
BRANCH   3  11
ATOM     10  C   LIG A   1      -8.366   4.315 119.097  0.00  0.00    +0.277 C 
ATOM     11  O   LIG A   1      -7.121   4.045 119.744  0.00  0.00    -0.495 OA
ENDBRANCH   3  11
BRANCH   5  12
ATOM     12  O   LIG A   1      -9.730   2.094 123.255  0.00  0.00    -0.494 OA
ATOM     13  C   LIG A   1     -10.095   0.885 122.597  0.00  0.00    +0.277 C 
ENDBRANCH   5  12
BRANCH   7  14
ATOM     14  O   LIG A   1      -5.409   3.934 124.258  0.00  0.00    -0.505 OA
ATOM     15  H   LIG A   1      -5.801   3.993 125.154  0.00  0.00    +0.292 HD
ENDBRANCH   7  14
ENDBRANCH   1   6
BRANCH   1  16
ATOM     16  C   LIG A   1      -6.990   1.063 125.745  0.00  0.00    +0.106 A 
ATOM     17  C   LIG A   1      -5.662   0.859 126.183  0.00  0.00    +0.138 A 
ATOM     18  C   LIG A   1      -5.284  -0.382 126.779  0.00  0.00    +0.092 A 
ATOM     19  C   LIG A   1      -6.177  -1.430 126.984  0.00  0.00    +0.130 A 
ATOM     20  C   LIG A   1      -7.517  -1.241 126.637  0.00  0.00    +0.034 A 
ATOM     21  C   LIG A   1      -8.518  -2.331 126.945  0.00  0.00    +0.051 C 
ATOM     22  C   LIG A   1      -7.902  -0.005 126.048  0.00  0.00    +0.138 A 
BRANCH  17  23
ATOM     23  O   LIG A   1      -4.606   1.722 126.319  0.00  0.00    -0.494 OA
ATOM     24  C   LIG A   1      -4.527   2.579 127.428  0.00  0.00    +0.277 C 
ENDBRANCH  17  23
BRANCH  19  25
ATOM     25  O   LIG A   1      -5.844  -2.616 127.588  0.00  0.00    -0.495 OA
ATOM     26  C   LIG A   1      -4.780  -2.580 128.537  0.00  0.00    +0.277 C 
ENDBRANCH  19  25
BRANCH  22  27
ATOM     27  O   LIG A   1      -9.257   0.126 125.808  0.00  0.00    -0.505 OA
ATOM     28  H   LIG A   1      -9.434  -0.184 124.895  0.00  0.00    +0.292 HD
ENDBRANCH  22  27
ENDBRANCH   1  16
TORSDOF 8
ENDMDL
MODEL 6
REMARK VINA RESULT:      -6.1      1.667      3.447
REMARK  Name = NuBBE_1994
REMARK  14 active torsions:
REMARK  status: ('A' for Active; 'I' for Inactive)
REMARK    1  A    between atoms: C_1  and  O_2
REMARK    2  A    between atoms: O_2  and  C_3
REMARK    3  A    between atoms: C_5  and  O_6
REMARK    4  A    between atoms: O_6  and  C_7
REMARK    5  A    between atoms: C_8  and  C_9
REMARK    6  A    between atoms: C_9  and  C_11
REMARK    7  A    between atoms: C_12  and  O_13
REMARK    8  A    between atoms: O_13  and  C_14
REMARK    9  A    between atoms: C_16  and  O_17
REMARK   10  A    between atoms: O_17  and  C_18
REMARK   11  A    between atoms: C_19  and  C_20
REMARK   12  A    between atoms: C_21  and  O_22
REMARK   13  A    between atoms: C_23  and  O_24
REMARK   14  A    between atoms: C_25  and  C_26
REMARK                            x       y       z     vdW  Elec       q    Type
REMARK                         _______ _______ _______ _____ _____    ______ ____
ROOT
ATOM      1  C   LIG A   1      -8.786   0.988 125.799  0.00  0.00    +0.207 C 
ATOM      2  O   LIG A   1     -10.036   1.146 125.746  0.00  0.00    -0.286 OA
ENDROOT
BRANCH   1   6
ATOM      3  C   LIG A   1      -6.281   3.505 123.278  0.00  0.00    +0.130 A 
ATOM      4  C   LIG A   1      -6.635   2.210 122.864  0.00  0.00    +0.092 A 
ATOM      5  C   LIG A   1      -7.517   1.392 123.606  0.00  0.00    +0.138 A 
ATOM      6  C   LIG A   1      -8.014   1.852 124.834  0.00  0.00    +0.106 A 
ATOM      7  C   LIG A   1      -7.693   3.189 125.208  0.00  0.00    +0.138 A 
ATOM      8  C   LIG A   1      -6.778   3.994 124.490  0.00  0.00    +0.034 A 
ATOM      9  C   LIG A   1      -6.319   5.306 125.073  0.00  0.00    +0.051 C 
BRANCH   3  11
ATOM     10  C   LIG A   1      -5.449   3.797 121.064  0.00  0.00    +0.277 C 
ATOM     11  O   LIG A   1      -5.391   4.143 122.449  0.00  0.00    -0.495 OA
ENDBRANCH   3  11
BRANCH   5  12
ATOM     12  O   LIG A   1      -7.871   0.121 123.234  0.00  0.00    -0.494 OA
ATOM     13  C   LIG A   1      -6.829  -0.843 123.128  0.00  0.00    +0.277 C 
ENDBRANCH   5  12
BRANCH   7  14
ATOM     14  O   LIG A   1      -8.244   3.776 126.328  0.00  0.00    -0.505 OA
ATOM     15  H   LIG A   1      -8.674   4.615 126.062  0.00  0.00    +0.292 HD
ENDBRANCH   7  14
ENDBRANCH   1   6
BRANCH   1  16
ATOM     16  C   LIG A   1      -8.302  -0.054 126.796  0.00  0.00    +0.106 A 
ATOM     17  C   LIG A   1      -7.696   0.140 128.057  0.00  0.00    +0.138 A 
ATOM     18  C   LIG A   1      -7.394  -0.979 128.889  0.00  0.00    +0.092 A 
ATOM     19  C   LIG A   1      -7.693  -2.292 128.536  0.00  0.00    +0.130 A 
ATOM     20  C   LIG A   1      -8.363  -2.522 127.332  0.00  0.00    +0.034 A 
ATOM     21  C   LIG A   1      -8.783  -3.931 126.981  0.00  0.00    +0.051 C 
ATOM     22  C   LIG A   1      -8.671  -1.411 126.500  0.00  0.00    +0.138 A 
BRANCH  17  23
ATOM     23  O   LIG A   1      -7.458   1.275 128.788  0.00  0.00    -0.494 OA
ATOM     24  C   LIG A   1      -8.516   1.949 129.418  0.00  0.00    +0.277 C 
ENDBRANCH  17  23
BRANCH  19  25
ATOM     25  O   LIG A   1      -7.446  -3.379 129.337  0.00  0.00    -0.495 OA
ATOM     26  C   LIG A   1      -6.112  -3.538 129.815  0.00  0.00    +0.277 C 
ENDBRANCH  19  25
BRANCH  22  27
ATOM     27  O   LIG A   1      -9.402  -1.719 125.367  0.00  0.00    -0.505 OA
ATOM     28  H   LIG A   1      -9.796  -2.607 125.494  0.00  0.00    +0.292 HD
ENDBRANCH  22  27
ENDBRANCH   1  16
TORSDOF 8
ENDMDL
MODEL 7
REMARK VINA RESULT:      -6.1      2.798      7.536
REMARK  Name = NuBBE_1994
REMARK  14 active torsions:
REMARK  status: ('A' for Active; 'I' for Inactive)
REMARK    1  A    between atoms: C_1  and  O_2
REMARK    2  A    between atoms: O_2  and  C_3
REMARK    3  A    between atoms: C_5  and  O_6
REMARK    4  A    between atoms: O_6  and  C_7
REMARK    5  A    between atoms: C_8  and  C_9
REMARK    6  A    between atoms: C_9  and  C_11
REMARK    7  A    between atoms: C_12  and  O_13
REMARK    8  A    between atoms: O_13  and  C_14
REMARK    9  A    between atoms: C_16  and  O_17
REMARK   10  A    between atoms: O_17  and  C_18
REMARK   11  A    between atoms: C_19  and  C_20
REMARK   12  A    between atoms: C_21  and  O_22
REMARK   13  A    between atoms: C_23  and  O_24
REMARK   14  A    between atoms: C_25  and  C_26
REMARK                            x       y       z     vdW  Elec       q    Type
REMARK                         _______ _______ _______ _____ _____    ______ ____
ROOT
ATOM      1  C   LIG A   1      -7.818   4.228 126.934  0.00  0.00    +0.207 C 
ATOM      2  O   LIG A   1      -8.575   5.220 127.116  0.00  0.00    -0.286 OA
ENDROOT
BRANCH   1   6
ATOM      3  C   LIG A   1      -7.491   1.980 130.650  0.00  0.00    +0.130 A 
ATOM      4  C   LIG A   1      -8.203   1.454 129.559  0.00  0.00    +0.092 A 
ATOM      5  C   LIG A   1      -8.261   2.106 128.306  0.00  0.00    +0.138 A 
ATOM      6  C   LIG A   1      -7.643   3.354 128.150  0.00  0.00    +0.106 A 
ATOM      7  C   LIG A   1      -6.875   3.844 129.247  0.00  0.00    +0.138 A 
ATOM      8  C   LIG A   1      -6.850   3.215 130.515  0.00  0.00    +0.034 A 
ATOM      9  C   LIG A   1      -6.203   3.913 131.683  0.00  0.00    +0.051 C 
BRANCH   3  11
ATOM     10  C   LIG A   1      -8.796   0.529 132.019  0.00  0.00    +0.277 C 
ATOM     11  O   LIG A   1      -7.569   1.226 131.796  0.00  0.00    -0.495 OA
ENDBRANCH   3  11
BRANCH   5  12
ATOM     12  O   LIG A   1      -8.957   1.623 127.229  0.00  0.00    -0.494 OA
ATOM     13  C   LIG A   1      -8.490   0.415 126.636  0.00  0.00    +0.277 C 
ENDBRANCH   5  12
BRANCH   7  14
ATOM     14  O   LIG A   1      -6.121   4.994 129.143  0.00  0.00    -0.505 OA
ATOM     15  H   LIG A   1      -5.283   4.778 128.684  0.00  0.00    +0.292 HD
ENDBRANCH   7  14
ENDBRANCH   1   6
BRANCH   1  16
ATOM     16  C   LIG A   1      -7.207   4.120 125.545  0.00  0.00    +0.106 A 
ATOM     17  C   LIG A   1      -5.859   4.281 125.154  0.00  0.00    +0.138 A 
ATOM     18  C   LIG A   1      -5.470   4.045 123.802  0.00  0.00    +0.092 A 
ATOM     19  C   LIG A   1      -6.360   3.628 122.816  0.00  0.00    +0.130 A 
ATOM     20  C   LIG A   1      -7.686   3.382 123.177  0.00  0.00    +0.034 A 
ATOM     21  C   LIG A   1      -8.641   2.833 122.142  0.00  0.00    +0.051 C 
ATOM     22  C   LIG A   1      -8.080   3.609 124.524  0.00  0.00    +0.138 A 
BRANCH  17  23
ATOM     23  O   LIG A   1      -4.716   4.476 125.886  0.00  0.00    -0.494 OA
ATOM     24  C   LIG A   1      -4.081   3.394 126.515  0.00  0.00    +0.277 C 
ENDBRANCH  17  23
BRANCH  19  25
ATOM     25  O   LIG A   1      -5.999   3.360 121.519  0.00  0.00    -0.495 OA
ATOM     26  C   LIG A   1      -5.296   4.385 120.820  0.00  0.00    +0.277 C 
ENDBRANCH  19  25
BRANCH  22  27
ATOM     27  O   LIG A   1      -9.388   3.266 124.812  0.00  0.00    -0.505 OA
ATOM     28  H   LIG A   1      -9.961   4.019 124.559  0.00  0.00    +0.292 HD
ENDBRANCH  22  27
ENDBRANCH   1  16
TORSDOF 8
ENDMDL
MODEL 8
REMARK VINA RESULT:      -6.1      6.349      9.075
REMARK  Name = NuBBE_1994
REMARK  14 active torsions:
REMARK  status: ('A' for Active; 'I' for Inactive)
REMARK    1  A    between atoms: C_1  and  O_2
REMARK    2  A    between atoms: O_2  and  C_3
REMARK    3  A    between atoms: C_5  and  O_6
REMARK    4  A    between atoms: O_6  and  C_7
REMARK    5  A    between atoms: C_8  and  C_9
REMARK    6  A    between atoms: C_9  and  C_11
REMARK    7  A    between atoms: C_12  and  O_13
REMARK    8  A    between atoms: O_13  and  C_14
REMARK    9  A    between atoms: C_16  and  O_17
REMARK   10  A    between atoms: O_17  and  C_18
REMARK   11  A    between atoms: C_19  and  C_20
REMARK   12  A    between atoms: C_21  and  O_22
REMARK   13  A    between atoms: C_23  and  O_24
REMARK   14  A    between atoms: C_25  and  C_26
REMARK                            x       y       z     vdW  Elec       q    Type
REMARK                         _______ _______ _______ _____ _____    ______ ____
ROOT
ATOM      1  C   LIG A   1      -9.809   4.798 129.790  0.00  0.00    +0.207 C 
ATOM      2  O   LIG A   1     -10.562   3.793 129.905  0.00  0.00    -0.286 OA
ENDROOT
BRANCH   1   6
ATOM      3  C   LIG A   1      -5.656   3.527 130.120  0.00  0.00    +0.130 A 
ATOM      4  C   LIG A   1      -6.219   3.802 128.863  0.00  0.00    +0.092 A 
ATOM      5  C   LIG A   1      -7.533   4.302 128.713  0.00  0.00    +0.138 A 
ATOM      6  C   LIG A   1      -8.337   4.474 129.849  0.00  0.00    +0.106 A 
ATOM      7  C   LIG A   1      -7.730   4.249 131.119  0.00  0.00    +0.138 A 
ATOM      8  C   LIG A   1      -6.431   3.709 131.270  0.00  0.00    +0.034 A 
ATOM      9  C   LIG A   1      -5.950   3.289 132.634  0.00  0.00    +0.051 C 
BRANCH   3  11
ATOM     10  C   LIG A   1      -3.697   3.127 128.822  0.00  0.00    +0.277 C 
ATOM     11  O   LIG A   1      -4.380   3.021 130.073  0.00  0.00    -0.495 OA
ENDBRANCH   3  11
BRANCH   5  12
ATOM     12  O   LIG A   1      -8.113   4.567 127.500  0.00  0.00    -0.494 OA
ATOM     13  C   LIG A   1      -7.372   4.225 126.333  0.00  0.00    +0.277 C 
ENDBRANCH   5  12
BRANCH   7  14
ATOM     14  O   LIG A   1      -8.397   4.523 132.294  0.00  0.00    -0.505 OA
ATOM     15  H   LIG A   1      -8.524   3.684 132.785  0.00  0.00    +0.292 HD
ENDBRANCH   7  14
ENDBRANCH   1   6
BRANCH   1  16
ATOM     16  C   LIG A   1     -10.521   6.134 129.644  0.00  0.00    +0.106 A 
ATOM     17  C   LIG A   1     -10.591   6.983 128.517  0.00  0.00    +0.138 A 
ATOM     18  C   LIG A   1     -11.394   8.162 128.555  0.00  0.00    +0.092 A 
ATOM     19  C   LIG A   1     -12.158   8.527 129.660  0.00  0.00    +0.130 A 
ATOM     20  C   LIG A   1     -12.179   7.674 130.766  0.00  0.00    +0.034 A 
ATOM     21  C   LIG A   1     -13.081   8.005 131.934  0.00  0.00    +0.051 C 
ATOM     22  C   LIG A   1     -11.385   6.495 130.734  0.00  0.00    +0.138 A 
BRANCH  17  23
ATOM     23  O   LIG A   1     -10.145   6.827 127.231  0.00  0.00    -0.494 OA
ATOM     24  C   LIG A   1     -10.770   7.508 126.174  0.00  0.00    +0.277 C 
ENDBRANCH  17  23
BRANCH  19  25
ATOM     25  O   LIG A   1     -12.966   9.635 129.704  0.00  0.00    -0.495 OA
ATOM     26  C   LIG A   1     -13.737   9.918 128.537  0.00  0.00    +0.277 C 
ENDBRANCH  19  25
BRANCH  22  27
ATOM     27  O   LIG A   1     -11.524   5.671 131.836  0.00  0.00    -0.505 OA
ATOM     28  H   LIG A   1     -11.560   6.238 132.635  0.00  0.00    +0.292 HD
ENDBRANCH  22  27
ENDBRANCH   1  16
TORSDOF 8
ENDMDL
MODEL 9
REMARK VINA RESULT:      -6.0      6.758      8.611
REMARK  Name = NuBBE_1994
REMARK  14 active torsions:
REMARK  status: ('A' for Active; 'I' for Inactive)
REMARK    1  A    between atoms: C_1  and  O_2
REMARK    2  A    between atoms: O_2  and  C_3
REMARK    3  A    between atoms: C_5  and  O_6
REMARK    4  A    between atoms: O_6  and  C_7
REMARK    5  A    between atoms: C_8  and  C_9
REMARK    6  A    between atoms: C_9  and  C_11
REMARK    7  A    between atoms: C_12  and  O_13
REMARK    8  A    between atoms: O_13  and  C_14
REMARK    9  A    between atoms: C_16  and  O_17
REMARK   10  A    between atoms: O_17  and  C_18
REMARK   11  A    between atoms: C_19  and  C_20
REMARK   12  A    between atoms: C_21  and  O_22
REMARK   13  A    between atoms: C_23  and  O_24
REMARK   14  A    between atoms: C_25  and  C_26
REMARK                            x       y       z     vdW  Elec       q    Type
REMARK                         _______ _______ _______ _____ _____    ______ ____
ROOT
ATOM      1  C   LIG A   1      -9.547   5.635 132.212  0.00  0.00    +0.207 C 
ATOM      2  O   LIG A   1      -9.776   6.423 133.169  0.00  0.00    -0.286 OA
ENDROOT
BRANCH   1   6
ATOM      3  C   LIG A   1     -11.355   7.224 128.582  0.00  0.00    +0.130 A 
ATOM      4  C   LIG A   1     -10.035   6.744 128.569  0.00  0.00    +0.092 A 
ATOM      5  C   LIG A   1      -9.437   6.138 129.699  0.00  0.00    +0.138 A 
ATOM      6  C   LIG A   1     -10.155   6.065 130.900  0.00  0.00    +0.106 A 
ATOM      7  C   LIG A   1     -11.512   6.501 130.879  0.00  0.00    +0.138 A 
ATOM      8  C   LIG A   1     -12.098   7.146 129.764  0.00  0.00    +0.034 A 
ATOM      9  C   LIG A   1     -13.459   7.779 129.898  0.00  0.00    +0.051 C 
BRANCH   3  11
ATOM     10  C   LIG A   1     -10.901   7.630 126.278  0.00  0.00    +0.277 C 
ATOM     11  O   LIG A   1     -11.760   7.807 127.406  0.00  0.00    -0.495 OA
ENDBRANCH   3  11
BRANCH   5  12
ATOM     12  O   LIG A   1      -8.149   5.672 129.719  0.00  0.00    -0.494 OA
ATOM     13  C   LIG A   1      -7.859   4.518 128.937  0.00  0.00    +0.277 C 
ENDBRANCH   5  12
BRANCH   7  14
ATOM     14  O   LIG A   1     -12.337   6.343 131.972  0.00  0.00    -0.505 OA
ATOM     15  H   LIG A   1     -13.049   7.015 131.926  0.00  0.00    +0.292 HD
ENDBRANCH   7  14
ENDBRANCH   1   6
BRANCH   1  16
ATOM     16  C   LIG A   1      -8.734   4.399 132.564  0.00  0.00    +0.106 A 
ATOM     17  C   LIG A   1      -7.602   4.292 133.404  0.00  0.00    +0.138 A 
ATOM     18  C   LIG A   1      -7.033   3.013 133.682  0.00  0.00    +0.092 A 
ATOM     19  C   LIG A   1      -7.555   1.823 133.183  0.00  0.00    +0.130 A 
ATOM     20  C   LIG A   1      -8.719   1.878 132.413  0.00  0.00    +0.034 A 
ATOM     21  C   LIG A   1      -9.354   0.587 131.947  0.00  0.00    +0.051 C 
ATOM     22  C   LIG A   1      -9.295   3.147 132.136  0.00  0.00    +0.138 A 
BRANCH  17  23
ATOM     23  O   LIG A   1      -6.973   5.208 134.205  0.00  0.00    -0.494 OA
ATOM     24  C   LIG A   1      -7.339   5.342 135.554  0.00  0.00    +0.277 C 
ENDBRANCH  17  23
BRANCH  19  25
ATOM     25  O   LIG A   1      -7.045   0.581 133.468  0.00  0.00    -0.495 OA
ATOM     26  C   LIG A   1      -5.890   0.534 134.303  0.00  0.00    +0.277 C 
ENDBRANCH  19  25
BRANCH  22  27
ATOM     27  O   LIG A   1     -10.486   3.104 131.434  0.00  0.00    -0.505 OA
ATOM     28  H   LIG A   1     -10.332   2.600 130.608  0.00  0.00    +0.292 HD
ENDBRANCH  22  27
ENDBRANCH   1  16
TORSDOF 8
ENDMDL
