MODEL 1
REMARK VINA RESULT:      -6.1      0.000      0.000
REMARK  Name = NuBBE_1684
REMARK  16 active torsions:
REMARK  status: ('A' for Active; 'I' for Inactive)
REMARK    1  A    between atoms: C_1  and  C_2
REMARK    2  A    between atoms: C_2  and  C_3
REMARK    3  A    between atoms: C_3  and  C_4
REMARK    4  A    between atoms: C_5  and  C_6
REMARK    5  A    between atoms: C_6  and  C_7
REMARK    6  A    between atoms: C_8  and  C_9
REMARK    7  A    between atoms: C_9  and  C_10
REMARK    8  A    between atoms: C_10  and  C_11
REMARK    9  A    between atoms: C_11  and  C_12
REMARK   10  A    between atoms: C_12  and  C_13
REMARK   11  A    between atoms: C_13  and  C_14
REMARK   12  A    between atoms: C_14  and  C_15
REMARK   13  A    between atoms: C_15  and  C_16
REMARK   14  A    between atoms: C_18  and  O_19
REMARK   15  A    between atoms: C_20  and  C_21
REMARK   16  A    between atoms: C_22  and  O_23
REMARK                            x       y       z     vdW  Elec       q    Type
REMARK                         _______ _______ _______ _____ _____    ______ ____
ROOT
ATOM      1  C   LIG A   1      -7.577  -0.945 129.598  0.00  0.00    +0.000 C 
ENDROOT
BRANCH   1   2
ATOM      2  C   LIG A   1      -7.048  -2.414 129.383  0.00  0.00    +0.000 C 
BRANCH   2   3
ATOM      3  C   LIG A   1      -7.971  -3.644 129.109  0.00  0.00    +0.000 C 
BRANCH   3   4
ATOM      4  C   LIG A   1      -8.948  -3.820 127.915  0.00  0.00    +0.004 C 
BRANCH   4   5
ATOM      5  C   LIG A   1      -8.397  -3.658 126.501  0.00  0.00    +0.027 C 
BRANCH   5   7
ATOM      6  C   LIG A   1      -9.552  -2.477 124.510  0.00  0.00    -0.027 C 
ATOM      7  C   LIG A   1      -9.307  -2.676 125.779  0.00  0.00    -0.031 C 
BRANCH   6   8
ATOM      8  C   LIG A   1      -8.872  -2.973 123.253  0.00  0.00    +0.054 C 
BRANCH   8  10
ATOM      9  C   LIG A   1      -6.674  -1.637 123.085  0.00  0.00    -0.031 C 
ATOM     10  C   LIG A   1      -7.901  -1.931 122.708  0.00  0.00    -0.027 C 
BRANCH   9  11
ATOM     11  C   LIG A   1      -5.839  -2.220 124.195  0.00  0.00    +0.026 C 
BRANCH  11  13
ATOM     12  C   LIG A   1      -4.168  -4.016 123.485  0.00  0.00    +0.004 C 
ATOM     13  C   LIG A   1      -5.503  -3.706 124.148  0.00  0.00    +0.001 C 
ENDBRANCH  11  13
ENDBRANCH   9  11
ENDBRANCH   8  10
ENDBRANCH   6   8
ENDBRANCH   5   7
ENDBRANCH   4   5
ENDBRANCH   3   4
ENDBRANCH   2   3
ENDBRANCH   1   2
BRANCH   1  14
ATOM     14  C   LIG A   1      -7.690  -0.058 128.365  0.00  0.00    +0.005 C 
BRANCH  14  15
ATOM     15  C   LIG A   1      -6.717   0.254 127.229  0.00  0.00    +0.035 C 
BRANCH  15  16
ATOM     16  C   LIG A   1      -7.292   0.944 126.047  0.00  0.00    -0.041 A 
ATOM     17  C   LIG A   1      -8.672   0.858 125.938  0.00  0.00    +0.049 A 
ATOM     18  C   LIG A   1      -9.287   1.180 124.751  0.00  0.00    +0.123 A 
ATOM     19  C   LIG A   1      -8.571   1.740 123.697  0.00  0.00    +0.032 A 
ATOM     20  C   LIG A   1      -9.292   2.141 122.447  0.00  0.00    +0.051 C 
ATOM     21  C   LIG A   1      -7.196   1.959 123.864  0.00  0.00    +0.123 A 
ATOM     22  C   LIG A   1      -6.543   1.531 125.020  0.00  0.00    +0.049 A 
BRANCH  18  23
ATOM     23  O   LIG A   1     -10.618   0.913 124.619  0.00  0.00    -0.506 OA
ATOM     24  H   LIG A   1     -10.985   0.752 125.502  0.00  0.00    +0.292 HD
ENDBRANCH  18  23
BRANCH  21  25
ATOM     25  O   LIG A   1      -6.501   2.601 122.878  0.00  0.00    -0.506 OA
ATOM     26  H   LIG A   1      -6.163   1.933 122.258  0.00  0.00    +0.292 HD
ENDBRANCH  21  25
ENDBRANCH  15  16
ENDBRANCH  14  15
ENDBRANCH   1  14
TORSDOF 14
ENDMDL
MODEL 2
REMARK VINA RESULT:      -6.0      2.760      5.549
REMARK  Name = NuBBE_1684
REMARK  16 active torsions:
REMARK  status: ('A' for Active; 'I' for Inactive)
REMARK    1  A    between atoms: C_1  and  C_2
REMARK    2  A    between atoms: C_2  and  C_3
REMARK    3  A    between atoms: C_3  and  C_4
REMARK    4  A    between atoms: C_5  and  C_6
REMARK    5  A    between atoms: C_6  and  C_7
REMARK    6  A    between atoms: C_8  and  C_9
REMARK    7  A    between atoms: C_9  and  C_10
REMARK    8  A    between atoms: C_10  and  C_11
REMARK    9  A    between atoms: C_11  and  C_12
REMARK   10  A    between atoms: C_12  and  C_13
REMARK   11  A    between atoms: C_13  and  C_14
REMARK   12  A    between atoms: C_14  and  C_15
REMARK   13  A    between atoms: C_15  and  C_16
REMARK   14  A    between atoms: C_18  and  O_19
REMARK   15  A    between atoms: C_20  and  C_21
REMARK   16  A    between atoms: C_22  and  O_23
REMARK                            x       y       z     vdW  Elec       q    Type
REMARK                         _______ _______ _______ _____ _____    ______ ____
ROOT
ATOM      1  C   LIG A   1      -9.309  -3.095 126.144  0.00  0.00    +0.000 C 
ENDROOT
BRANCH   1   2
ATOM      2  C   LIG A   1      -8.849  -3.557 124.709  0.00  0.00    +0.000 C 
BRANCH   2   3
ATOM      3  C   LIG A   1      -9.436  -2.989 123.377  0.00  0.00    +0.000 C 
BRANCH   3   4
ATOM      4  C   LIG A   1      -9.078  -1.631 122.714  0.00  0.00    +0.004 C 
BRANCH   4   5
ATOM      5  C   LIG A   1      -7.808  -0.918 123.168  0.00  0.00    +0.027 C 
BRANCH   5   7
ATOM      6  C   LIG A   1      -7.483   0.442 125.343  0.00  0.00    -0.027 C 
ATOM      7  C   LIG A   1      -8.187  -0.051 124.359  0.00  0.00    -0.031 C 
BRANCH   6   8
ATOM      8  C   LIG A   1      -6.074   0.171 125.824  0.00  0.00    +0.054 C 
BRANCH   8  10
ATOM      9  C   LIG A   1      -5.556  -2.354 125.860  0.00  0.00    -0.031 C 
ATOM     10  C   LIG A   1      -5.957  -1.230 126.415  0.00  0.00    -0.027 C 
BRANCH   9  11
ATOM     11  C   LIG A   1      -5.103  -2.626 124.448  0.00  0.00    +0.026 C 
BRANCH  11  13
ATOM     12  C   LIG A   1      -4.044  -4.746 123.501  0.00  0.00    +0.004 C 
ATOM     13  C   LIG A   1      -5.328  -4.018 123.868  0.00  0.00    +0.001 C 
ENDBRANCH  11  13
ENDBRANCH   9  11
ENDBRANCH   8  10
ENDBRANCH   6   8
ENDBRANCH   5   7
ENDBRANCH   4   5
ENDBRANCH   3   4
ENDBRANCH   2   3
ENDBRANCH   1   2
BRANCH   1  14
ATOM     14  C   LIG A   1      -8.647  -3.768 127.338  0.00  0.00    +0.005 C 
BRANCH  14  15
ATOM     15  C   LIG A   1      -8.717  -3.498 128.841  0.00  0.00    +0.035 C 
BRANCH  15  16
ATOM     16  C   LIG A   1      -7.530  -2.840 129.443  0.00  0.00    -0.041 A 
ATOM     17  C   LIG A   1      -7.659  -1.472 129.633  0.00  0.00    +0.049 A 
ATOM     18  C   LIG A   1      -6.544  -0.708 129.887  0.00  0.00    +0.123 A 
ATOM     19  C   LIG A   1      -5.302  -1.296 130.111  0.00  0.00    +0.032 A 
ATOM     20  C   LIG A   1      -4.129  -0.432 130.455  0.00  0.00    +0.051 C 
ATOM     21  C   LIG A   1      -5.206  -2.694 130.059  0.00  0.00    +0.123 A 
ATOM     22  C   LIG A   1      -6.305  -3.470 129.690  0.00  0.00    +0.049 A 
BRANCH  18  23
ATOM     23  O   LIG A   1      -6.677   0.649 129.890  0.00  0.00    -0.506 OA
ATOM     24  H   LIG A   1      -6.630   0.962 128.973  0.00  0.00    +0.292 HD
ENDBRANCH  18  23
BRANCH  21  25
ATOM     25  O   LIG A   1      -4.018  -3.290 130.378  0.00  0.00    -0.506 OA
ATOM     26  H   LIG A   1      -3.639  -3.670 129.567  0.00  0.00    +0.292 HD
ENDBRANCH  21  25
ENDBRANCH  15  16
ENDBRANCH  14  15
ENDBRANCH   1  14
TORSDOF 14
ENDMDL
MODEL 3
REMARK VINA RESULT:      -6.0      1.241      3.615
REMARK  Name = NuBBE_1684
REMARK  16 active torsions:
REMARK  status: ('A' for Active; 'I' for Inactive)
REMARK    1  A    between atoms: C_1  and  C_2
REMARK    2  A    between atoms: C_2  and  C_3
REMARK    3  A    between atoms: C_3  and  C_4
REMARK    4  A    between atoms: C_5  and  C_6
REMARK    5  A    between atoms: C_6  and  C_7
REMARK    6  A    between atoms: C_8  and  C_9
REMARK    7  A    between atoms: C_9  and  C_10
REMARK    8  A    between atoms: C_10  and  C_11
REMARK    9  A    between atoms: C_11  and  C_12
REMARK   10  A    between atoms: C_12  and  C_13
REMARK   11  A    between atoms: C_13  and  C_14
REMARK   12  A    between atoms: C_14  and  C_15
REMARK   13  A    between atoms: C_15  and  C_16
REMARK   14  A    between atoms: C_18  and  O_19
REMARK   15  A    between atoms: C_20  and  C_21
REMARK   16  A    between atoms: C_22  and  O_23
REMARK                            x       y       z     vdW  Elec       q    Type
REMARK                         _______ _______ _______ _____ _____    ______ ____
ROOT
ATOM      1  C   LIG A   1      -6.332  -0.214 127.707  0.00  0.00    +0.000 C 
ENDROOT
BRANCH   1   2
ATOM      2  C   LIG A   1      -5.826  -0.306 126.217  0.00  0.00    +0.000 C 
BRANCH   2   3
ATOM      3  C   LIG A   1      -5.613  -1.649 125.448  0.00  0.00    +0.000 C 
BRANCH   3   4
ATOM      4  C   LIG A   1      -5.900  -1.909 123.944  0.00  0.00    +0.004 C 
BRANCH   4   5
ATOM      5  C   LIG A   1      -6.882  -0.988 123.226  0.00  0.00    +0.027 C 
BRANCH   5   7
ATOM      6  C   LIG A   1      -8.669  -2.832 122.926  0.00  0.00    -0.027 C 
ATOM      7  C   LIG A   1      -7.881  -1.879 122.504  0.00  0.00    -0.031 C 
BRANCH   6   8
ATOM      8  C   LIG A   1      -8.746  -3.586 124.235  0.00  0.00    +0.054 C 
BRANCH   8  10
ATOM      9  C   LIG A   1      -9.210  -2.684 126.604  0.00  0.00    -0.031 C 
ATOM     10  C   LIG A   1      -9.434  -2.750 125.309  0.00  0.00    -0.027 C 
BRANCH   9  11
ATOM     11  C   LIG A   1      -8.213  -3.432 127.452  0.00  0.00    +0.026 C 
BRANCH  11  13
ATOM     12  C   LIG A   1      -7.042  -3.614 129.713  0.00  0.00    +0.004 C 
ATOM     13  C   LIG A   1      -8.343  -3.351 128.969  0.00  0.00    +0.001 C 
ENDBRANCH  11  13
ENDBRANCH   9  11
ENDBRANCH   8  10
ENDBRANCH   6   8
ENDBRANCH   5   7
ENDBRANCH   4   5
ENDBRANCH   3   4
ENDBRANCH   2   3
ENDBRANCH   1   2
BRANCH   1  14
ATOM     14  C   LIG A   1      -7.770   0.236 127.928  0.00  0.00    +0.005 C 
BRANCH  14  15
ATOM     15  C   LIG A   1      -8.566   1.430 127.404  0.00  0.00    +0.035 C 
BRANCH  15  16
ATOM     16  C   LIG A   1      -8.628   1.577 125.928  0.00  0.00    -0.041 A 
ATOM     17  C   LIG A   1      -7.778   2.539 125.403  0.00  0.00    +0.049 A 
ATOM     18  C   LIG A   1      -7.958   2.982 124.114  0.00  0.00    +0.123 A 
ATOM     19  C   LIG A   1      -8.881   2.378 123.265  0.00  0.00    +0.032 A 
ATOM     20  C   LIG A   1      -8.996   2.845 121.848  0.00  0.00    +0.051 C 
ATOM     21  C   LIG A   1      -9.641   1.307 123.758  0.00  0.00    +0.123 A 
ATOM     22  C   LIG A   1      -9.548   0.925 125.097  0.00  0.00    +0.049 A 
BRANCH  18  23
ATOM     23  O   LIG A   1      -7.225   4.051 123.690  0.00  0.00    -0.506 OA
ATOM     24  H   LIG A   1      -6.344   3.995 124.090  0.00  0.00    +0.292 HD
ENDBRANCH  18  23
BRANCH  21  25
ATOM     25  O   LIG A   1     -10.476   0.638 122.909  0.00  0.00    -0.506 OA
ATOM     26  H   LIG A   1     -10.846   1.278 122.277  0.00  0.00    +0.292 HD
ENDBRANCH  21  25
ENDBRANCH  15  16
ENDBRANCH  14  15
ENDBRANCH   1  14
TORSDOF 14
ENDMDL
MODEL 4
REMARK VINA RESULT:      -5.9      2.364      5.072
REMARK  Name = NuBBE_1684
REMARK  16 active torsions:
REMARK  status: ('A' for Active; 'I' for Inactive)
REMARK    1  A    between atoms: C_1  and  C_2
REMARK    2  A    between atoms: C_2  and  C_3
REMARK    3  A    between atoms: C_3  and  C_4
REMARK    4  A    between atoms: C_5  and  C_6
REMARK    5  A    between atoms: C_6  and  C_7
REMARK    6  A    between atoms: C_8  and  C_9
REMARK    7  A    between atoms: C_9  and  C_10
REMARK    8  A    between atoms: C_10  and  C_11
REMARK    9  A    between atoms: C_11  and  C_12
REMARK   10  A    between atoms: C_12  and  C_13
REMARK   11  A    between atoms: C_13  and  C_14
REMARK   12  A    between atoms: C_14  and  C_15
REMARK   13  A    between atoms: C_15  and  C_16
REMARK   14  A    between atoms: C_18  and  O_19
REMARK   15  A    between atoms: C_20  and  C_21
REMARK   16  A    between atoms: C_22  and  O_23
REMARK                            x       y       z     vdW  Elec       q    Type
REMARK                         _______ _______ _______ _____ _____    ______ ____
ROOT
ATOM      1  C   LIG A   1      -8.970   0.002 124.289  0.00  0.00    +0.000 C 
ENDROOT
BRANCH   1   2
ATOM      2  C   LIG A   1      -9.157  -0.922 123.026  0.00  0.00    +0.000 C 
BRANCH   2   3
ATOM      3  C   LIG A   1      -9.014  -2.478 123.053  0.00  0.00    +0.000 C 
BRANCH   3   4
ATOM      4  C   LIG A   1      -9.135  -3.397 124.299  0.00  0.00    +0.004 C 
BRANCH   4   5
ATOM      5  C   LIG A   1      -7.854  -3.956 124.911  0.00  0.00    +0.027 C 
BRANCH   5   7
ATOM      6  C   LIG A   1      -5.764  -2.569 124.282  0.00  0.00    -0.027 C 
ATOM      7  C   LIG A   1      -6.698  -3.455 124.059  0.00  0.00    -0.031 C 
BRANCH   6   8
ATOM      8  C   LIG A   1      -5.586  -1.529 125.367  0.00  0.00    +0.054 C 
BRANCH   8  10
ATOM      9  C   LIG A   1      -6.628  -1.877 127.698  0.00  0.00    -0.031 C 
ATOM     10  C   LIG A   1      -5.755  -2.147 126.751  0.00  0.00    -0.027 C 
BRANCH   9  11
ATOM     11  C   LIG A   1      -7.731  -0.851 127.732  0.00  0.00    +0.026 C 
BRANCH  11  13
ATOM     12  C   LIG A   1      -8.546   1.564 127.867  0.00  0.00    +0.004 C 
ATOM     13  C   LIG A   1      -7.353   0.620 127.856  0.00  0.00    +0.001 C 
ENDBRANCH  11  13
ENDBRANCH   9  11
ENDBRANCH   8  10
ENDBRANCH   6   8
ENDBRANCH   5   7
ENDBRANCH   4   5
ENDBRANCH   3   4
ENDBRANCH   2   3
ENDBRANCH   1   2
BRANCH   1  14
ATOM     14  C   LIG A   1      -7.890   1.073 124.215  0.00  0.00    +0.005 C 
BRANCH  14  15
ATOM     15  C   LIG A   1      -7.945   2.570 123.909  0.00  0.00    +0.035 C 
BRANCH  15  16
ATOM     16  C   LIG A   1      -7.802   2.950 122.481  0.00  0.00    -0.041 A 
ATOM     17  C   LIG A   1      -6.495   3.128 122.055  0.00  0.00    +0.049 A 
ATOM     18  C   LIG A   1      -6.243   3.771 120.865  0.00  0.00    +0.123 A 
ATOM     19  C   LIG A   1      -7.277   4.113 119.998  0.00  0.00    +0.032 A 
ATOM     20  C   LIG A   1      -6.954   4.748 118.681  0.00  0.00    +0.051 C 
ATOM     21  C   LIG A   1      -8.593   3.801 120.370  0.00  0.00    +0.123 A 
ATOM     22  C   LIG A   1      -8.867   3.254 121.624  0.00  0.00    +0.049 A 
BRANCH  18  23
ATOM     23  O   LIG A   1      -4.952   4.089 120.562  0.00  0.00    -0.506 OA
ATOM     24  H   LIG A   1      -4.525   3.304 120.187  0.00  0.00    +0.292 HD
ENDBRANCH  18  23
BRANCH  21  25
ATOM     25  O   LIG A   1      -9.607   4.038 119.486  0.00  0.00    -0.506 OA
ATOM     26  H   LIG A   1      -9.295   4.682 118.827  0.00  0.00    +0.292 HD
ENDBRANCH  21  25
ENDBRANCH  15  16
ENDBRANCH  14  15
ENDBRANCH   1  14
TORSDOF 14
ENDMDL
MODEL 5
REMARK VINA RESULT:      -5.9      2.550      5.215
REMARK  Name = NuBBE_1684
REMARK  16 active torsions:
REMARK  status: ('A' for Active; 'I' for Inactive)
REMARK    1  A    between atoms: C_1  and  C_2
REMARK    2  A    between atoms: C_2  and  C_3
REMARK    3  A    between atoms: C_3  and  C_4
REMARK    4  A    between atoms: C_5  and  C_6
REMARK    5  A    between atoms: C_6  and  C_7
REMARK    6  A    between atoms: C_8  and  C_9
REMARK    7  A    between atoms: C_9  and  C_10
REMARK    8  A    between atoms: C_10  and  C_11
REMARK    9  A    between atoms: C_11  and  C_12
REMARK   10  A    between atoms: C_12  and  C_13
REMARK   11  A    between atoms: C_13  and  C_14
REMARK   12  A    between atoms: C_14  and  C_15
REMARK   13  A    between atoms: C_15  and  C_16
REMARK   14  A    between atoms: C_18  and  O_19
REMARK   15  A    between atoms: C_20  and  C_21
REMARK   16  A    between atoms: C_22  and  O_23
REMARK                            x       y       z     vdW  Elec       q    Type
REMARK                         _______ _______ _______ _____ _____    ______ ____
ROOT
ATOM      1  C   LIG A   1      -9.390  -2.781 125.986  0.00  0.00    +0.000 C 
ENDROOT
BRANCH   1   2
ATOM      2  C   LIG A   1      -9.493  -3.399 124.540  0.00  0.00    +0.000 C 
BRANCH   2   3
ATOM      3  C   LIG A   1      -8.531  -3.034 123.363  0.00  0.00    +0.000 C 
BRANCH   3   4
ATOM      4  C   LIG A   1      -8.489  -1.690 122.587  0.00  0.00    +0.004 C 
BRANCH   4   5
ATOM      5  C   LIG A   1      -9.487  -0.601 122.972  0.00  0.00    +0.027 C 
BRANCH   5   7
ATOM      6  C   LIG A   1      -7.834   0.887 124.291  0.00  0.00    -0.027 C 
ATOM      7  C   LIG A   1      -8.679   0.638 123.325  0.00  0.00    -0.031 C 
BRANCH   6   8
ATOM      8  C   LIG A   1      -7.493   0.143 125.562  0.00  0.00    +0.054 C 
BRANCH   8  10
ATOM      9  C   LIG A   1      -5.208  -1.047 125.474  0.00  0.00    -0.031 C 
ATOM     10  C   LIG A   1      -5.984  -0.012 125.719  0.00  0.00    -0.027 C 
BRANCH   9  11
ATOM     11  C   LIG A   1      -5.564  -2.426 124.983  0.00  0.00    +0.026 C 
BRANCH  11  13
ATOM     12  C   LIG A   1      -4.631  -4.450 123.738  0.00  0.00    +0.004 C 
ATOM     13  C   LIG A   1      -4.880  -2.949 123.725  0.00  0.00    +0.001 C 
ENDBRANCH  11  13
ENDBRANCH   9  11
ENDBRANCH   8  10
ENDBRANCH   6   8
ENDBRANCH   5   7
ENDBRANCH   4   5
ENDBRANCH   3   4
ENDBRANCH   2   3
ENDBRANCH   1   2
BRANCH   1  14
ATOM     14  C   LIG A   1      -8.669  -3.604 127.046  0.00  0.00    +0.005 C 
BRANCH  14  15
ATOM     15  C   LIG A   1      -8.280  -3.305 128.493  0.00  0.00    +0.035 C 
BRANCH  15  16
ATOM     16  C   LIG A   1      -7.325  -2.186 128.695  0.00  0.00    -0.041 A 
ATOM     17  C   LIG A   1      -5.988  -2.547 128.639  0.00  0.00    +0.049 A 
ATOM     18  C   LIG A   1      -5.025  -1.684 129.109  0.00  0.00    +0.123 A 
ATOM     19  C   LIG A   1      -5.347  -0.388 129.500  0.00  0.00    +0.032 A 
ATOM     20  C   LIG A   1      -4.259   0.542 129.938  0.00  0.00    +0.051 C 
ATOM     21  C   LIG A   1      -6.686   0.021 129.419  0.00  0.00    +0.123 A 
ATOM     22  C   LIG A   1      -7.686  -0.882 129.053  0.00  0.00    +0.049 A 
BRANCH  18  23
ATOM     23  O   LIG A   1      -3.743  -2.138 129.207  0.00  0.00    -0.506 OA
ATOM     24  H   LIG A   1      -3.409  -2.304 128.312  0.00  0.00    +0.292 HD
ENDBRANCH  18  23
BRANCH  21  25
ATOM     25  O   LIG A   1      -7.003   1.320 129.701  0.00  0.00    -0.506 OA
ATOM     26  H   LIG A   1      -7.391   1.720 128.905  0.00  0.00    +0.292 HD
ENDBRANCH  21  25
ENDBRANCH  15  16
ENDBRANCH  14  15
ENDBRANCH   1  14
TORSDOF 14
ENDMDL
MODEL 6
REMARK VINA RESULT:      -5.8      2.286      4.795
REMARK  Name = NuBBE_1684
REMARK  16 active torsions:
REMARK  status: ('A' for Active; 'I' for Inactive)
REMARK    1  A    between atoms: C_1  and  C_2
REMARK    2  A    between atoms: C_2  and  C_3
REMARK    3  A    between atoms: C_3  and  C_4
REMARK    4  A    between atoms: C_5  and  C_6
REMARK    5  A    between atoms: C_6  and  C_7
REMARK    6  A    between atoms: C_8  and  C_9
REMARK    7  A    between atoms: C_9  and  C_10
REMARK    8  A    between atoms: C_10  and  C_11
REMARK    9  A    between atoms: C_11  and  C_12
REMARK   10  A    between atoms: C_12  and  C_13
REMARK   11  A    between atoms: C_13  and  C_14
REMARK   12  A    between atoms: C_14  and  C_15
REMARK   13  A    between atoms: C_15  and  C_16
REMARK   14  A    between atoms: C_18  and  O_19
REMARK   15  A    between atoms: C_20  and  C_21
REMARK   16  A    between atoms: C_22  and  O_23
REMARK                            x       y       z     vdW  Elec       q    Type
REMARK                         _______ _______ _______ _____ _____    ______ ____
ROOT
ATOM      1  C   LIG A   1      -9.580   0.352 124.063  0.00  0.00    +0.000 C 
ENDROOT
BRANCH   1   2
ATOM      2  C   LIG A   1      -9.452  -0.454 122.715  0.00  0.00    +0.000 C 
BRANCH   2   3
ATOM      3  C   LIG A   1      -8.806  -1.872 122.603  0.00  0.00    +0.000 C 
BRANCH   3   4
ATOM      4  C   LIG A   1      -8.989  -3.053 123.594  0.00  0.00    +0.004 C 
BRANCH   4   5
ATOM      5  C   LIG A   1      -7.970  -3.217 124.718  0.00  0.00    +0.027 C 
BRANCH   5   7
ATOM      6  C   LIG A   1      -5.721  -1.941 124.762  0.00  0.00    -0.027 C 
ATOM      7  C   LIG A   1      -6.647  -2.674 124.201  0.00  0.00    -0.031 C 
BRANCH   6   8
ATOM      8  C   LIG A   1      -5.690  -1.152 126.053  0.00  0.00    +0.054 C 
BRANCH   8  10
ATOM      9  C   LIG A   1      -7.819  -0.899 127.483  0.00  0.00    -0.031 C 
ATOM     10  C   LIG A   1      -7.082  -0.650 126.421  0.00  0.00    -0.027 C 
BRANCH   9  11
ATOM     11  C   LIG A   1      -7.536  -1.783 128.670  0.00  0.00    +0.026 C 
BRANCH  11  13
ATOM     12  C   LIG A   1      -9.028  -3.764 128.062  0.00  0.00    +0.004 C 
ATOM     13  C   LIG A   1      -7.647  -3.294 128.494  0.00  0.00    +0.001 C 
ENDBRANCH  11  13
ENDBRANCH   9  11
ENDBRANCH   8  10
ENDBRANCH   6   8
ENDBRANCH   5   7
ENDBRANCH   4   5
ENDBRANCH   3   4
ENDBRANCH   2   3
ENDBRANCH   1   2
BRANCH   1  14
ATOM     14  C   LIG A   1      -8.857   1.690 124.147  0.00  0.00    +0.005 C 
BRANCH  14  15
ATOM     15  C   LIG A   1      -7.432   2.113 123.793  0.00  0.00    +0.035 C 
BRANCH  15  16
ATOM     16  C   LIG A   1      -7.284   2.961 122.584  0.00  0.00    -0.041 A 
ATOM     17  C   LIG A   1      -8.462   3.201 121.894  0.00  0.00    +0.049 A 
ATOM     18  C   LIG A   1      -8.418   3.701 120.614  0.00  0.00    +0.123 A 
ATOM     19  C   LIG A   1      -7.218   4.119 120.044  0.00  0.00    +0.032 A 
ATOM     20  C   LIG A   1      -7.224   4.723 118.674  0.00  0.00    +0.051 C 
ATOM     21  C   LIG A   1      -6.044   4.007 120.802  0.00  0.00    +0.123 A 
ATOM     22  C   LIG A   1      -6.061   3.396 122.057  0.00  0.00    +0.049 A 
BRANCH  18  23
ATOM     23  O   LIG A   1      -9.578   3.756 119.900  0.00  0.00    -0.506 OA
ATOM     24  H   LIG A   1     -10.147   4.435 120.294  0.00  0.00    +0.292 HD
ENDBRANCH  18  23
BRANCH  21  25
ATOM     25  O   LIG A   1      -4.877   4.506 120.297  0.00  0.00    -0.506 OA
ATOM     26  H   LIG A   1      -4.753   4.148 119.401  0.00  0.00    +0.292 HD
ENDBRANCH  21  25
ENDBRANCH  15  16
ENDBRANCH  14  15
ENDBRANCH   1  14
TORSDOF 14
ENDMDL
MODEL 7
REMARK VINA RESULT:      -5.6      2.962      6.575
REMARK  Name = NuBBE_1684
REMARK  16 active torsions:
REMARK  status: ('A' for Active; 'I' for Inactive)
REMARK    1  A    between atoms: C_1  and  C_2
REMARK    2  A    between atoms: C_2  and  C_3
REMARK    3  A    between atoms: C_3  and  C_4
REMARK    4  A    between atoms: C_5  and  C_6
REMARK    5  A    between atoms: C_6  and  C_7
REMARK    6  A    between atoms: C_8  and  C_9
REMARK    7  A    between atoms: C_9  and  C_10
REMARK    8  A    between atoms: C_10  and  C_11
REMARK    9  A    between atoms: C_11  and  C_12
REMARK   10  A    between atoms: C_12  and  C_13
REMARK   11  A    between atoms: C_13  and  C_14
REMARK   12  A    between atoms: C_14  and  C_15
REMARK   13  A    between atoms: C_15  and  C_16
REMARK   14  A    between atoms: C_18  and  O_19
REMARK   15  A    between atoms: C_20  and  C_21
REMARK   16  A    between atoms: C_22  and  O_23
REMARK                            x       y       z     vdW  Elec       q    Type
REMARK                         _______ _______ _______ _____ _____    ______ ____
ROOT
ATOM      1  C   LIG A   1      -9.655  -3.035 125.811  0.00  0.00    +0.000 C 
ENDROOT
BRANCH   1   2
ATOM      2  C   LIG A   1      -9.203  -3.270 124.320  0.00  0.00    +0.000 C 
BRANCH   2   3
ATOM      3  C   LIG A   1      -7.978  -2.563 123.655  0.00  0.00    +0.000 C 
BRANCH   3   4
ATOM      4  C   LIG A   1      -6.479  -2.825 123.966  0.00  0.00    +0.004 C 
BRANCH   4   5
ATOM      5  C   LIG A   1      -5.624  -1.654 124.442  0.00  0.00    +0.027 C 
BRANCH   5   7
ATOM      6  C   LIG A   1      -5.956  -1.021 126.927  0.00  0.00    -0.027 C 
ATOM      7  C   LIG A   1      -5.512  -1.772 125.954  0.00  0.00    -0.031 C 
BRANCH   6   8
ATOM      8  C   LIG A   1      -6.553   0.369 126.949  0.00  0.00    +0.054 C 
BRANCH   8  10
ATOM      9  C   LIG A   1      -8.986   0.533 126.115  0.00  0.00    -0.031 C 
ATOM     10  C   LIG A   1      -8.074   0.312 127.038  0.00  0.00    -0.027 C 
BRANCH   9  11
ATOM     11  C   LIG A   1      -8.822   0.941 124.673  0.00  0.00    +0.026 C 
BRANCH  11  13
ATOM     12  C   LIG A   1     -10.152   0.521 122.535  0.00  0.00    +0.004 C 
ATOM     13  C   LIG A   1     -10.072   1.262 123.862  0.00  0.00    +0.001 C 
ENDBRANCH  11  13
ENDBRANCH   9  11
ENDBRANCH   8  10
ENDBRANCH   6   8
ENDBRANCH   5   7
ENDBRANCH   4   5
ENDBRANCH   3   4
ENDBRANCH   2   3
ENDBRANCH   1   2
BRANCH   1  14
ATOM     14  C   LIG A   1      -8.641  -3.348 126.903  0.00  0.00    +0.005 C 
BRANCH  14  15
ATOM     15  C   LIG A   1      -8.799  -3.748 128.370  0.00  0.00    +0.035 C 
BRANCH  15  16
ATOM     16  C   LIG A   1      -7.835  -3.139 129.320  0.00  0.00    -0.041 A 
ATOM     17  C   LIG A   1      -6.781  -3.962 129.687  0.00  0.00    +0.049 A 
ATOM     18  C   LIG A   1      -6.006  -3.639 130.777  0.00  0.00    +0.123 A 
ATOM     19  C   LIG A   1      -6.157  -2.422 131.434  0.00  0.00    +0.032 A 
ATOM     20  C   LIG A   1      -5.246  -2.080 132.571  0.00  0.00    +0.051 C 
ATOM     21  C   LIG A   1      -7.133  -1.528 130.968  0.00  0.00    +0.123 A 
ATOM     22  C   LIG A   1      -7.999  -1.893 129.937  0.00  0.00    +0.049 A 
BRANCH  18  23
ATOM     23  O   LIG A   1      -5.097  -4.555 131.218  0.00  0.00    -0.506 OA
ATOM     24  H   LIG A   1      -4.785  -4.278 132.093  0.00  0.00    +0.292 HD
ENDBRANCH  18  23
BRANCH  21  25
ATOM     25  O   LIG A   1      -7.224  -0.289 131.537  0.00  0.00    -0.506 OA
ATOM     26  H   LIG A   1      -7.293   0.370 130.825  0.00  0.00    +0.292 HD
ENDBRANCH  21  25
ENDBRANCH  15  16
ENDBRANCH  14  15
ENDBRANCH   1  14
TORSDOF 14
ENDMDL
MODEL 8
REMARK VINA RESULT:      -5.6      1.631      2.498
REMARK  Name = NuBBE_1684
REMARK  16 active torsions:
REMARK  status: ('A' for Active; 'I' for Inactive)
REMARK    1  A    between atoms: C_1  and  C_2
REMARK    2  A    between atoms: C_2  and  C_3
REMARK    3  A    between atoms: C_3  and  C_4
REMARK    4  A    between atoms: C_5  and  C_6
REMARK    5  A    between atoms: C_6  and  C_7
REMARK    6  A    between atoms: C_8  and  C_9
REMARK    7  A    between atoms: C_9  and  C_10
REMARK    8  A    between atoms: C_10  and  C_11
REMARK    9  A    between atoms: C_11  and  C_12
REMARK   10  A    between atoms: C_12  and  C_13
REMARK   11  A    between atoms: C_13  and  C_14
REMARK   12  A    between atoms: C_14  and  C_15
REMARK   13  A    between atoms: C_15  and  C_16
REMARK   14  A    between atoms: C_18  and  O_19
REMARK   15  A    between atoms: C_20  and  C_21
REMARK   16  A    between atoms: C_22  and  O_23
REMARK                            x       y       z     vdW  Elec       q    Type
REMARK                         _______ _______ _______ _____ _____    ______ ____
ROOT
ATOM      1  C   LIG A   1      -5.351  -1.435 129.592  0.00  0.00    +0.000 C 
ENDROOT
BRANCH   1   2
ATOM      2  C   LIG A   1      -5.812  -2.928 129.390  0.00  0.00    +0.000 C 
BRANCH   2   3
ATOM      3  C   LIG A   1      -7.262  -3.441 129.669  0.00  0.00    +0.000 C 
BRANCH   3   4
ATOM      4  C   LIG A   1      -8.495  -3.281 128.739  0.00  0.00    +0.004 C 
BRANCH   4   5
ATOM      5  C   LIG A   1      -8.305  -3.510 127.242  0.00  0.00    +0.027 C 
BRANCH   5   7
ATOM      6  C   LIG A   1      -9.316  -2.115 125.314  0.00  0.00    -0.027 C 
ATOM      7  C   LIG A   1      -8.871  -2.292 126.530  0.00  0.00    -0.031 C 
BRANCH   6   8
ATOM      8  C   LIG A   1      -9.238  -2.969 124.068  0.00  0.00    +0.054 C 
BRANCH   8  10
ATOM      9  C   LIG A   1      -6.948  -2.413 123.024  0.00  0.00    -0.031 C 
ATOM     10  C   LIG A   1      -8.264  -2.375 123.057  0.00  0.00    -0.027 C 
BRANCH   9  11
ATOM     11  C   LIG A   1      -5.975  -3.038 123.991  0.00  0.00    +0.026 C 
BRANCH  11  13
ATOM     12  C   LIG A   1      -4.112  -4.715 123.508  0.00  0.00    +0.004 C 
ATOM     13  C   LIG A   1      -4.536  -3.254 123.537  0.00  0.00    +0.001 C 
ENDBRANCH  11  13
ENDBRANCH   9  11
ENDBRANCH   8  10
ENDBRANCH   6   8
ENDBRANCH   5   7
ENDBRANCH   4   5
ENDBRANCH   3   4
ENDBRANCH   2   3
ENDBRANCH   1   2
BRANCH   1  14
ATOM     14  C   LIG A   1      -5.487  -0.497 128.400  0.00  0.00    +0.005 C 
BRANCH  14  15
ATOM     15  C   LIG A   1      -5.442  -0.736 126.892  0.00  0.00    +0.035 C 
BRANCH  15  16
ATOM     16  C   LIG A   1      -5.588   0.467 126.035  0.00  0.00    -0.041 A 
ATOM     17  C   LIG A   1      -4.718   1.504 126.335  0.00  0.00    +0.049 A 
ATOM     18  C   LIG A   1      -4.952   2.763 125.834  0.00  0.00    +0.123 A 
ATOM     19  C   LIG A   1      -5.960   2.992 124.902  0.00  0.00    +0.032 A 
ATOM     20  C   LIG A   1      -6.136   4.363 124.328  0.00  0.00    +0.051 C 
ATOM     21  C   LIG A   1      -6.749   1.908 124.491  0.00  0.00    +0.123 A 
ATOM     22  C   LIG A   1      -6.595   0.651 125.079  0.00  0.00    +0.049 A 
BRANCH  18  23
ATOM     23  O   LIG A   1      -4.186   3.794 126.291  0.00  0.00    -0.506 OA
ATOM     24  H   LIG A   1      -3.374   3.829 125.762  0.00  0.00    +0.292 HD
ENDBRANCH  18  23
BRANCH  21  25
ATOM     25  O   LIG A   1      -7.674   2.096 123.503  0.00  0.00    -0.506 OA
ATOM     26  H   LIG A   1      -8.554   2.150 123.913  0.00  0.00    +0.292 HD
ENDBRANCH  21  25
ENDBRANCH  15  16
ENDBRANCH  14  15
ENDBRANCH   1  14
TORSDOF 14
ENDMDL
MODEL 9
REMARK VINA RESULT:      -5.6      2.316      4.417
REMARK  Name = NuBBE_1684
REMARK  16 active torsions:
REMARK  status: ('A' for Active; 'I' for Inactive)
REMARK    1  A    between atoms: C_1  and  C_2
REMARK    2  A    between atoms: C_2  and  C_3
REMARK    3  A    between atoms: C_3  and  C_4
REMARK    4  A    between atoms: C_5  and  C_6
REMARK    5  A    between atoms: C_6  and  C_7
REMARK    6  A    between atoms: C_8  and  C_9
REMARK    7  A    between atoms: C_9  and  C_10
REMARK    8  A    between atoms: C_10  and  C_11
REMARK    9  A    between atoms: C_11  and  C_12
REMARK   10  A    between atoms: C_12  and  C_13
REMARK   11  A    between atoms: C_13  and  C_14
REMARK   12  A    between atoms: C_14  and  C_15
REMARK   13  A    between atoms: C_15  and  C_16
REMARK   14  A    between atoms: C_18  and  O_19
REMARK   15  A    between atoms: C_20  and  C_21
REMARK   16  A    between atoms: C_22  and  O_23
REMARK                            x       y       z     vdW  Elec       q    Type
REMARK                         _______ _______ _______ _____ _____    ______ ____
ROOT
ATOM      1  C   LIG A   1      -9.031  -3.793 127.708  0.00  0.00    +0.000 C 
ENDROOT
BRANCH   1   2
ATOM      2  C   LIG A   1      -9.352  -3.110 126.324  0.00  0.00    +0.000 C 
BRANCH   2   3
ATOM      3  C   LIG A   1      -8.800  -3.614 124.952  0.00  0.00    +0.000 C 
BRANCH   3   4
ATOM      4  C   LIG A   1      -9.376  -3.287 123.547  0.00  0.00    +0.004 C 
BRANCH   4   5
ATOM      5  C   LIG A   1      -8.633  -2.275 122.679  0.00  0.00    +0.027 C 
BRANCH   5   7
ATOM      6  C   LIG A   1      -8.952   0.222 123.269  0.00  0.00    -0.027 C 
ATOM      7  C   LIG A   1      -9.352  -0.944 122.835  0.00  0.00    -0.031 C 
BRANCH   6   8
ATOM      8  C   LIG A   1      -7.703   0.663 123.999  0.00  0.00    +0.054 C 
BRANCH   8  10
ATOM      9  C   LIG A   1      -6.843  -0.507 126.128  0.00  0.00    -0.031 C 
ATOM     10  C   LIG A   1      -7.724   0.199 125.451  0.00  0.00    -0.027 C 
BRANCH   9  11
ATOM     11  C   LIG A   1      -5.536  -1.108 125.680  0.00  0.00    +0.026 C 
BRANCH  11  13
ATOM     12  C   LIG A   1      -5.166  -2.763 123.772  0.00  0.00    +0.004 C 
ATOM     13  C   LIG A   1      -5.520  -2.567 125.239  0.00  0.00    +0.001 C 
ENDBRANCH  11  13
ENDBRANCH   9  11
ENDBRANCH   8  10
ENDBRANCH   6   8
ENDBRANCH   5   7
ENDBRANCH   4   5
ENDBRANCH   3   4
ENDBRANCH   2   3
ENDBRANCH   1   2
BRANCH   1  14
ATOM     14  C   LIG A   1      -7.840  -3.255 128.490  0.00  0.00    +0.005 C 
BRANCH  14  15
ATOM     15  C   LIG A   1      -7.734  -2.509 129.820  0.00  0.00    +0.035 C 
BRANCH  15  16
ATOM     16  C   LIG A   1      -7.100  -1.168 129.768  0.00  0.00    -0.041 A 
ATOM     17  C   LIG A   1      -7.991  -0.106 129.707  0.00  0.00    +0.049 A 
ATOM     18  C   LIG A   1      -7.543   1.144 129.349  0.00  0.00    +0.123 A 
ATOM     19  C   LIG A   1      -6.185   1.406 129.192  0.00  0.00    +0.032 A 
ATOM     20  C   LIG A   1      -5.736   2.798 128.870  0.00  0.00    +0.051 C 
ATOM     21  C   LIG A   1      -5.274   0.360 129.395  0.00  0.00    +0.123 A 
ATOM     22  C   LIG A   1      -5.725  -0.937 129.646  0.00  0.00    +0.049 A 
BRANCH  18  23
ATOM     23  O   LIG A   1      -8.467   2.121 129.124  0.00  0.00    -0.506 OA
ATOM     24  H   LIG A   1      -8.938   1.913 128.302  0.00  0.00    +0.292 HD
ENDBRANCH  18  23
BRANCH  21  25
ATOM     25  O   LIG A   1      -3.935   0.625 129.346  0.00  0.00    -0.506 OA
ATOM     26  H   LIG A   1      -3.808   1.473 128.888  0.00  0.00    +0.292 HD
ENDBRANCH  21  25
ENDBRANCH  15  16
ENDBRANCH  14  15
ENDBRANCH   1  14
TORSDOF 14
ENDMDL
