MODEL 1
REMARK VINA RESULT:      -8.2      0.000      0.000
REMARK  Name = NuBBE_1511
REMARK  13 active torsions:
REMARK  status: ('A' for Active; 'I' for Inactive)
REMARK    1  A    between atoms: C_1  and  C_2
REMARK    2  A    between atoms: C_9  and  C_12
REMARK    3  A    between atoms: C_13  and  C_18
REMARK    4  A    between atoms: C_18  and  C_19
REMARK    5  A    between atoms: C_24  and  O_26
REMARK    6  A    between atoms: O_26  and  C_27
REMARK    7  A    between atoms: C_27  and  C_29
REMARK    8  A    between atoms: C_30  and  O_39
REMARK    9  A    between atoms: C_32  and  O_35
REMARK   10  A    between atoms: O_35  and  C_36
REMARK   11  A    between atoms: C_36  and  C_38
REMARK   12  A    between atoms: O_39  and  C_40
REMARK   13  A    between atoms: C_40  and  C_42
REMARK                            x       y       z     vdW  Elec       q    Type
REMARK                         _______ _______ _______ _____ _____    ______ ____
ROOT
ATOM      1  C   LIG A   1      -5.346  -0.750 126.028  0.00  0.00    +0.012 C 
ATOM      2  C   LIG A   1      -6.584  -0.889 126.979  0.00  0.00    -0.019 C 
ATOM      3  C   LIG A   1      -6.306  -2.106 127.945  0.00  0.00    -0.001 C 
ATOM      4  C   LIG A   1      -5.008  -1.906 128.770  0.00  0.00    -0.003 C 
ATOM      5  C   LIG A   1      -4.698  -3.105 129.715  0.00  0.00    +0.006 C 
ATOM      6  C   LIG A   1      -5.896  -3.725 130.481  0.00  0.00    -0.019 C 
ATOM      7  C   LIG A   1      -7.191  -3.752 129.646  0.00  0.00    +0.008 C 
ATOM      8  C   LIG A   1      -7.487  -2.478 128.860  0.00  0.00    +0.005 C 
ATOM      9  C   LIG A   1      -5.554  -5.202 130.825  0.00  0.00    +0.012 C 
ATOM     10  C   LIG A   1      -6.002  -2.848 131.772  0.00  0.00    +0.061 C 
ATOM     11  C   LIG A   1      -4.537  -2.492 132.007  0.00  0.00    +0.137 C 
ATOM     12  O   LIG A   1      -4.093  -1.982 133.028  0.00  0.00    -0.297 OA
ATOM     13  C   LIG A   1      -3.667  -2.801 130.811  0.00  0.00    +0.079 C 
ATOM     14  C   LIG A   1      -4.862  -0.488 129.351  0.00  0.00    +0.004 C 
ATOM     15  C   LIG A   1      -6.064   0.413 129.177  0.00  0.00    +0.008 C 
ATOM     16  C   LIG A   1      -6.690   0.458 127.774  0.00  0.00    +0.040 C 
ATOM     17  C   LIG A   1      -8.113   1.048 127.861  0.00  0.00    +0.224 C 
ATOM     18  C   LIG A   1      -8.735   1.126 126.455  0.00  0.00    +0.257 C 
ATOM     19  C   LIG A   1      -9.028  -0.326 126.050  0.00  0.00    +0.221 C 
ATOM     20  C   LIG A   1      -7.773  -1.208 126.004  0.00  0.00    +0.055 C 
ENDROOT
BRANCH  10  21
ATOM     21  C   LIG A   1      -6.680  -3.535 132.965  0.00  0.00    +0.008 C 
ATOM     22  C   LIG A   1      -7.900  -2.801 133.508  0.00  0.00    +0.004 C 
ENDBRANCH  10  21
BRANCH  17  23
ATOM     23  O   LIG A   1      -8.069   2.351 128.487  0.00  0.00    -0.457 OA
BRANCH  23  24
ATOM     24  C   LIG A   1      -9.002   2.611 129.466  0.00  0.00    +0.304 C 
ATOM     25  O   LIG A   1      -9.881   3.455 129.404  0.00  0.00    -0.251 OA
ATOM     26  C   LIG A   1      -8.875   1.624 130.590  0.00  0.00    +0.136 C 
ENDBRANCH  23  24
ENDBRANCH  17  23
BRANCH  19  27
ATOM     27  O   LIG A   1      -9.601  -0.377 124.719  0.00  0.00    -0.458 OA
BRANCH  27  28
ATOM     28  C   LIG A   1      -9.221  -1.408 123.924  0.00  0.00    +0.304 C 
ATOM     29  O   LIG A   1      -9.719  -2.525 123.933  0.00  0.00    -0.251 OA
ATOM     30  C   LIG A   1      -8.129  -0.970 122.996  0.00  0.00    +0.136 C 
ENDBRANCH  27  28
ENDBRANCH  19  27
BRANCH  18  31
ATOM     31  O   LIG A   1      -7.851   1.685 125.438  0.00  0.00    -0.454 OA
BRANCH  31  32
ATOM     32  C   LIG A   1      -8.267   2.825 124.823  0.00  0.00    +0.304 C 
ATOM     33  O   LIG A   1      -8.861   3.742 125.373  0.00  0.00    -0.251 OA
ATOM     34  C   LIG A   1      -8.049   2.753 123.338  0.00  0.00    +0.136 C 
ENDBRANCH  31  32
ENDBRANCH  18  31
TORSDOF 7
ENDMDL
MODEL 2
REMARK VINA RESULT:      -8.0      3.137      6.593
REMARK  Name = NuBBE_1511
REMARK  13 active torsions:
REMARK  status: ('A' for Active; 'I' for Inactive)
REMARK    1  A    between atoms: C_1  and  C_2
REMARK    2  A    between atoms: C_9  and  C_12
REMARK    3  A    between atoms: C_13  and  C_18
REMARK    4  A    between atoms: C_18  and  C_19
REMARK    5  A    between atoms: C_24  and  O_26
REMARK    6  A    between atoms: O_26  and  C_27
REMARK    7  A    between atoms: C_27  and  C_29
REMARK    8  A    between atoms: C_30  and  O_39
REMARK    9  A    between atoms: C_32  and  O_35
REMARK   10  A    between atoms: O_35  and  C_36
REMARK   11  A    between atoms: C_36  and  C_38
REMARK   12  A    between atoms: O_39  and  C_40
REMARK   13  A    between atoms: C_40  and  C_42
REMARK                            x       y       z     vdW  Elec       q    Type
REMARK                         _______ _______ _______ _____ _____    ______ ____
ROOT
ATOM      1  C   LIG A   1      -4.718   0.398 129.636  0.00  0.00    +0.012 C 
ATOM      2  C   LIG A   1      -5.366   1.256 128.494  0.00  0.00    -0.019 C 
ATOM      3  C   LIG A   1      -5.549   0.315 127.241  0.00  0.00    -0.001 C 
ATOM      4  C   LIG A   1      -6.436  -0.915 127.563  0.00  0.00    -0.003 C 
ATOM      5  C   LIG A   1      -6.614  -1.873 126.348  0.00  0.00    +0.006 C 
ATOM      6  C   LIG A   1      -6.851  -1.214 124.963  0.00  0.00    -0.019 C 
ATOM      7  C   LIG A   1      -6.048   0.087 124.773  0.00  0.00    +0.008 C 
ATOM      8  C   LIG A   1      -6.045   1.032 125.971  0.00  0.00    +0.005 C 
ATOM      9  C   LIG A   1      -6.375  -2.199 123.858  0.00  0.00    +0.012 C 
ATOM     10  C   LIG A   1      -8.400  -1.007 124.914  0.00  0.00    +0.061 C 
ATOM     11  C   LIG A   1      -8.884  -2.206 125.724  0.00  0.00    +0.137 C 
ATOM     12  O   LIG A   1     -10.046  -2.587 125.789  0.00  0.00    -0.297 OA
ATOM     13  C   LIG A   1      -7.767  -2.876 126.491  0.00  0.00    +0.079 C 
ATOM     14  C   LIG A   1      -7.693  -0.568 128.383  0.00  0.00    +0.004 C 
ATOM     15  C   LIG A   1      -7.948   0.908 128.588  0.00  0.00    +0.008 C 
ATOM     16  C   LIG A   1      -6.748   1.756 129.040  0.00  0.00    +0.040 C 
ATOM     17  C   LIG A   1      -7.043   3.248 128.784  0.00  0.00    +0.224 C 
ATOM     18  C   LIG A   1      -5.858   4.106 129.264  0.00  0.00    +0.257 C 
ATOM     19  C   LIG A   1      -4.723   3.842 128.265  0.00  0.00    +0.221 C 
ATOM     20  C   LIG A   1      -4.295   2.368 128.209  0.00  0.00    +0.055 C 
ENDROOT
BRANCH  10  21
ATOM     21  C   LIG A   1      -8.995  -0.922 123.502  0.00  0.00    +0.008 C 
ATOM     22  C   LIG A   1      -9.518   0.457 123.117  0.00  0.00    +0.004 C 
ENDBRANCH  10  21
BRANCH  17  23
ATOM     23  O   LIG A   1      -8.269   3.629 129.450  0.00  0.00    -0.457 OA
BRANCH  23  24
ATOM     24  C   LIG A   1      -8.755   4.893 129.201  0.00  0.00    +0.304 C 
ATOM     25  O   LIG A   1      -8.939   5.378 128.096  0.00  0.00    -0.251 OA
ATOM     26  C   LIG A   1      -9.151   5.567 130.481  0.00  0.00    +0.136 C 
ENDBRANCH  23  24
ENDBRANCH  17  23
BRANCH  19  27
ATOM     27  O   LIG A   1      -3.536   4.588 128.634  0.00  0.00    -0.458 OA
BRANCH  27  28
ATOM     28  C   LIG A   1      -3.429   5.852 128.152  0.00  0.00    +0.304 C 
ATOM     29  O   LIG A   1      -4.255   6.408 127.443  0.00  0.00    -0.251 OA
ATOM     30  C   LIG A   1      -2.169   6.490 128.651  0.00  0.00    +0.136 C 
ENDBRANCH  27  28
ENDBRANCH  19  27
BRANCH  18  31
ATOM     31  O   LIG A   1      -5.357   3.751 130.587  0.00  0.00    -0.454 OA
BRANCH  31  32
ATOM     32  C   LIG A   1      -5.708   4.567 131.617  0.00  0.00    +0.304 C 
ATOM     33  O   LIG A   1      -6.220   4.196 132.664  0.00  0.00    -0.251 OA
ATOM     34  C   LIG A   1      -5.537   6.014 131.248  0.00  0.00    +0.136 C 
ENDBRANCH  31  32
ENDBRANCH  18  31
TORSDOF 7
ENDMDL
MODEL 3
REMARK VINA RESULT:      -7.9      3.382      6.235
REMARK  Name = NuBBE_1511
REMARK  13 active torsions:
REMARK  status: ('A' for Active; 'I' for Inactive)
REMARK    1  A    between atoms: C_1  and  C_2
REMARK    2  A    between atoms: C_9  and  C_12
REMARK    3  A    between atoms: C_13  and  C_18
REMARK    4  A    between atoms: C_18  and  C_19
REMARK    5  A    between atoms: C_24  and  O_26
REMARK    6  A    between atoms: O_26  and  C_27
REMARK    7  A    between atoms: C_27  and  C_29
REMARK    8  A    between atoms: C_30  and  O_39
REMARK    9  A    between atoms: C_32  and  O_35
REMARK   10  A    between atoms: O_35  and  C_36
REMARK   11  A    between atoms: C_36  and  C_38
REMARK   12  A    between atoms: O_39  and  C_40
REMARK   13  A    between atoms: C_40  and  C_42
REMARK                            x       y       z     vdW  Elec       q    Type
REMARK                         _______ _______ _______ _____ _____    ______ ____
ROOT
ATOM      1  C   LIG A   1      -6.008   3.618 125.188  0.00  0.00    +0.012 C 
ATOM      2  C   LIG A   1      -6.787   2.764 126.247  0.00  0.00    -0.019 C 
ATOM      3  C   LIG A   1      -7.521   1.602 125.472  0.00  0.00    -0.001 C 
ATOM      4  C   LIG A   1      -6.526   0.712 124.683  0.00  0.00    -0.003 C 
ATOM      5  C   LIG A   1      -7.228  -0.429 123.889  0.00  0.00    +0.006 C 
ATOM      6  C   LIG A   1      -8.382  -1.178 124.606  0.00  0.00    -0.019 C 
ATOM      7  C   LIG A   1      -9.238  -0.252 125.491  0.00  0.00    +0.008 C 
ATOM      8  C   LIG A   1      -8.455   0.743 126.343  0.00  0.00    +0.005 C 
ATOM      9  C   LIG A   1      -9.332  -1.773 123.529  0.00  0.00    +0.012 C 
ATOM     10  C   LIG A   1      -7.648  -2.305 125.405  0.00  0.00    +0.061 C 
ATOM     11  C   LIG A   1      -6.472  -2.605 124.481  0.00  0.00    +0.137 C 
ATOM     12  O   LIG A   1      -5.724  -3.568 124.585  0.00  0.00    -0.297 OA
ATOM     13  C   LIG A   1      -6.288  -1.547 123.416  0.00  0.00    +0.079 C 
ATOM     14  C   LIG A   1      -5.262   0.346 125.483  0.00  0.00    +0.004 C 
ATOM     15  C   LIG A   1      -5.272   0.757 126.938  0.00  0.00    +0.008 C 
ATOM     16  C   LIG A   1      -5.715   2.198 127.241  0.00  0.00    +0.040 C 
ATOM     17  C   LIG A   1      -6.086   2.322 128.733  0.00  0.00    +0.224 C 
ATOM     18  C   LIG A   1      -6.499   3.770 129.051  0.00  0.00    +0.257 C 
ATOM     19  C   LIG A   1      -7.864   3.971 128.377  0.00  0.00    +0.221 C 
ATOM     20  C   LIG A   1      -7.823   3.775 126.855  0.00  0.00    +0.055 C 
ENDROOT
BRANCH  10  21
ATOM     21  C   LIG A   1      -8.513  -3.529 125.737  0.00  0.00    +0.008 C 
ATOM     22  C   LIG A   1      -8.859  -3.678 127.213  0.00  0.00    +0.004 C 
ENDBRANCH  10  21
BRANCH  17  23
ATOM     23  O   LIG A   1      -4.972   1.903 129.555  0.00  0.00    -0.457 OA
BRANCH  23  24
ATOM     24  C   LIG A   1      -5.234   1.631 130.879  0.00  0.00    +0.304 C 
ATOM     25  O   LIG A   1      -6.214   1.040 131.302  0.00  0.00    -0.251 OA
ATOM     26  C   LIG A   1      -4.081   2.052 131.741  0.00  0.00    +0.136 C 
ENDBRANCH  23  24
ENDBRANCH  17  23
BRANCH  19  27
ATOM     27  O   LIG A   1      -8.346   5.321 128.593  0.00  0.00    -0.458 OA
BRANCH  27  28
ATOM     28  C   LIG A   1      -9.318   5.486 129.525  0.00  0.00    +0.304 C 
ATOM     29  O   LIG A   1     -10.303   4.773 129.650  0.00  0.00    -0.251 OA
ATOM     30  C   LIG A   1      -8.988   6.645 130.416  0.00  0.00    +0.136 C 
ENDBRANCH  27  28
ENDBRANCH  19  27
BRANCH  18  31
ATOM     31  O   LIG A   1      -5.601   4.784 128.509  0.00  0.00    -0.454 OA
BRANCH  31  32
ATOM     32  C   LIG A   1      -4.892   5.520 129.407  0.00  0.00    +0.304 C 
ATOM     33  O   LIG A   1      -5.301   6.529 129.966  0.00  0.00    -0.251 OA
ATOM     34  C   LIG A   1      -3.475   5.034 129.514  0.00  0.00    +0.136 C 
ENDBRANCH  31  32
ENDBRANCH  18  31
TORSDOF 7
ENDMDL
MODEL 4
REMARK VINA RESULT:      -7.9      2.174      4.714
REMARK  Name = NuBBE_1511
REMARK  13 active torsions:
REMARK  status: ('A' for Active; 'I' for Inactive)
REMARK    1  A    between atoms: C_1  and  C_2
REMARK    2  A    between atoms: C_9  and  C_12
REMARK    3  A    between atoms: C_13  and  C_18
REMARK    4  A    between atoms: C_18  and  C_19
REMARK    5  A    between atoms: C_24  and  O_26
REMARK    6  A    between atoms: O_26  and  C_27
REMARK    7  A    between atoms: C_27  and  C_29
REMARK    8  A    between atoms: C_30  and  O_39
REMARK    9  A    between atoms: C_32  and  O_35
REMARK   10  A    between atoms: O_35  and  C_36
REMARK   11  A    between atoms: C_36  and  C_38
REMARK   12  A    between atoms: O_39  and  C_40
REMARK   13  A    between atoms: C_40  and  C_42
REMARK                            x       y       z     vdW  Elec       q    Type
REMARK                         _______ _______ _______ _____ _____    ______ ____
ROOT
ATOM      1  C   LIG A   1      -9.043   1.105 127.657  0.00  0.00    +0.012 C 
ATOM      2  C   LIG A   1      -7.618   0.674 127.165  0.00  0.00    -0.019 C 
ATOM      3  C   LIG A   1      -6.791   0.236 128.436  0.00  0.00    -0.001 C 
ATOM      4  C   LIG A   1      -7.475  -0.928 129.199  0.00  0.00    -0.003 C 
ATOM      5  C   LIG A   1      -6.691  -1.365 130.472  0.00  0.00    +0.006 C 
ATOM      6  C   LIG A   1      -5.147  -1.452 130.350  0.00  0.00    -0.019 C 
ATOM      7  C   LIG A   1      -4.553  -0.350 129.453  0.00  0.00    +0.008 C 
ATOM      8  C   LIG A   1      -5.311  -0.086 128.156  0.00  0.00    +0.005 C 
ATOM      9  C   LIG A   1      -4.526  -1.262 131.763  0.00  0.00    +0.012 C 
ATOM     10  C   LIG A   1      -4.901  -2.900 129.809  0.00  0.00    +0.061 C 
ATOM     11  C   LIG A   1      -6.056  -3.657 130.458  0.00  0.00    +0.137 C 
ATOM     12  O   LIG A   1      -6.166  -4.875 130.493  0.00  0.00    -0.297 OA
ATOM     13  C   LIG A   1      -7.103  -2.732 131.036  0.00  0.00    +0.079 C 
ATOM     14  C   LIG A   1      -8.005  -2.040 128.276  0.00  0.00    +0.004 C 
ATOM     15  C   LIG A   1      -7.629  -1.909 126.818  0.00  0.00    +0.008 C 
ATOM     16  C   LIG A   1      -7.828  -0.525 126.179  0.00  0.00    +0.040 C 
ATOM     17  C   LIG A   1      -7.015  -0.437 124.870  0.00  0.00    +0.224 C 
ATOM     18  C   LIG A   1      -7.236   0.935 124.208  0.00  0.00    +0.257 C 
ATOM     19  C   LIG A   1      -6.499   1.948 125.096  0.00  0.00    +0.221 C 
ATOM     20  C   LIG A   1      -7.026   1.987 126.537  0.00  0.00    +0.055 C 
ENDROOT
BRANCH  10  21
ATOM     21  C   LIG A   1      -3.516  -3.480 130.124  0.00  0.00    +0.008 C 
ATOM     22  C   LIG A   1      -2.738  -3.957 128.904  0.00  0.00    +0.004 C 
ENDBRANCH  10  21
BRANCH  17  23
ATOM     23  O   LIG A   1      -7.393  -1.514 123.982  0.00  0.00    -0.457 OA
BRANCH  23  24
ATOM     24  C   LIG A   1      -6.391  -2.104 123.246  0.00  0.00    +0.304 C 
ATOM     25  O   LIG A   1      -6.128  -1.861 122.079  0.00  0.00    -0.251 OA
ATOM     26  C   LIG A   1      -5.567  -3.013 124.110  0.00  0.00    +0.136 C 
ENDBRANCH  23  24
ENDBRANCH  17  23
BRANCH  19  27
ATOM     27  O   LIG A   1      -6.658   3.291 124.576  0.00  0.00    -0.458 OA
BRANCH  27  28
ATOM     28  C   LIG A   1      -5.527   3.955 124.229  0.00  0.00    +0.304 C 
ATOM     29  O   LIG A   1      -4.616   4.242 124.993  0.00  0.00    -0.251 OA
ATOM     30  C   LIG A   1      -5.530   4.250 122.760  0.00  0.00    +0.136 C 
ENDBRANCH  27  28
ENDBRANCH  19  27
BRANCH  18  31
ATOM     31  O   LIG A   1      -8.632   1.354 124.146  0.00  0.00    -0.454 OA
BRANCH  31  32
ATOM     32  C   LIG A   1      -9.142   1.607 122.911  0.00  0.00    +0.304 C 
ATOM     33  O   LIG A   1      -8.943   2.627 122.265  0.00  0.00    -0.251 OA
ATOM     34  C   LIG A   1     -10.120   0.545 122.497  0.00  0.00    +0.136 C 
ENDBRANCH  31  32
ENDBRANCH  18  31
TORSDOF 7
ENDMDL
MODEL 5
REMARK VINA RESULT:      -7.8      3.146      6.094
REMARK  Name = NuBBE_1511
REMARK  13 active torsions:
REMARK  status: ('A' for Active; 'I' for Inactive)
REMARK    1  A    between atoms: C_1  and  C_2
REMARK    2  A    between atoms: C_9  and  C_12
REMARK    3  A    between atoms: C_13  and  C_18
REMARK    4  A    between atoms: C_18  and  C_19
REMARK    5  A    between atoms: C_24  and  O_26
REMARK    6  A    between atoms: O_26  and  C_27
REMARK    7  A    between atoms: C_27  and  C_29
REMARK    8  A    between atoms: C_30  and  O_39
REMARK    9  A    between atoms: C_32  and  O_35
REMARK   10  A    between atoms: O_35  and  C_36
REMARK   11  A    between atoms: C_36  and  C_38
REMARK   12  A    between atoms: O_39  and  C_40
REMARK   13  A    between atoms: C_40  and  C_42
REMARK                            x       y       z     vdW  Elec       q    Type
REMARK                         _______ _______ _______ _____ _____    ______ ____
ROOT
ATOM      1  C   LIG A   1      -5.234   1.006 128.585  0.00  0.00    +0.012 C 
ATOM      2  C   LIG A   1      -6.779   1.152 128.362  0.00  0.00    -0.019 C 
ATOM      3  C   LIG A   1      -7.377   1.865 129.636  0.00  0.00    -0.001 C 
ATOM      4  C   LIG A   1      -6.731   3.254 129.879  0.00  0.00    -0.003 C 
ATOM      5  C   LIG A   1      -7.287   3.970 131.146  0.00  0.00    +0.006 C 
ATOM      6  C   LIG A   1      -8.818   3.886 131.386  0.00  0.00    -0.019 C 
ATOM      7  C   LIG A   1      -9.414   2.524 130.979  0.00  0.00    +0.008 C 
ATOM      8  C   LIG A   1      -8.914   1.964 129.651  0.00  0.00    +0.005 C 
ATOM      9  C   LIG A   1      -9.092   4.058 132.906  0.00  0.00    +0.012 C 
ATOM     10  C   LIG A   1      -9.386   5.089 130.563  0.00  0.00    +0.061 C 
ATOM     11  C   LIG A   1      -8.249   6.097 130.690  0.00  0.00    +0.137 C 
ATOM     12  O   LIG A   1      -8.319   7.279 130.379  0.00  0.00    -0.297 OA
ATOM     13  C   LIG A   1      -6.977   5.472 131.216  0.00  0.00    +0.079 C 
ATOM     14  C   LIG A   1      -6.581   4.094 128.598  0.00  0.00    +0.004 C 
ATOM     15  C   LIG A   1      -7.231   3.516 127.362  0.00  0.00    +0.008 C 
ATOM     16  C   LIG A   1      -6.964   2.029 127.077  0.00  0.00    +0.040 C 
ATOM     17  C   LIG A   1      -8.011   1.498 126.075  0.00  0.00    +0.224 C 
ATOM     18  C   LIG A   1      -7.730   0.018 125.760  0.00  0.00    +0.257 C 
ATOM     19  C   LIG A   1      -8.103  -0.756 127.033  0.00  0.00    +0.221 C 
ATOM     20  C   LIG A   1      -7.285  -0.332 128.261  0.00  0.00    +0.055 C 
ENDROOT
BRANCH  10  21
ATOM     21  C   LIG A   1     -10.746   5.614 131.044  0.00  0.00    +0.008 C 
ATOM     22  C   LIG A   1     -11.731   5.934 129.926  0.00  0.00    +0.004 C 
ENDBRANCH  10  21
BRANCH  17  23
ATOM     23  O   LIG A   1      -7.994   2.302 124.873  0.00  0.00    -0.457 OA
BRANCH  23  24
ATOM     24  C   LIG A   1      -9.092   2.219 124.045  0.00  0.00    +0.304 C 
ATOM     25  O   LIG A   1     -10.224   1.927 124.394  0.00  0.00    -0.251 OA
ATOM     26  C   LIG A   1      -8.739   2.662 122.656  0.00  0.00    +0.136 C 
ENDBRANCH  23  24
ENDBRANCH  17  23
BRANCH  19  27
ATOM     27  O   LIG A   1      -7.856  -2.173 126.858  0.00  0.00    -0.458 OA
BRANCH  27  28
ATOM     28  C   LIG A   1      -8.942  -2.977 126.739  0.00  0.00    +0.304 C 
ATOM     29  O   LIG A   1      -9.769  -2.915 125.840  0.00  0.00    -0.251 OA
ATOM     30  C   LIG A   1      -8.960  -3.989 127.844  0.00  0.00    +0.136 C 
ENDBRANCH  27  28
ENDBRANCH  19  27
BRANCH  18  31
ATOM     31  O   LIG A   1      -6.332  -0.280 125.471  0.00  0.00    -0.454 OA
BRANCH  31  32
ATOM     32  C   LIG A   1      -6.085  -1.123 124.433  0.00  0.00    +0.304 C 
ATOM     33  O   LIG A   1      -5.245  -2.013 124.436  0.00  0.00    -0.251 OA
ATOM     34  C   LIG A   1      -6.864  -0.726 123.211  0.00  0.00    +0.136 C 
ENDBRANCH  31  32
ENDBRANCH  18  31
TORSDOF 7
ENDMDL
MODEL 6
REMARK VINA RESULT:      -7.7      5.285      8.637
REMARK  Name = NuBBE_1511
REMARK  13 active torsions:
REMARK  status: ('A' for Active; 'I' for Inactive)
REMARK    1  A    between atoms: C_1  and  C_2
REMARK    2  A    between atoms: C_9  and  C_12
REMARK    3  A    between atoms: C_13  and  C_18
REMARK    4  A    between atoms: C_18  and  C_19
REMARK    5  A    between atoms: C_24  and  O_26
REMARK    6  A    between atoms: O_26  and  C_27
REMARK    7  A    between atoms: C_27  and  C_29
REMARK    8  A    between atoms: C_30  and  O_39
REMARK    9  A    between atoms: C_32  and  O_35
REMARK   10  A    between atoms: O_35  and  C_36
REMARK   11  A    between atoms: C_36  and  C_38
REMARK   12  A    between atoms: O_39  and  C_40
REMARK   13  A    between atoms: C_40  and  C_42
REMARK                            x       y       z     vdW  Elec       q    Type
REMARK                         _______ _______ _______ _____ _____    ______ ____
ROOT
ATOM      1  C   LIG A   1      -8.262   5.750 133.440  0.00  0.00    +0.012 C 
ATOM      2  C   LIG A   1      -7.670   5.913 131.998  0.00  0.00    -0.019 C 
ATOM      3  C   LIG A   1      -6.268   6.623 132.139  0.00  0.00    -0.001 C 
ATOM      4  C   LIG A   1      -5.296   5.814 133.036  0.00  0.00    -0.003 C 
ATOM      5  C   LIG A   1      -3.911   6.505 133.211  0.00  0.00    +0.006 C 
ATOM      6  C   LIG A   1      -3.284   7.153 131.949  0.00  0.00    -0.019 C 
ATOM      7  C   LIG A   1      -4.332   7.809 131.029  0.00  0.00    +0.008 C 
ATOM      8  C   LIG A   1      -5.601   6.994 130.802  0.00  0.00    +0.005 C 
ATOM      9  C   LIG A   1      -2.314   8.281 132.400  0.00  0.00    +0.012 C 
ATOM     10  C   LIG A   1      -2.510   5.972 131.275  0.00  0.00    +0.061 C 
ATOM     11  C   LIG A   1      -2.081   5.165 132.496  0.00  0.00    +0.137 C 
ATOM     12  O   LIG A   1      -1.268   4.250 132.483  0.00  0.00    -0.297 OA
ATOM     13  C   LIG A   1      -2.806   5.588 133.753  0.00  0.00    +0.079 C 
ATOM     14  C   LIG A   1      -5.302   4.303 132.740  0.00  0.00    +0.004 C 
ATOM     15  C   LIG A   1      -6.106   3.880 131.532  0.00  0.00    +0.008 C 
ATOM     16  C   LIG A   1      -7.521   4.468 131.409  0.00  0.00    +0.040 C 
ATOM     17  C   LIG A   1      -8.026   4.305 129.961  0.00  0.00    +0.224 C 
ATOM     18  C   LIG A   1      -9.455   4.862 129.838  0.00  0.00    +0.257 C 
ATOM     19  C   LIG A   1      -9.317   6.388 129.944  0.00  0.00    +0.221 C 
ATOM     20  C   LIG A   1      -8.701   6.849 131.273  0.00  0.00    +0.055 C 
ENDROOT
BRANCH  10  21
ATOM     21  C   LIG A   1      -1.350   6.397 130.364  0.00  0.00    +0.008 C 
ATOM     22  C   LIG A   1      -1.734   6.603 128.904  0.00  0.00    +0.004 C 
ENDBRANCH  10  21
BRANCH  17  23
ATOM     23  O   LIG A   1      -7.972   2.912 129.574  0.00  0.00    -0.457 OA
BRANCH  23  24
ATOM     24  C   LIG A   1      -8.088   2.625 128.233  0.00  0.00    +0.304 C 
ATOM     25  O   LIG A   1      -8.982   1.972 127.720  0.00  0.00    -0.251 OA
ATOM     26  C   LIG A   1      -7.023   3.334 127.449  0.00  0.00    +0.136 C 
ENDBRANCH  23  24
ENDBRANCH  17  23
BRANCH  19  27
ATOM     27  O   LIG A   1     -10.616   7.024 129.863  0.00  0.00    -0.458 OA
BRANCH  27  28
ATOM     28  C   LIG A   1     -10.824   7.871 128.824  0.00  0.00    +0.304 C 
ATOM     29  O   LIG A   1      -9.971   8.587 128.317  0.00  0.00    -0.251 OA
ATOM     30  C   LIG A   1     -12.242   7.772 128.351  0.00  0.00    +0.136 C 
ENDBRANCH  27  28
ENDBRANCH  19  27
BRANCH  18  31
ATOM     31  O   LIG A   1     -10.359   4.439 130.902  0.00  0.00    -0.454 OA
BRANCH  31  32
ATOM     32  C   LIG A   1     -11.052   3.286 130.697  0.00  0.00    +0.304 C 
ATOM     33  O   LIG A   1     -12.065   3.188 130.018  0.00  0.00    -0.251 OA
ATOM     34  C   LIG A   1     -10.511   2.167 131.541  0.00  0.00    +0.136 C 
ENDBRANCH  31  32
ENDBRANCH  18  31
TORSDOF 7
ENDMDL
MODEL 7
REMARK VINA RESULT:      -7.6      3.329      6.998
REMARK  Name = NuBBE_1511
REMARK  13 active torsions:
REMARK  status: ('A' for Active; 'I' for Inactive)
REMARK    1  A    between atoms: C_1  and  C_2
REMARK    2  A    between atoms: C_9  and  C_12
REMARK    3  A    between atoms: C_13  and  C_18
REMARK    4  A    between atoms: C_18  and  C_19
REMARK    5  A    between atoms: C_24  and  O_26
REMARK    6  A    between atoms: O_26  and  C_27
REMARK    7  A    between atoms: C_27  and  C_29
REMARK    8  A    between atoms: C_30  and  O_39
REMARK    9  A    between atoms: C_32  and  O_35
REMARK   10  A    between atoms: O_35  and  C_36
REMARK   11  A    between atoms: C_36  and  C_38
REMARK   12  A    between atoms: O_39  and  C_40
REMARK   13  A    between atoms: C_40  and  C_42
REMARK                            x       y       z     vdW  Elec       q    Type
REMARK                         _______ _______ _______ _____ _____    ______ ____
ROOT
ATOM      1  C   LIG A   1      -8.137   2.442 128.959  0.00  0.00    +0.012 C 
ATOM      2  C   LIG A   1      -6.815   1.654 128.657  0.00  0.00    -0.019 C 
ATOM      3  C   LIG A   1      -7.227   0.238 128.095  0.00  0.00    -0.001 C 
ATOM      4  C   LIG A   1      -8.095   0.352 126.815  0.00  0.00    -0.003 C 
ATOM      5  C   LIG A   1      -8.535  -1.032 126.252  0.00  0.00    +0.006 C 
ATOM      6  C   LIG A   1      -7.469  -2.159 126.247  0.00  0.00    -0.019 C 
ATOM      7  C   LIG A   1      -6.546  -2.117 127.480  0.00  0.00    +0.008 C 
ATOM      8  C   LIG A   1      -6.050  -0.730 127.875  0.00  0.00    +0.005 C 
ATOM      9  C   LIG A   1      -8.199  -3.532 126.281  0.00  0.00    +0.012 C 
ATOM     10  C   LIG A   1      -6.716  -1.947 124.893  0.00  0.00    +0.061 C 
ATOM     11  C   LIG A   1      -7.839  -1.412 124.010  0.00  0.00    +0.137 C 
ATOM     12  O   LIG A   1      -7.780  -1.292 122.794  0.00  0.00    -0.297 OA
ATOM     13  C   LIG A   1      -9.054  -0.997 124.808  0.00  0.00    +0.079 C 
ATOM     14  C   LIG A   1      -7.571   1.393 125.808  0.00  0.00    +0.004 C 
ATOM     15  C   LIG A   1      -6.227   1.999 126.141  0.00  0.00    +0.008 C 
ATOM     16  C   LIG A   1      -6.032   2.488 127.585  0.00  0.00    +0.040 C 
ATOM     17  C   LIG A   1      -4.527   2.662 127.874  0.00  0.00    +0.224 C 
ATOM     18  C   LIG A   1      -4.326   3.182 129.309  0.00  0.00    +0.257 C 
ATOM     19  C   LIG A   1      -4.682   2.007 130.231  0.00  0.00    +0.221 C 
ATOM     20  C   LIG A   1      -6.129   1.521 130.062  0.00  0.00    +0.055 C 
ENDROOT
BRANCH  10  21
ATOM     21  C   LIG A   1      -6.023  -3.199 124.336  0.00  0.00    +0.008 C 
ATOM     22  C   LIG A   1      -4.728  -2.923 123.582  0.00  0.00    +0.004 C 
ENDBRANCH  10  21
BRANCH  17  23
ATOM     23  O   LIG A   1      -3.940   3.560 126.905  0.00  0.00    -0.457 OA
BRANCH  23  24
ATOM     24  C   LIG A   1      -2.632   3.939 127.109  0.00  0.00    +0.304 C 
ATOM     25  O   LIG A   1      -2.265   5.012 127.562  0.00  0.00    -0.251 OA
ATOM     26  C   LIG A   1      -1.701   2.800 126.814  0.00  0.00    +0.136 C 
ENDBRANCH  23  24
ENDBRANCH  17  23
BRANCH  19  27
ATOM     27  O   LIG A   1      -4.549   2.392 131.622  0.00  0.00    -0.458 OA
BRANCH  27  28
ATOM     28  C   LIG A   1      -3.693   1.666 132.383  0.00  0.00    +0.304 C 
ATOM     29  O   LIG A   1      -3.653   0.444 132.428  0.00  0.00    -0.251 OA
ATOM     30  C   LIG A   1      -2.766   2.575 133.130  0.00  0.00    +0.136 C 
ENDBRANCH  27  28
ENDBRANCH  19  27
BRANCH  18  31
ATOM     31  O   LIG A   1      -5.200   4.292 129.673  0.00  0.00    -0.454 OA
BRANCH  31  32
ATOM     32  C   LIG A   1      -4.603   5.490 129.916  0.00  0.00    +0.304 C 
ATOM     33  O   LIG A   1      -4.949   6.558 129.429  0.00  0.00    -0.251 OA
ATOM     34  C   LIG A   1      -3.355   5.321 130.735  0.00  0.00    +0.136 C 
ENDBRANCH  31  32
ENDBRANCH  18  31
TORSDOF 7
ENDMDL
MODEL 8
REMARK VINA RESULT:      -7.6      3.427      6.502
REMARK  Name = NuBBE_1511
REMARK  13 active torsions:
REMARK  status: ('A' for Active; 'I' for Inactive)
REMARK    1  A    between atoms: C_1  and  C_2
REMARK    2  A    between atoms: C_9  and  C_12
REMARK    3  A    between atoms: C_13  and  C_18
REMARK    4  A    between atoms: C_18  and  C_19
REMARK    5  A    between atoms: C_24  and  O_26
REMARK    6  A    between atoms: O_26  and  C_27
REMARK    7  A    between atoms: C_27  and  C_29
REMARK    8  A    between atoms: C_30  and  O_39
REMARK    9  A    between atoms: C_32  and  O_35
REMARK   10  A    between atoms: O_35  and  C_36
REMARK   11  A    between atoms: C_36  and  C_38
REMARK   12  A    between atoms: O_39  and  C_40
REMARK   13  A    between atoms: C_40  and  C_42
REMARK                            x       y       z     vdW  Elec       q    Type
REMARK                         _______ _______ _______ _____ _____    ______ ____
ROOT
ATOM      1  C   LIG A   1      -8.097   2.975 133.528  0.00  0.00    +0.012 C 
ATOM      2  C   LIG A   1      -7.142   2.833 132.293  0.00  0.00    -0.019 C 
ATOM      3  C   LIG A   1      -6.391   1.452 132.432  0.00  0.00    -0.001 C 
ATOM      4  C   LIG A   1      -7.379   0.258 132.493  0.00  0.00    -0.003 C 
ATOM      5  C   LIG A   1      -6.664  -1.116 132.653  0.00  0.00    +0.006 C 
ATOM      6  C   LIG A   1      -5.382  -1.344 131.811  0.00  0.00    -0.019 C 
ATOM      7  C   LIG A   1      -4.524  -0.072 131.669  0.00  0.00    +0.008 C 
ATOM      8  C   LIG A   1      -5.300   1.208 131.373  0.00  0.00    +0.005 C 
ATOM      9  C   LIG A   1      -4.498  -2.402 132.529  0.00  0.00    +0.012 C 
ATOM     10  C   LIG A   1      -5.927  -1.886 130.449  0.00  0.00    +0.061 C 
ATOM     11  C   LIG A   1      -7.161  -2.656 130.910  0.00  0.00    +0.137 C 
ATOM     12  O   LIG A   1      -7.806  -3.431 130.216  0.00  0.00    -0.297 OA
ATOM     13  C   LIG A   1      -7.545  -2.333 132.336  0.00  0.00    +0.079 C 
ATOM     14  C   LIG A   1      -8.517   0.349 131.459  0.00  0.00    +0.004 C 
ATOM     15  C   LIG A   1      -8.394   1.473 130.455  0.00  0.00    +0.008 C 
ATOM     16  C   LIG A   1      -8.052   2.862 131.017  0.00  0.00    +0.040 C 
ATOM     17  C   LIG A   1      -7.542   3.770 129.879  0.00  0.00    +0.224 C 
ATOM     18  C   LIG A   1      -7.228   5.173 130.429  0.00  0.00    +0.257 C 
ATOM     19  C   LIG A   1      -5.962   5.011 131.283  0.00  0.00    +0.221 C 
ATOM     20  C   LIG A   1      -6.142   4.033 132.453  0.00  0.00    +0.055 C 
ENDROOT
BRANCH  10  21
ATOM     21  C   LIG A   1      -4.928  -2.728 129.642  0.00  0.00    +0.008 C 
ATOM     22  C   LIG A   1      -4.982  -2.503 128.136  0.00  0.00    +0.004 C 
ENDBRANCH  10  21
BRANCH  17  23
ATOM     23  O   LIG A   1      -8.525   3.831 128.819  0.00  0.00    -0.457 OA
BRANCH  23  24
ATOM     24  C   LIG A   1      -8.074   4.162 127.561  0.00  0.00    +0.304 C 
ATOM     25  O   LIG A   1      -8.477   5.094 126.884  0.00  0.00    -0.251 OA
ATOM     26  C   LIG A   1      -6.917   3.290 127.170  0.00  0.00    +0.136 C 
ENDBRANCH  23  24
ENDBRANCH  17  23
BRANCH  19  27
ATOM     27  O   LIG A   1      -5.582   6.277 131.876  0.00  0.00    -0.458 OA
BRANCH  27  28
ATOM     28  C   LIG A   1      -4.860   7.127 131.103  0.00  0.00    +0.304 C 
ATOM     29  O   LIG A   1      -5.309   7.799 130.185  0.00  0.00    -0.251 OA
ATOM     30  C   LIG A   1      -3.434   7.160 131.564  0.00  0.00    +0.136 C 
ENDBRANCH  27  28
ENDBRANCH  19  27
BRANCH  18  31
ATOM     31  O   LIG A   1      -8.263   5.723 131.297  0.00  0.00    -0.454 OA
BRANCH  31  32
ATOM     32  C   LIG A   1      -9.058   6.692 130.767  0.00  0.00    +0.304 C 
ATOM     33  O   LIG A   1      -8.662   7.631 130.090  0.00  0.00    -0.251 OA
ATOM     34  C   LIG A   1     -10.474   6.559 131.250  0.00  0.00    +0.136 C 
ENDBRANCH  31  32
ENDBRANCH  18  31
TORSDOF 7
ENDMDL
MODEL 9
REMARK VINA RESULT:      -7.4      2.917      4.947
REMARK  Name = NuBBE_1511
REMARK  13 active torsions:
REMARK  status: ('A' for Active; 'I' for Inactive)
REMARK    1  A    between atoms: C_1  and  C_2
REMARK    2  A    between atoms: C_9  and  C_12
REMARK    3  A    between atoms: C_13  and  C_18
REMARK    4  A    between atoms: C_18  and  C_19
REMARK    5  A    between atoms: C_24  and  O_26
REMARK    6  A    between atoms: O_26  and  C_27
REMARK    7  A    between atoms: C_27  and  C_29
REMARK    8  A    between atoms: C_30  and  O_39
REMARK    9  A    between atoms: C_32  and  O_35
REMARK   10  A    between atoms: O_35  and  C_36
REMARK   11  A    between atoms: C_36  and  C_38
REMARK   12  A    between atoms: O_39  and  C_40
REMARK   13  A    between atoms: C_40  and  C_42
REMARK                            x       y       z     vdW  Elec       q    Type
REMARK                         _______ _______ _______ _____ _____    ______ ____
ROOT
ATOM      1  C   LIG A   1      -4.819  -1.657 128.454  0.00  0.00    +0.012 C 
ATOM      2  C   LIG A   1      -6.072  -0.785 128.097  0.00  0.00    -0.019 C 
ATOM      3  C   LIG A   1      -6.599  -0.141 129.437  0.00  0.00    -0.001 C 
ATOM      4  C   LIG A   1      -5.515   0.725 130.130  0.00  0.00    -0.003 C 
ATOM      5  C   LIG A   1      -6.002   1.354 131.469  0.00  0.00    +0.006 C 
ATOM      6  C   LIG A   1      -7.443   1.930 131.492  0.00  0.00    -0.019 C 
ATOM      7  C   LIG A   1      -8.434   1.096 130.658  0.00  0.00    +0.008 C 
ATOM      8  C   LIG A   1      -7.919   0.640 129.297  0.00  0.00    +0.005 C 
ATOM      9  C   LIG A   1      -7.961   1.908 132.958  0.00  0.00    +0.012 C 
ATOM     10  C   LIG A   1      -7.263   3.394 130.972  0.00  0.00    +0.061 C 
ATOM     11  C   LIG A   1      -5.874   3.729 131.507  0.00  0.00    +0.137 C 
ATOM     12  O   LIG A   1      -5.381   4.849 131.528  0.00  0.00    -0.297 OA
ATOM     13  C   LIG A   1      -5.128   2.505 131.987  0.00  0.00    +0.079 C 
ATOM     14  C   LIG A   1      -4.744   1.637 129.157  0.00  0.00    +0.004 C 
ATOM     15  C   LIG A   1      -5.273   1.671 127.741  0.00  0.00    +0.008 C 
ATOM     16  C   LIG A   1      -5.582   0.313 127.091  0.00  0.00    +0.040 C 
ATOM     17  C   LIG A   1      -6.494   0.521 125.865  0.00  0.00    +0.224 C 
ATOM     18  C   LIG A   1      -6.782  -0.831 125.189  0.00  0.00    +0.257 C 
ATOM     19  C   LIG A   1      -7.719  -1.582 126.146  0.00  0.00    +0.221 C 
ATOM     20  C   LIG A   1      -7.104  -1.825 127.531  0.00  0.00    +0.055 C 
ENDROOT
BRANCH  10  21
ATOM     21  C   LIG A   1      -8.358   4.374 131.413  0.00  0.00    +0.008 C 
ATOM     22  C   LIG A   1      -9.452   4.608 130.379  0.00  0.00    +0.004 C 
ENDBRANCH  10  21
BRANCH  17  23
ATOM     23  O   LIG A   1      -5.875   1.447 124.941  0.00  0.00    -0.457 OA
BRANCH  23  24
ATOM     24  C   LIG A   1      -6.711   2.171 124.121  0.00  0.00    +0.304 C 
ATOM     25  O   LIG A   1      -6.970   1.905 122.958  0.00  0.00    -0.251 OA
ATOM     26  C   LIG A   1      -7.370   3.279 124.887  0.00  0.00    +0.136 C 
ENDBRANCH  23  24
ENDBRANCH  17  23
BRANCH  19  27
ATOM     27  O   LIG A   1      -8.042  -2.893 125.617  0.00  0.00    -0.458 OA
BRANCH  27  28
ATOM     28  C   LIG A   1      -9.318  -3.090 125.198  0.00  0.00    +0.304 C 
ATOM     29  O   LIG A   1     -10.309  -3.048 125.913  0.00  0.00    -0.251 OA
ATOM     30  C   LIG A   1      -9.345  -3.323 123.718  0.00  0.00    +0.136 C 
ENDBRANCH  27  28
ENDBRANCH  19  27
BRANCH  18  31
ATOM     31  O   LIG A   1      -5.603  -1.670 124.998  0.00  0.00    -0.454 OA
BRANCH  31  32
ATOM     32  C   LIG A   1      -5.500  -2.322 123.809  0.00  0.00    +0.304 C 
ATOM     33  O   LIG A   1      -6.001  -1.948 122.757  0.00  0.00    -0.251 OA
ATOM     34  C   LIG A   1      -4.827  -3.655 123.975  0.00  0.00    +0.136 C 
ENDBRANCH  31  32
ENDBRANCH  18  31
TORSDOF 7
ENDMDL
