MODEL 1
REMARK VINA RESULT:      -8.3      0.000      0.000
REMARK  Name = NuBBE_242
REMARK  12 active torsions:
REMARK  status: ('A' for Active; 'I' for Inactive)
REMARK    1  A    between atoms: O_1  and  C_2
REMARK    2  A    between atoms: C_4  and  O_5
REMARK    3  A    between atoms: C_8  and  O_10
REMARK    4  A    between atoms: O_10  and  C_11
REMARK    5  A    between atoms: C_11  and  C_12
REMARK    6  A    between atoms: C_14  and  O_15
REMARK    7  A    between atoms: C_16  and  O_17
REMARK    8  A    between atoms: C_18  and  O_19
REMARK    9  A    between atoms: C_22  and  C_24
REMARK   10  A    between atoms: C_26  and  O_27
REMARK   11  A    between atoms: C_28  and  O_29
REMARK   12  A    between atoms: C_30  and  O_31
REMARK                            x       y       z     vdW  Elec       q    Type
REMARK                         _______ _______ _______ _____ _____    ______ ____
ROOT
ATOM      1  C   LIG A   1      -3.044   3.377 126.602  0.00  0.00    +0.124 A 
ATOM      2  C   LIG A   1      -3.729   4.561 126.357  0.00  0.00    +0.091 A 
ATOM      3  C   LIG A   1      -5.123   4.531 126.292  0.00  0.00    +0.127 A 
ATOM      4  C   LIG A   1      -5.832   3.331 126.431  0.00  0.00    +0.040 A 
ATOM      5  C   LIG A   1      -7.326   3.277 126.275  0.00  0.00    +0.091 C 
ATOM      6  C   LIG A   1      -7.714   1.934 125.653  0.00  0.00    +0.226 C 
ATOM      7  C   LIG A   1      -7.099   0.807 126.514  0.00  0.00    +0.245 C 
ATOM      8  O   LIG A   1      -5.683   0.914 126.744  0.00  0.00    -0.480 OA
ATOM      9  C   LIG A   1      -5.119   2.156 126.677  0.00  0.00    +0.132 A 
ATOM     10  C   LIG A   1      -3.728   2.184 126.790  0.00  0.00    +0.091 A 
ENDROOT
BRANCH   7  11
ATOM     11  C   LIG A   1      -7.374  -0.589 125.959  0.00  0.00    +0.003 A 
ATOM     12  C   LIG A   1      -6.341  -1.363 125.387  0.00  0.00    +0.056 A 
ATOM     13  C   LIG A   1      -6.602  -2.649 124.919  0.00  0.00    +0.162 A 
ATOM     14  C   LIG A   1      -7.883  -3.175 125.003  0.00  0.00    +0.201 A 
ATOM     15  C   LIG A   1      -8.912  -2.420 125.547  0.00  0.00    +0.162 A 
ATOM     16  C   LIG A   1      -8.671  -1.135 126.023  0.00  0.00    +0.056 A 
BRANCH  13  17
ATOM     17  O   LIG A   1      -5.625  -3.438 124.376  0.00  0.00    -0.503 OA
ATOM     18  H   LIG A   1      -5.985  -4.338 124.280  0.00  0.00    +0.292 HD
ENDBRANCH  13  17
BRANCH  14  19
ATOM     19  O   LIG A   1      -8.148  -4.445 124.561  0.00  0.00    -0.501 OA
ATOM     20  H   LIG A   1      -7.739  -5.022 125.239  0.00  0.00    +0.292 HD
ENDBRANCH  14  19
BRANCH  15  21
ATOM     21  O   LIG A   1     -10.171  -2.943 125.625  0.00  0.00    -0.503 OA
ATOM     22  H   LIG A   1     -10.373  -3.228 124.711  0.00  0.00    +0.292 HD
ENDBRANCH  15  21
ENDBRANCH   7  11
BRANCH   1  23
ATOM     23  O   LIG A   1      -1.681   3.338 126.631  0.00  0.00    -0.506 OA
ATOM     24  H   LIG A   1      -1.345   4.209 126.901  0.00  0.00    +0.292 HD
ENDBRANCH   1  23
BRANCH   3  25
ATOM     25  O   LIG A   1      -5.819   5.680 126.041  0.00  0.00    -0.506 OA
ATOM     26  H   LIG A   1      -5.559   6.361 126.684  0.00  0.00    +0.292 HD
ENDBRANCH   3  25
BRANCH   6  27
ATOM     27  O   LIG A   1      -7.225   1.881 124.287  0.00  0.00    -0.453 OA
BRANCH  27  28
ATOM     28  C   LIG A   1      -8.064   2.394 123.352  0.00  0.00    +0.340 C 
ATOM     29  O   LIG A   1      -9.264   2.214 123.274  0.00  0.00    -0.245 OA
BRANCH  28  30
ATOM     30  C   LIG A   1      -7.299   3.177 122.353  0.00  0.00    +0.066 A 
ATOM     31  C   LIG A   1      -7.912   3.432 121.114  0.00  0.00    +0.064 A 
ATOM     32  C   LIG A   1      -7.213   4.139 120.143  0.00  0.00    +0.163 A 
ATOM     33  C   LIG A   1      -5.924   4.590 120.403  0.00  0.00    +0.201 A 
ATOM     34  C   LIG A   1      -5.332   4.357 121.638  0.00  0.00    +0.163 A 
ATOM     35  C   LIG A   1      -6.010   3.657 122.626  0.00  0.00    +0.064 A 
BRANCH  32  36
ATOM     36  O   LIG A   1      -7.750   4.412 118.917  0.00  0.00    -0.503 OA
ATOM     37  H   LIG A   1      -7.020   4.551 118.286  0.00  0.00    +0.292 HD
ENDBRANCH  32  36
BRANCH  33  38
ATOM     38  O   LIG A   1      -5.218   5.266 119.443  0.00  0.00    -0.501 OA
ATOM     39  H   LIG A   1      -5.547   6.187 119.506  0.00  0.00    +0.292 HD
ENDBRANCH  33  38
BRANCH  34  40
ATOM     40  O   LIG A   1      -4.070   4.811 121.889  0.00  0.00    -0.503 OA
ATOM     41  H   LIG A   1      -4.032   5.690 121.459  0.00  0.00    +0.292 HD
ENDBRANCH  34  40
ENDBRANCH  28  30
ENDBRANCH  27  28
ENDBRANCH   6  27
TORSDOF 12
ENDMDL
MODEL 2
REMARK VINA RESULT:      -7.9      6.216      9.351
REMARK  Name = NuBBE_242
REMARK  12 active torsions:
REMARK  status: ('A' for Active; 'I' for Inactive)
REMARK    1  A    between atoms: O_1  and  C_2
REMARK    2  A    between atoms: C_4  and  O_5
REMARK    3  A    between atoms: C_8  and  O_10
REMARK    4  A    between atoms: O_10  and  C_11
REMARK    5  A    between atoms: C_11  and  C_12
REMARK    6  A    between atoms: C_14  and  O_15
REMARK    7  A    between atoms: C_16  and  O_17
REMARK    8  A    between atoms: C_18  and  O_19
REMARK    9  A    between atoms: C_22  and  C_24
REMARK   10  A    between atoms: C_26  and  O_27
REMARK   11  A    between atoms: C_28  and  O_29
REMARK   12  A    between atoms: C_30  and  O_31
REMARK                            x       y       z     vdW  Elec       q    Type
REMARK                         _______ _______ _______ _____ _____    ______ ____
ROOT
ATOM      1  C   LIG A   1      -8.036   4.664 134.573  0.00  0.00    +0.124 A 
ATOM      2  C   LIG A   1      -9.143   3.970 134.097  0.00  0.00    +0.091 A 
ATOM      3  C   LIG A   1      -9.059   3.339 132.856  0.00  0.00    +0.127 A 
ATOM      4  C   LIG A   1      -7.902   3.426 132.072  0.00  0.00    +0.040 A 
ATOM      5  C   LIG A   1      -7.836   2.824 130.696  0.00  0.00    +0.091 C 
ATOM      6  C   LIG A   1      -6.947   3.699 129.811  0.00  0.00    +0.226 C 
ATOM      7  C   LIG A   1      -5.584   3.877 130.520  0.00  0.00    +0.245 C 
ATOM      8  O   LIG A   1      -5.655   4.362 131.872  0.00  0.00    -0.480 OA
ATOM      9  C   LIG A   1      -6.804   4.130 132.572  0.00  0.00    +0.132 A 
ATOM     10  C   LIG A   1      -6.862   4.725 133.833  0.00  0.00    +0.091 A 
ENDROOT
BRANCH   7  11
ATOM     11  C   LIG A   1      -4.623   4.782 129.752  0.00  0.00    +0.003 A 
ATOM     12  C   LIG A   1      -4.638   6.183 129.936  0.00  0.00    +0.056 A 
ATOM     13  C   LIG A   1      -3.729   6.991 129.255  0.00  0.00    +0.162 A 
ATOM     14  C   LIG A   1      -2.809   6.425 128.384  0.00  0.00    +0.201 A 
ATOM     15  C   LIG A   1      -2.794   5.053 128.182  0.00  0.00    +0.162 A 
ATOM     16  C   LIG A   1      -3.691   4.228 128.854  0.00  0.00    +0.056 A 
BRANCH  13  17
ATOM     17  O   LIG A   1      -3.697   8.348 129.420  0.00  0.00    -0.503 OA
ATOM     18  H   LIG A   1      -2.949   8.562 130.005  0.00  0.00    +0.292 HD
ENDBRANCH  13  17
BRANCH  14  19
ATOM     19  O   LIG A   1      -1.900   7.208 127.723  0.00  0.00    -0.501 OA
ATOM     20  H   LIG A   1      -2.351   8.074 127.636  0.00  0.00    +0.292 HD
ENDBRANCH  14  19
BRANCH  15  21
ATOM     21  O   LIG A   1      -1.888   4.503 127.321  0.00  0.00    -0.503 OA
ATOM     22  H   LIG A   1      -1.857   3.558 127.573  0.00  0.00    +0.292 HD
ENDBRANCH  15  21
ENDBRANCH   7  11
BRANCH   1  23
ATOM     23  O   LIG A   1      -8.075   5.338 135.758  0.00  0.00    -0.506 OA
ATOM     24  H   LIG A   1      -7.168   5.548 136.032  0.00  0.00    +0.292 HD
ENDBRANCH   1  23
BRANCH   3  25
ATOM     25  O   LIG A   1     -10.137   2.659 132.362  0.00  0.00    -0.506 OA
ATOM     26  H   LIG A   1     -10.557   3.185 131.661  0.00  0.00    +0.292 HD
ENDBRANCH   3  25
BRANCH   6  27
ATOM     27  O   LIG A   1      -7.599   4.977 129.594  0.00  0.00    -0.453 OA
BRANCH  27  28
ATOM     28  C   LIG A   1      -8.616   4.963 128.695  0.00  0.00    +0.340 C 
ATOM     29  O   LIG A   1      -8.637   4.374 127.631  0.00  0.00    -0.245 OA
BRANCH  28  30
ATOM     30  C   LIG A   1      -9.715   5.844 129.153  0.00  0.00    +0.066 A 
ATOM     31  C   LIG A   1     -10.325   5.543 130.384  0.00  0.00    +0.064 A 
ATOM     32  C   LIG A   1     -11.377   6.332 130.831  0.00  0.00    +0.163 A 
ATOM     33  C   LIG A   1     -11.815   7.408 130.067  0.00  0.00    +0.201 A 
ATOM     34  C   LIG A   1     -11.193   7.716 128.863  0.00  0.00    +0.163 A 
ATOM     35  C   LIG A   1     -10.137   6.946 128.396  0.00  0.00    +0.064 A 
BRANCH  32  36
ATOM     36  O   LIG A   1     -12.017   6.088 132.014  0.00  0.00    -0.503 OA
ATOM     37  H   LIG A   1     -12.340   6.935 132.370  0.00  0.00    +0.292 HD
ENDBRANCH  32  36
BRANCH  33  38
ATOM     38  O   LIG A   1     -12.869   8.175 130.487  0.00  0.00    -0.501 OA
ATOM     39  H   LIG A   1     -13.492   7.532 130.883  0.00  0.00    +0.292 HD
ENDBRANCH  33  38
BRANCH  34  40
ATOM     40  O   LIG A   1     -11.623   8.779 128.123  0.00  0.00    -0.503 OA
ATOM     41  H   LIG A   1     -12.297   9.215 128.683  0.00  0.00    +0.292 HD
ENDBRANCH  34  40
ENDBRANCH  28  30
ENDBRANCH  27  28
ENDBRANCH   6  27
TORSDOF 12
ENDMDL
MODEL 3
REMARK VINA RESULT:      -7.8      3.208      6.037
REMARK  Name = NuBBE_242
REMARK  12 active torsions:
REMARK  status: ('A' for Active; 'I' for Inactive)
REMARK    1  A    between atoms: O_1  and  C_2
REMARK    2  A    between atoms: C_4  and  O_5
REMARK    3  A    between atoms: C_8  and  O_10
REMARK    4  A    between atoms: O_10  and  C_11
REMARK    5  A    between atoms: C_11  and  C_12
REMARK    6  A    between atoms: C_14  and  O_15
REMARK    7  A    between atoms: C_16  and  O_17
REMARK    8  A    between atoms: C_18  and  O_19
REMARK    9  A    between atoms: C_22  and  C_24
REMARK   10  A    between atoms: C_26  and  O_27
REMARK   11  A    between atoms: C_28  and  O_29
REMARK   12  A    between atoms: C_30  and  O_31
REMARK                            x       y       z     vdW  Elec       q    Type
REMARK                         _______ _______ _______ _____ _____    ______ ____
ROOT
ATOM      1  C   LIG A   1      -9.181  -3.046 123.775  0.00  0.00    +0.124 A 
ATOM      2  C   LIG A   1      -8.327  -2.305 122.965  0.00  0.00    +0.091 A 
ATOM      3  C   LIG A   1      -7.150  -1.797 123.515  0.00  0.00    +0.127 A 
ATOM      4  C   LIG A   1      -6.837  -1.987 124.866  0.00  0.00    +0.040 A 
ATOM      5  C   LIG A   1      -5.614  -1.368 125.486  0.00  0.00    +0.091 C 
ATOM      6  C   LIG A   1      -5.922  -1.005 126.940  0.00  0.00    +0.226 C 
ATOM      7  C   LIG A   1      -6.455  -2.270 127.652  0.00  0.00    +0.245 C 
ATOM      8  O   LIG A   1      -7.565  -2.916 127.004  0.00  0.00    -0.480 OA
ATOM      9  C   LIG A   1      -7.711  -2.735 125.659  0.00  0.00    +0.132 A 
ATOM     10  C   LIG A   1      -8.868  -3.286 125.107  0.00  0.00    +0.091 A 
ENDROOT
BRANCH   7  11
ATOM     11  C   LIG A   1      -6.851  -2.016 129.105  0.00  0.00    +0.003 A 
ATOM     12  C   LIG A   1      -7.675  -0.925 129.457  0.00  0.00    +0.056 A 
ATOM     13  C   LIG A   1      -8.057  -0.731 130.783  0.00  0.00    +0.162 A 
ATOM     14  C   LIG A   1      -7.621  -1.603 131.770  0.00  0.00    +0.201 A 
ATOM     15  C   LIG A   1      -6.798  -2.670 131.441  0.00  0.00    +0.162 A 
ATOM     16  C   LIG A   1      -6.407  -2.884 130.122  0.00  0.00    +0.056 A 
BRANCH  13  17
ATOM     17  O   LIG A   1      -8.870   0.302 131.162  0.00  0.00    -0.503 OA
ATOM     18  H   LIG A   1      -9.674  -0.079 131.557  0.00  0.00    +0.292 HD
ENDBRANCH  13  17
BRANCH  14  19
ATOM     19  O   LIG A   1      -8.003  -1.432 133.074  0.00  0.00    -0.501 OA
ATOM     20  H   LIG A   1      -8.713  -0.757 133.026  0.00  0.00    +0.292 HD
ENDBRANCH  14  19
BRANCH  15  21
ATOM     21  O   LIG A   1      -6.370  -3.525 132.417  0.00  0.00    -0.503 OA
ATOM     22  H   LIG A   1      -6.082  -2.938 133.145  0.00  0.00    +0.292 HD
ENDBRANCH  15  21
ENDBRANCH   7  11
BRANCH   1  23
ATOM     23  O   LIG A   1     -10.366  -3.528 123.305  0.00  0.00    -0.506 OA
ATOM     24  H   LIG A   1     -11.063  -3.344 123.956  0.00  0.00    +0.292 HD
ENDBRANCH   1  23
BRANCH   3  25
ATOM     25  O   LIG A   1      -6.300  -1.057 122.741  0.00  0.00    -0.506 OA
ATOM     26  H   LIG A   1      -6.642  -0.151 122.664  0.00  0.00    +0.292 HD
ENDBRANCH   3  25
BRANCH   6  27
ATOM     27  O   LIG A   1      -6.900   0.068 126.967  0.00  0.00    -0.453 OA
BRANCH  27  28
ATOM     28  C   LIG A   1      -6.392   1.317 126.821  0.00  0.00    +0.340 C 
ATOM     29  O   LIG A   1      -5.615   1.878 127.570  0.00  0.00    -0.245 OA
BRANCH  28  30
ATOM     30  C   LIG A   1      -6.978   1.972 125.629  0.00  0.00    +0.066 A 
ATOM     31  C   LIG A   1      -8.292   1.623 125.270  0.00  0.00    +0.064 A 
ATOM     32  C   LIG A   1      -8.863   2.196 124.141  0.00  0.00    +0.163 A 
ATOM     33  C   LIG A   1      -8.140   3.108 123.381  0.00  0.00    +0.201 A 
ATOM     34  C   LIG A   1      -6.851   3.469 123.754  0.00  0.00    +0.163 A 
ATOM     35  C   LIG A   1      -6.259   2.914 124.879  0.00  0.00    +0.064 A 
BRANCH  32  36
ATOM     36  O   LIG A   1     -10.132   1.892 123.735  0.00  0.00    -0.503 OA
ATOM     37  H   LIG A   1     -10.219   0.922 123.696  0.00  0.00    +0.292 HD
ENDBRANCH  32  36
BRANCH  33  38
ATOM     38  O   LIG A   1      -8.685   3.660 122.252  0.00  0.00    -0.501 OA
ATOM     39  H   LIG A   1      -9.370   3.015 121.977  0.00  0.00    +0.292 HD
ENDBRANCH  33  38
BRANCH  34  40
ATOM     40  O   LIG A   1      -6.150   4.372 123.008  0.00  0.00    -0.503 OA
ATOM     41  H   LIG A   1      -5.236   4.325 123.355  0.00  0.00    +0.292 HD
ENDBRANCH  34  40
ENDBRANCH  28  30
ENDBRANCH  27  28
ENDBRANCH   6  27
TORSDOF 12
ENDMDL
MODEL 4
REMARK VINA RESULT:      -7.8      3.114      6.124
REMARK  Name = NuBBE_242
REMARK  12 active torsions:
REMARK  status: ('A' for Active; 'I' for Inactive)
REMARK    1  A    between atoms: O_1  and  C_2
REMARK    2  A    between atoms: C_4  and  O_5
REMARK    3  A    between atoms: C_8  and  O_10
REMARK    4  A    between atoms: O_10  and  C_11
REMARK    5  A    between atoms: C_11  and  C_12
REMARK    6  A    between atoms: C_14  and  O_15
REMARK    7  A    between atoms: C_16  and  O_17
REMARK    8  A    between atoms: C_18  and  O_19
REMARK    9  A    between atoms: C_22  and  C_24
REMARK   10  A    between atoms: C_26  and  O_27
REMARK   11  A    between atoms: C_28  and  O_29
REMARK   12  A    between atoms: C_30  and  O_31
REMARK                            x       y       z     vdW  Elec       q    Type
REMARK                         _______ _______ _______ _____ _____    ______ ____
ROOT
ATOM      1  C   LIG A   1      -9.226  -3.108 123.710  0.00  0.00    +0.124 A 
ATOM      2  C   LIG A   1      -8.310  -2.478 122.875  0.00  0.00    +0.091 A 
ATOM      3  C   LIG A   1      -7.106  -2.028 123.416  0.00  0.00    +0.127 A 
ATOM      4  C   LIG A   1      -6.824  -2.165 124.781  0.00  0.00    +0.040 A 
ATOM      5  C   LIG A   1      -5.568  -1.604 125.387  0.00  0.00    +0.091 C 
ATOM      6  C   LIG A   1      -5.867  -1.139 126.813  0.00  0.00    +0.226 C 
ATOM      7  C   LIG A   1      -6.501  -2.320 127.584  0.00  0.00    +0.245 C 
ATOM      8  O   LIG A   1      -7.646  -2.919 126.954  0.00  0.00    -0.480 OA
ATOM      9  C   LIG A   1      -7.761  -2.802 125.598  0.00  0.00    +0.132 A 
ATOM     10  C   LIG A   1      -8.949  -3.297 125.057  0.00  0.00    +0.091 A 
ENDROOT
BRANCH   7  11
ATOM     11  C   LIG A   1      -6.895  -1.958 129.015  0.00  0.00    +0.003 A 
ATOM     12  C   LIG A   1      -7.634  -0.787 129.293  0.00  0.00    +0.056 A 
ATOM     13  C   LIG A   1      -8.017  -0.493 130.600  0.00  0.00    +0.162 A 
ATOM     14  C   LIG A   1      -7.667  -1.343 131.639  0.00  0.00    +0.201 A 
ATOM     15  C   LIG A   1      -6.927  -2.488 131.382  0.00  0.00    +0.162 A 
ATOM     16  C   LIG A   1      -6.537  -2.803 130.084  0.00  0.00    +0.056 A 
BRANCH  13  17
ATOM     17  O   LIG A   1      -8.750   0.620 130.910  0.00  0.00    -0.503 OA
ATOM     18  H   LIG A   1      -9.685   0.357 130.972  0.00  0.00    +0.292 HD
ENDBRANCH  13  17
BRANCH  14  19
ATOM     19  O   LIG A   1      -8.053  -1.071 132.926  0.00  0.00    -0.501 OA
ATOM     20  H   LIG A   1      -7.261  -0.658 133.328  0.00  0.00    +0.292 HD
ENDBRANCH  14  19
BRANCH  15  21
ATOM     21  O   LIG A   1      -6.584  -3.320 132.409  0.00  0.00    -0.503 OA
ATOM     22  H   LIG A   1      -6.733  -4.219 132.053  0.00  0.00    +0.292 HD
ENDBRANCH  15  21
ENDBRANCH   7  11
BRANCH   1  23
ATOM     23  O   LIG A   1     -10.438  -3.528 123.246  0.00  0.00    -0.506 OA
ATOM     24  H   LIG A   1     -10.656  -4.381 123.657  0.00  0.00    +0.292 HD
ENDBRANCH   1  23
BRANCH   3  25
ATOM     25  O   LIG A   1      -6.193  -1.396 122.618  0.00  0.00    -0.506 OA
ATOM     26  H   LIG A   1      -6.660  -0.913 121.916  0.00  0.00    +0.292 HD
ENDBRANCH   3  25
BRANCH   6  27
ATOM     27  O   LIG A   1      -6.763   0.002 126.765  0.00  0.00    -0.453 OA
BRANCH  27  28
ATOM     28  C   LIG A   1      -6.176   1.186 126.459  0.00  0.00    +0.340 C 
ATOM     29  O   LIG A   1      -5.276   1.731 127.070  0.00  0.00    -0.245 OA
BRANCH  28  30
ATOM     30  C   LIG A   1      -6.838   1.796 125.283  0.00  0.00    +0.066 A 
ATOM     31  C   LIG A   1      -6.156   2.824 124.608  0.00  0.00    +0.064 A 
ATOM     32  C   LIG A   1      -6.759   3.438 123.518  0.00  0.00    +0.163 A 
ATOM     33  C   LIG A   1      -8.022   3.032 123.100  0.00  0.00    +0.201 A 
ATOM     34  C   LIG A   1      -8.681   1.999 123.755  0.00  0.00    +0.163 A 
ATOM     35  C   LIG A   1      -8.099   1.367 124.844  0.00  0.00    +0.064 A 
BRANCH  32  36
ATOM     36  O   LIG A   1      -6.153   4.448 122.826  0.00  0.00    -0.503 OA
ATOM     37  H   LIG A   1      -6.302   5.283 123.306  0.00  0.00    +0.292 HD
ENDBRANCH  32  36
BRANCH  33  38
ATOM     38  O   LIG A   1      -8.635   3.649 122.042  0.00  0.00    -0.501 OA
ATOM     39  H   LIG A   1      -7.914   4.143 121.601  0.00  0.00    +0.292 HD
ENDBRANCH  33  38
BRANCH  34  40
ATOM     40  O   LIG A   1      -9.916   1.600 123.333  0.00  0.00    -0.503 OA
ATOM     41  H   LIG A   1     -10.307   1.143 124.106  0.00  0.00    +0.292 HD
ENDBRANCH  34  40
ENDBRANCH  28  30
ENDBRANCH  27  28
ENDBRANCH   6  27
TORSDOF 12
ENDMDL
MODEL 5
REMARK VINA RESULT:      -7.8      3.217      5.961
REMARK  Name = NuBBE_242
REMARK  12 active torsions:
REMARK  status: ('A' for Active; 'I' for Inactive)
REMARK    1  A    between atoms: O_1  and  C_2
REMARK    2  A    between atoms: C_4  and  O_5
REMARK    3  A    between atoms: C_8  and  O_10
REMARK    4  A    between atoms: O_10  and  C_11
REMARK    5  A    between atoms: C_11  and  C_12
REMARK    6  A    between atoms: C_14  and  O_15
REMARK    7  A    between atoms: C_16  and  O_17
REMARK    8  A    between atoms: C_18  and  O_19
REMARK    9  A    between atoms: C_22  and  C_24
REMARK   10  A    between atoms: C_26  and  O_27
REMARK   11  A    between atoms: C_28  and  O_29
REMARK   12  A    between atoms: C_30  and  O_31
REMARK                            x       y       z     vdW  Elec       q    Type
REMARK                         _______ _______ _______ _____ _____    ______ ____
ROOT
ATOM      1  C   LIG A   1      -9.204  -3.029 123.747  0.00  0.00    +0.124 A 
ATOM      2  C   LIG A   1      -8.350  -2.271 122.954  0.00  0.00    +0.091 A 
ATOM      3  C   LIG A   1      -7.179  -1.766 123.520  0.00  0.00    +0.127 A 
ATOM      4  C   LIG A   1      -6.873  -1.978 124.870  0.00  0.00    +0.040 A 
ATOM      5  C   LIG A   1      -5.657  -1.363 125.507  0.00  0.00    +0.091 C 
ATOM      6  C   LIG A   1      -5.976  -1.026 126.965  0.00  0.00    +0.226 C 
ATOM      7  C   LIG A   1      -6.506  -2.306 127.653  0.00  0.00    +0.245 C 
ATOM      8  O   LIG A   1      -7.608  -2.947 126.987  0.00  0.00    -0.480 OA
ATOM      9  C   LIG A   1      -7.747  -2.744 125.644  0.00  0.00    +0.132 A 
ATOM     10  C   LIG A   1      -8.898  -3.292 125.076  0.00  0.00    +0.091 A 
ENDROOT
BRANCH   7  11
ATOM     11  C   LIG A   1      -6.911  -2.080 129.107  0.00  0.00    +0.003 A 
ATOM     12  C   LIG A   1      -6.462  -2.942 130.132  0.00  0.00    +0.056 A 
ATOM     13  C   LIG A   1      -6.811  -2.699 131.459  0.00  0.00    +0.162 A 
ATOM     14  C   LIG A   1      -7.612  -1.613 131.782  0.00  0.00    +0.201 A 
ATOM     15  C   LIG A   1      -8.075  -0.768 130.785  0.00  0.00    +0.162 A 
ATOM     16  C   LIG A   1      -7.735  -0.991 129.453  0.00  0.00    +0.056 A 
BRANCH  13  17
ATOM     17  O   LIG A   1      -6.380  -3.498 132.482  0.00  0.00    -0.503 OA
ATOM     18  H   LIG A   1      -5.483  -3.210 132.730  0.00  0.00    +0.292 HD
ENDBRANCH  13  17
BRANCH  14  19
ATOM     19  O   LIG A   1      -7.948  -1.355 133.085  0.00  0.00    -0.501 OA
ATOM     20  H   LIG A   1      -8.741  -0.783 133.017  0.00  0.00    +0.292 HD
ENDBRANCH  14  19
BRANCH  15  21
ATOM     21  O   LIG A   1      -8.865   0.298 131.108  0.00  0.00    -0.503 OA
ATOM     22  H   LIG A   1      -8.457   0.665 131.919  0.00  0.00    +0.292 HD
ENDBRANCH  15  21
ENDBRANCH   7  11
BRANCH   1  23
ATOM     23  O   LIG A   1     -10.385  -3.510 123.261  0.00  0.00    -0.506 OA
ATOM     24  H   LIG A   1     -10.801  -2.827 122.709  0.00  0.00    +0.292 HD
ENDBRANCH   1  23
BRANCH   3  25
ATOM     25  O   LIG A   1      -6.328  -1.008 122.764  0.00  0.00    -0.506 OA
ATOM     26  H   LIG A   1      -6.844  -0.381 122.231  0.00  0.00    +0.292 HD
ENDBRANCH   3  25
BRANCH   6  27
ATOM     27  O   LIG A   1      -6.960   0.040 127.005  0.00  0.00    -0.453 OA
BRANCH  27  28
ATOM     28  C   LIG A   1      -6.458   1.295 126.878  0.00  0.00    +0.340 C 
ATOM     29  O   LIG A   1      -5.699   1.855 127.645  0.00  0.00    -0.245 OA
BRANCH  28  30
ATOM     30  C   LIG A   1      -7.026   1.953 125.679  0.00  0.00    +0.066 A 
ATOM     31  C   LIG A   1      -8.327   1.590 125.288  0.00  0.00    +0.064 A 
ATOM     32  C   LIG A   1      -8.881   2.168 124.152  0.00  0.00    +0.163 A 
ATOM     33  C   LIG A   1      -8.154   3.097 123.418  0.00  0.00    +0.201 A 
ATOM     34  C   LIG A   1      -6.879   3.472 123.823  0.00  0.00    +0.163 A 
ATOM     35  C   LIG A   1      -6.304   2.913 124.956  0.00  0.00    +0.064 A 
BRANCH  32  36
ATOM     36  O   LIG A   1     -10.136   1.850 123.715  0.00  0.00    -0.503 OA
ATOM     37  H   LIG A   1     -10.134   0.921 123.422  0.00  0.00    +0.292 HD
ENDBRANCH  32  36
BRANCH  33  38
ATOM     38  O   LIG A   1      -8.682   3.653 122.283  0.00  0.00    -0.501 OA
ATOM     39  H   LIG A   1      -7.975   4.247 121.955  0.00  0.00    +0.292 HD
ENDBRANCH  33  38
BRANCH  34  40
ATOM     40  O   LIG A   1      -6.174   4.393 123.102  0.00  0.00    -0.503 OA
ATOM     41  H   LIG A   1      -6.217   4.070 122.179  0.00  0.00    +0.292 HD
ENDBRANCH  34  40
ENDBRANCH  28  30
ENDBRANCH  27  28
ENDBRANCH   6  27
TORSDOF 12
ENDMDL
MODEL 6
REMARK VINA RESULT:      -7.6      5.053      9.017
REMARK  Name = NuBBE_242
REMARK  12 active torsions:
REMARK  status: ('A' for Active; 'I' for Inactive)
REMARK    1  A    between atoms: O_1  and  C_2
REMARK    2  A    between atoms: C_4  and  O_5
REMARK    3  A    between atoms: C_8  and  O_10
REMARK    4  A    between atoms: O_10  and  C_11
REMARK    5  A    between atoms: C_11  and  C_12
REMARK    6  A    between atoms: C_14  and  O_15
REMARK    7  A    between atoms: C_16  and  O_17
REMARK    8  A    between atoms: C_18  and  O_19
REMARK    9  A    between atoms: C_22  and  C_24
REMARK   10  A    between atoms: C_26  and  O_27
REMARK   11  A    between atoms: C_28  and  O_29
REMARK   12  A    between atoms: C_30  and  O_31
REMARK                            x       y       z     vdW  Elec       q    Type
REMARK                         _______ _______ _______ _____ _____    ______ ____
ROOT
ATOM      1  C   LIG A   1      -5.935   4.541 124.991  0.00  0.00    +0.124 A 
ATOM      2  C   LIG A   1      -4.885   3.964 125.695  0.00  0.00    +0.091 A 
ATOM      3  C   LIG A   1      -5.088   3.600 127.027  0.00  0.00    +0.127 A 
ATOM      4  C   LIG A   1      -6.309   3.840 127.669  0.00  0.00    +0.040 A 
ATOM      5  C   LIG A   1      -6.506   3.532 129.127  0.00  0.00    +0.091 C 
ATOM      6  C   LIG A   1      -7.459   4.566 129.731  0.00  0.00    +0.226 C 
ATOM      7  C   LIG A   1      -8.750   4.588 128.881  0.00  0.00    +0.245 C 
ATOM      8  O   LIG A   1      -8.552   4.787 127.470  0.00  0.00    -0.480 OA
ATOM      9  C   LIG A   1      -7.348   4.421 126.938  0.00  0.00    +0.132 A 
ATOM     10  C   LIG A   1      -7.170   4.746 125.593  0.00  0.00    +0.091 A 
ENDROOT
BRANCH   7  11
ATOM     11  C   LIG A   1      -9.763   5.627 129.357  0.00  0.00    +0.003 A 
ATOM     12  C   LIG A   1     -10.005   6.803 128.614  0.00  0.00    +0.056 A 
ATOM     13  C   LIG A   1     -10.960   7.722 129.044  0.00  0.00    +0.162 A 
ATOM     14  C   LIG A   1     -11.673   7.493 130.212  0.00  0.00    +0.201 A 
ATOM     15  C   LIG A   1     -11.434   6.350 130.961  0.00  0.00    +0.162 A 
ATOM     16  C   LIG A   1     -10.487   5.418 130.547  0.00  0.00    +0.056 A 
BRANCH  13  17
ATOM     17  O   LIG A   1     -11.239   8.863 128.343  0.00  0.00    -0.503 OA
ATOM     18  H   LIG A   1     -10.872   8.762 127.447  0.00  0.00    +0.292 HD
ENDBRANCH  13  17
BRANCH  14  19
ATOM     19  O   LIG A   1     -12.625   8.382 130.636  0.00  0.00    -0.501 OA
ATOM     20  H   LIG A   1     -13.420   8.144 130.114  0.00  0.00    +0.292 HD
ENDBRANCH  14  19
BRANCH  15  21
ATOM     21  O   LIG A   1     -12.137   6.131 132.111  0.00  0.00    -0.503 OA
ATOM     22  H   LIG A   1     -12.718   6.914 132.193  0.00  0.00    +0.292 HD
ENDBRANCH  15  21
ENDBRANCH   7  11
BRANCH   1  23
ATOM     23  O   LIG A   1      -5.781   4.958 123.701  0.00  0.00    -0.506 OA
ATOM     24  H   LIG A   1      -4.988   5.517 123.642  0.00  0.00    +0.292 HD
ENDBRANCH   1  23
BRANCH   3  25
ATOM     25  O   LIG A   1      -4.068   3.041 127.744  0.00  0.00    -0.506 OA
ATOM     26  H   LIG A   1      -3.409   2.671 127.133  0.00  0.00    +0.292 HD
ENDBRANCH   3  25
BRANCH   6  27
ATOM     27  O   LIG A   1      -6.811   5.864 129.740  0.00  0.00    -0.453 OA
BRANCH  27  28
ATOM     28  C   LIG A   1      -6.480   6.337 130.969  0.00  0.00    +0.340 C 
ATOM     29  O   LIG A   1      -7.248   6.691 131.842  0.00  0.00    -0.245 OA
BRANCH  28  30
ATOM     30  C   LIG A   1      -5.008   6.440 131.097  0.00  0.00    +0.066 A 
ATOM     31  C   LIG A   1      -4.243   6.385 129.919  0.00  0.00    +0.064 A 
ATOM     32  C   LIG A   1      -2.858   6.451 130.005  0.00  0.00    +0.163 A 
ATOM     33  C   LIG A   1      -2.241   6.575 131.244  0.00  0.00    +0.201 A 
ATOM     34  C   LIG A   1      -3.003   6.654 132.404  0.00  0.00    +0.163 A 
ATOM     35  C   LIG A   1      -4.388   6.594 132.345  0.00  0.00    +0.064 A 
BRANCH  32  36
ATOM     36  O   LIG A   1      -2.058   6.393 128.898  0.00  0.00    -0.503 OA
ATOM     37  H   LIG A   1      -1.251   5.898 129.126  0.00  0.00    +0.292 HD
ENDBRANCH  32  36
BRANCH  33  38
ATOM     38  O   LIG A   1      -0.876   6.614 131.341  0.00  0.00    -0.501 OA
ATOM     39  H   LIG A   1      -0.585   5.747 130.990  0.00  0.00    +0.292 HD
ENDBRANCH  33  38
BRANCH  34  40
ATOM     40  O   LIG A   1      -2.391   6.785 133.617  0.00  0.00    -0.503 OA
ATOM     41  H   LIG A   1      -1.574   6.252 133.542  0.00  0.00    +0.292 HD
ENDBRANCH  34  40
ENDBRANCH  28  30
ENDBRANCH  27  28
ENDBRANCH   6  27
TORSDOF 12
ENDMDL
MODEL 7
REMARK VINA RESULT:      -7.6      4.940      7.379
REMARK  Name = NuBBE_242
REMARK  12 active torsions:
REMARK  status: ('A' for Active; 'I' for Inactive)
REMARK    1  A    between atoms: O_1  and  C_2
REMARK    2  A    between atoms: C_4  and  O_5
REMARK    3  A    between atoms: C_8  and  O_10
REMARK    4  A    between atoms: O_10  and  C_11
REMARK    5  A    between atoms: C_11  and  C_12
REMARK    6  A    between atoms: C_14  and  O_15
REMARK    7  A    between atoms: C_16  and  O_17
REMARK    8  A    between atoms: C_18  and  O_19
REMARK    9  A    between atoms: C_22  and  C_24
REMARK   10  A    between atoms: C_26  and  O_27
REMARK   11  A    between atoms: C_28  and  O_29
REMARK   12  A    between atoms: C_30  and  O_31
REMARK                            x       y       z     vdW  Elec       q    Type
REMARK                         _______ _______ _______ _____ _____    ______ ____
ROOT
ATOM      1  C   LIG A   1      -4.229   6.637 129.983  0.00  0.00    +0.124 A 
ATOM      2  C   LIG A   1      -4.706   6.571 131.287  0.00  0.00    +0.091 A 
ATOM      3  C   LIG A   1      -5.570   5.532 131.635  0.00  0.00    +0.127 A 
ATOM      4  C   LIG A   1      -5.990   4.587 130.691  0.00  0.00    +0.040 A 
ATOM      5  C   LIG A   1      -6.989   3.518 131.038  0.00  0.00    +0.091 C 
ATOM      6  C   LIG A   1      -7.851   3.224 129.809  0.00  0.00    +0.226 C 
ATOM      7  C   LIG A   1      -6.912   2.892 128.626  0.00  0.00    +0.245 C 
ATOM      8  O   LIG A   1      -5.894   3.872 128.358  0.00  0.00    -0.480 OA
ATOM      9  C   LIG A   1      -5.495   4.675 129.388  0.00  0.00    +0.132 A 
ATOM     10  C   LIG A   1      -4.595   5.684 129.041  0.00  0.00    +0.091 A 
ENDROOT
BRANCH   7  11
ATOM     11  C   LIG A   1      -7.661   2.632 127.321  0.00  0.00    +0.003 A 
ATOM     12  C   LIG A   1      -8.488   1.497 127.168  0.00  0.00    +0.056 A 
ATOM     13  C   LIG A   1      -9.193   1.296 125.984  0.00  0.00    +0.162 A 
ATOM     14  C   LIG A   1      -9.080   2.204 124.941  0.00  0.00    +0.201 A 
ATOM     15  C   LIG A   1      -8.259   3.314 125.071  0.00  0.00    +0.162 A 
ATOM     16  C   LIG A   1      -7.548   3.536 126.247  0.00  0.00    +0.056 A 
BRANCH  13  17
ATOM     17  O   LIG A   1     -10.020   0.221 125.803  0.00  0.00    -0.503 OA
ATOM     18  H   LIG A   1      -9.463  -0.564 125.657  0.00  0.00    +0.292 HD
ENDBRANCH  13  17
BRANCH  14  19
ATOM     19  O   LIG A   1      -9.782   2.025 123.778  0.00  0.00    -0.501 OA
ATOM     20  H   LIG A   1      -9.722   2.894 123.328  0.00  0.00    +0.292 HD
ENDBRANCH  14  19
BRANCH  15  21
ATOM     21  O   LIG A   1      -8.150   4.204 124.040  0.00  0.00    -0.503 OA
ATOM     22  H   LIG A   1      -7.219   4.127 123.751  0.00  0.00    +0.292 HD
ENDBRANCH  15  21
ENDBRANCH   7  11
BRANCH   1  23
ATOM     23  O   LIG A   1      -3.419   7.655 129.573  0.00  0.00    -0.506 OA
ATOM     24  H   LIG A   1      -2.524   7.505 129.919  0.00  0.00    +0.292 HD
ENDBRANCH   1  23
BRANCH   3  25
ATOM     25  O   LIG A   1      -6.061   5.452 132.908  0.00  0.00    -0.506 OA
ATOM     26  H   LIG A   1      -7.032   5.425 132.877  0.00  0.00    +0.292 HD
ENDBRANCH   3  25
BRANCH   6  27
ATOM     27  O   LIG A   1      -8.676   4.383 129.517  0.00  0.00    -0.453 OA
BRANCH  27  28
ATOM     28  C   LIG A   1      -9.971   4.285 129.914  0.00  0.00    +0.340 C 
ATOM     29  O   LIG A   1     -10.566   3.266 130.207  0.00  0.00    -0.245 OA
BRANCH  28  30
ATOM     30  C   LIG A   1     -10.618   5.617 129.877  0.00  0.00    +0.066 A 
ATOM     31  C   LIG A   1     -11.647   5.869 130.802  0.00  0.00    +0.064 A 
ATOM     32  C   LIG A   1     -12.295   7.098 130.778  0.00  0.00    +0.163 A 
ATOM     33  C   LIG A   1     -11.923   8.064 129.851  0.00  0.00    +0.201 A 
ATOM     34  C   LIG A   1     -10.888   7.819 128.956  0.00  0.00    +0.163 A 
ATOM     35  C   LIG A   1     -10.222   6.602 128.962  0.00  0.00    +0.064 A 
BRANCH  32  36
ATOM     36  O   LIG A   1     -13.308   7.401 131.643  0.00  0.00    -0.503 OA
ATOM     37  H   LIG A   1     -13.285   8.359 131.821  0.00  0.00    +0.292 HD
ENDBRANCH  32  36
BRANCH  33  38
ATOM     38  O   LIG A   1     -12.573   9.269 129.803  0.00  0.00    -0.501 OA
ATOM     39  H   LIG A   1     -12.987   9.354 130.686  0.00  0.00    +0.292 HD
ENDBRANCH  33  38
BRANCH  34  40
ATOM     40  O   LIG A   1     -10.522   8.776 128.054  0.00  0.00    -0.503 OA
ATOM     41  H   LIG A   1     -11.158   8.678 127.316  0.00  0.00    +0.292 HD
ENDBRANCH  34  40
ENDBRANCH  28  30
ENDBRANCH  27  28
ENDBRANCH   6  27
TORSDOF 12
ENDMDL
MODEL 8
REMARK VINA RESULT:      -7.6      3.084      4.735
REMARK  Name = NuBBE_242
REMARK  12 active torsions:
REMARK  status: ('A' for Active; 'I' for Inactive)
REMARK    1  A    between atoms: O_1  and  C_2
REMARK    2  A    between atoms: C_4  and  O_5
REMARK    3  A    between atoms: C_8  and  O_10
REMARK    4  A    between atoms: O_10  and  C_11
REMARK    5  A    between atoms: C_11  and  C_12
REMARK    6  A    between atoms: C_14  and  O_15
REMARK    7  A    between atoms: C_16  and  O_17
REMARK    8  A    between atoms: C_18  and  O_19
REMARK    9  A    between atoms: C_22  and  C_24
REMARK   10  A    between atoms: C_26  and  O_27
REMARK   11  A    between atoms: C_28  and  O_29
REMARK   12  A    between atoms: C_30  and  O_31
REMARK                            x       y       z     vdW  Elec       q    Type
REMARK                         _______ _______ _______ _____ _____    ______ ____
ROOT
ATOM      1  C   LIG A   1      -3.633  -1.934 129.962  0.00  0.00    +0.124 A 
ATOM      2  C   LIG A   1      -4.269  -1.225 130.974  0.00  0.00    +0.091 A 
ATOM      3  C   LIG A   1      -5.647  -1.025 130.891  0.00  0.00    +0.127 A 
ATOM      4  C   LIG A   1      -6.386  -1.490 129.796  0.00  0.00    +0.040 A 
ATOM      5  C   LIG A   1      -7.855  -1.202 129.657  0.00  0.00    +0.091 C 
ATOM      6  C   LIG A   1      -8.193  -1.040 128.174  0.00  0.00    +0.226 C 
ATOM      7  C   LIG A   1      -7.694  -2.297 127.424  0.00  0.00    +0.245 C 
ATOM      8  O   LIG A   1      -6.310  -2.626 127.636  0.00  0.00    -0.480 OA
ATOM      9  C   LIG A   1      -5.723  -2.200 128.792  0.00  0.00    +0.132 A 
ATOM     10  C   LIG A   1      -4.352  -2.445 128.889  0.00  0.00    +0.091 A 
ENDROOT
BRANCH   7  11
ATOM     11  C   LIG A   1      -7.928  -2.227 125.917  0.00  0.00    +0.003 A 
ATOM     12  C   LIG A   1      -7.047  -1.514 125.074  0.00  0.00    +0.056 A 
ATOM     13  C   LIG A   1      -7.256  -1.493 123.696  0.00  0.00    +0.162 A 
ATOM     14  C   LIG A   1      -8.337  -2.164 123.143  0.00  0.00    +0.201 A 
ATOM     15  C   LIG A   1      -9.219  -2.855 123.960  0.00  0.00    +0.162 A 
ATOM     16  C   LIG A   1      -9.027  -2.891 125.339  0.00  0.00    +0.056 A 
BRANCH  13  17
ATOM     17  O   LIG A   1      -6.415  -0.831 122.844  0.00  0.00    -0.503 OA
ATOM     18  H   LIG A   1      -5.641  -0.535 123.355  0.00  0.00    +0.292 HD
ENDBRANCH  13  17
BRANCH  14  19
ATOM     19  O   LIG A   1      -8.542  -2.164 121.789  0.00  0.00    -0.501 OA
ATOM     20  H   LIG A   1      -8.182  -1.301 121.495  0.00  0.00    +0.292 HD
ENDBRANCH  14  19
BRANCH  15  21
ATOM     21  O   LIG A   1     -10.283  -3.512 123.411  0.00  0.00    -0.503 OA
ATOM     22  H   LIG A   1      -9.948  -4.415 123.239  0.00  0.00    +0.292 HD
ENDBRANCH  15  21
ENDBRANCH   7  11
BRANCH   1  23
ATOM     23  O   LIG A   1      -2.282  -2.121 129.966  0.00  0.00    -0.506 OA
ATOM     24  H   LIG A   1      -2.087  -3.030 129.684  0.00  0.00    +0.292 HD
ENDBRANCH   1  23
BRANCH   3  25
ATOM     25  O   LIG A   1      -6.295  -0.322 131.869  0.00  0.00    -0.506 OA
ATOM     26  H   LIG A   1      -7.144   0.001 131.524  0.00  0.00    +0.292 HD
ENDBRANCH   3  25
BRANCH   6  27
ATOM     27  O   LIG A   1      -7.559   0.164 127.668  0.00  0.00    -0.453 OA
BRANCH  27  28
ATOM     28  C   LIG A   1      -8.366   1.251 127.585  0.00  0.00    +0.340 C 
ATOM     29  O   LIG A   1      -8.911   1.824 128.508  0.00  0.00    -0.245 OA
BRANCH  28  30
ATOM     30  C   LIG A   1      -8.568   1.631 126.167  0.00  0.00    +0.066 A 
ATOM     31  C   LIG A   1      -9.572   0.959 125.447  0.00  0.00    +0.064 A 
ATOM     32  C   LIG A   1      -9.770   1.270 124.108  0.00  0.00    +0.163 A 
ATOM     33  C   LIG A   1      -8.985   2.239 123.493  0.00  0.00    +0.201 A 
ATOM     34  C   LIG A   1      -8.012   2.918 124.216  0.00  0.00    +0.163 A 
ATOM     35  C   LIG A   1      -7.796   2.629 125.556  0.00  0.00    +0.064 A 
BRANCH  32  36
ATOM     36  O   LIG A   1     -10.722   0.647 123.351  0.00  0.00    -0.503 OA
ATOM     37  H   LIG A   1     -11.066   1.286 122.701  0.00  0.00    +0.292 HD
ENDBRANCH  32  36
BRANCH  33  38
ATOM     38  O   LIG A   1      -9.156   2.534 122.167  0.00  0.00    -0.501 OA
ATOM     39  H   LIG A   1      -8.509   1.960 121.707  0.00  0.00    +0.292 HD
ENDBRANCH  33  38
BRANCH  34  40
ATOM     40  O   LIG A   1      -7.251   3.875 123.609  0.00  0.00    -0.503 OA
ATOM     41  H   LIG A   1      -7.495   3.821 122.662  0.00  0.00    +0.292 HD
ENDBRANCH  34  40
ENDBRANCH  28  30
ENDBRANCH  27  28
ENDBRANCH   6  27
TORSDOF 12
ENDMDL
MODEL 9
REMARK VINA RESULT:      -7.6      3.085      6.074
REMARK  Name = NuBBE_242
REMARK  12 active torsions:
REMARK  status: ('A' for Active; 'I' for Inactive)
REMARK    1  A    between atoms: O_1  and  C_2
REMARK    2  A    between atoms: C_4  and  O_5
REMARK    3  A    between atoms: C_8  and  O_10
REMARK    4  A    between atoms: O_10  and  C_11
REMARK    5  A    between atoms: C_11  and  C_12
REMARK    6  A    between atoms: C_14  and  O_15
REMARK    7  A    between atoms: C_16  and  O_17
REMARK    8  A    between atoms: C_18  and  O_19
REMARK    9  A    between atoms: C_22  and  C_24
REMARK   10  A    between atoms: C_26  and  O_27
REMARK   11  A    between atoms: C_28  and  O_29
REMARK   12  A    between atoms: C_30  and  O_31
REMARK                            x       y       z     vdW  Elec       q    Type
REMARK                         _______ _______ _______ _____ _____    ______ ____
ROOT
ATOM      1  C   LIG A   1      -5.951   4.859 125.525  0.00  0.00    +0.124 A 
ATOM      2  C   LIG A   1      -5.394   4.862 126.799  0.00  0.00    +0.091 A 
ATOM      3  C   LIG A   1      -5.067   3.643 127.393  0.00  0.00    +0.127 A 
ATOM      4  C   LIG A   1      -5.322   2.426 126.748  0.00  0.00    +0.040 A 
ATOM      5  C   LIG A   1      -5.053   1.107 127.417  0.00  0.00    +0.091 C 
ATOM      6  C   LIG A   1      -6.102   0.092 126.958  0.00  0.00    +0.226 C 
ATOM      7  C   LIG A   1      -6.099   0.060 125.412  0.00  0.00    +0.245 C 
ATOM      8  O   LIG A   1      -6.260   1.338 124.772  0.00  0.00    -0.480 OA
ATOM      9  C   LIG A   1      -5.882   2.451 125.468  0.00  0.00    +0.132 A 
ATOM     10  C   LIG A   1      -6.170   3.667 124.847  0.00  0.00    +0.091 A 
ENDROOT
BRANCH   7  11
ATOM     11  C   LIG A   1      -7.149  -0.884 124.831  0.00  0.00    +0.003 A 
ATOM     12  C   LIG A   1      -7.153  -2.259 125.155  0.00  0.00    +0.056 A 
ATOM     13  C   LIG A   1      -8.141  -3.098 124.645  0.00  0.00    +0.162 A 
ATOM     14  C   LIG A   1      -9.124  -2.592 123.807  0.00  0.00    +0.201 A 
ATOM     15  C   LIG A   1      -9.123  -1.247 123.466  0.00  0.00    +0.162 A 
ATOM     16  C   LIG A   1      -8.146  -0.390 123.968  0.00  0.00    +0.056 A 
BRANCH  13  17
ATOM     17  O   LIG A   1      -8.192  -4.431 124.951  0.00  0.00    -0.503 OA
ATOM     18  H   LIG A   1      -8.866  -4.555 125.643  0.00  0.00    +0.292 HD
ENDBRANCH  13  17
BRANCH  14  19
ATOM     19  O   LIG A   1     -10.110  -3.405 123.313  0.00  0.00    -0.501 OA
ATOM     20  H   LIG A   1     -10.135  -3.192 122.357  0.00  0.00    +0.292 HD
ENDBRANCH  14  19
BRANCH  15  21
ATOM     21  O   LIG A   1     -10.091  -0.754 122.639  0.00  0.00    -0.503 OA
ATOM     22  H   LIG A   1      -9.865  -1.117 121.759  0.00  0.00    +0.292 HD
ENDBRANCH  15  21
ENDBRANCH   7  11
BRANCH   1  23
ATOM     23  O   LIG A   1      -6.333   6.016 124.914  0.00  0.00    -0.506 OA
ATOM     24  H   LIG A   1      -6.205   6.757 125.531  0.00  0.00    +0.292 HD
ENDBRANCH   1  23
BRANCH   3  25
ATOM     25  O   LIG A   1      -4.528   3.619 128.649  0.00  0.00    -0.506 OA
ATOM     26  H   LIG A   1      -4.922   4.330 129.182  0.00  0.00    +0.292 HD
ENDBRANCH   3  25
BRANCH   6  27
ATOM     27  O   LIG A   1      -7.401   0.480 127.475  0.00  0.00    -0.453 OA
BRANCH  27  28
ATOM     28  C   LIG A   1      -7.602   0.215 128.791  0.00  0.00    +0.340 C 
ATOM     29  O   LIG A   1      -7.340  -0.820 129.372  0.00  0.00    -0.245 OA
BRANCH  28  30
ATOM     30  C   LIG A   1      -8.274   1.361 129.447  0.00  0.00    +0.066 A 
ATOM     31  C   LIG A   1      -8.809   1.158 130.731  0.00  0.00    +0.064 A 
ATOM     32  C   LIG A   1      -9.470   2.203 131.365  0.00  0.00    +0.163 A 
ATOM     33  C   LIG A   1      -9.593   3.435 130.732  0.00  0.00    +0.201 A 
ATOM     34  C   LIG A   1      -9.041   3.638 129.473  0.00  0.00    +0.163 A 
ATOM     35  C   LIG A   1      -8.372   2.612 128.821  0.00  0.00    +0.064 A 
BRANCH  32  36
ATOM     36  O   LIG A   1     -10.019   2.067 132.609  0.00  0.00    -0.503 OA
ATOM     37  H   LIG A   1     -10.289   1.138 132.726  0.00  0.00    +0.292 HD
ENDBRANCH  32  36
BRANCH  33  38
ATOM     38  O   LIG A   1     -10.265   4.463 131.338  0.00  0.00    -0.501 OA
ATOM     39  H   LIG A   1     -11.106   4.527 130.840  0.00  0.00    +0.292 HD
ENDBRANCH  33  38
BRANCH  34  40
ATOM     40  O   LIG A   1      -9.158   4.853 128.862  0.00  0.00    -0.503 OA
ATOM     41  H   LIG A   1      -9.855   4.725 128.187  0.00  0.00    +0.292 HD
ENDBRANCH  34  40
ENDBRANCH  28  30
ENDBRANCH  27  28
ENDBRANCH   6  27
TORSDOF 12
ENDMDL
