MODEL 1
REMARK VINA RESULT:      -9.5      0.000      0.000
REMARK  Name = NuBBE_94
REMARK  10 active torsions:
REMARK  status: ('A' for Active; 'I' for Inactive)
REMARK    1  A    between atoms: C_6  and  C_7
REMARK    2  A    between atoms: C_9  and  C_10
REMARK    3  A    between atoms: C_15  and  C_16
REMARK    4  A    between atoms: C_19  and  C_20
REMARK    5  A    between atoms: C_21  and  C_22
REMARK    6  A    between atoms: C_25  and  C_26
REMARK    7  A    between atoms: C_30  and  C_31
REMARK    8  A    between atoms: C_30  and  C_32
REMARK    9  A    between atoms: C_32  and  O_33
REMARK   10  A    between atoms: O_33  and  C_34
REMARK                            x       y       z     vdW  Elec       q    Type
REMARK                         _______ _______ _______ _____ _____    ______ ____
ROOT
ATOM      1  O   LIG A   1      -7.101  -3.583 130.899  0.00  0.00    -0.284 OA
ATOM      2  C   LIG A   1      -7.491  -2.839 130.016  0.00  0.00    +0.226 C 
ATOM      3  C   LIG A   1      -8.277  -3.352 128.821  0.00  0.00    +0.233 C 
ATOM      4  C   LIG A   1      -8.296  -2.499 127.621  0.00  0.00    +0.035 A 
ATOM      5  C   LIG A   1      -8.828  -2.999 126.427  0.00  0.00    +0.032 A 
ATOM      6  C   LIG A   1      -8.798  -2.217 125.269  0.00  0.00    +0.070 A 
ATOM      7  C   LIG A   1      -8.167  -0.960 125.293  0.00  0.00    +0.077 A 
ATOM      8  C   LIG A   1      -7.618  -0.469 126.503  0.00  0.00    +0.002 A 
ATOM      9  C   LIG A   1      -6.836   0.780 126.559  0.00  0.00    +0.010 C 
ATOM     10  C   LIG A   1      -6.651   1.479 127.701  0.00  0.00    -0.052 C 
ATOM     11  C   LIG A   1      -7.321   0.973 129.008  0.00  0.00    +0.015 C 
ATOM     12  C   LIG A   1      -8.794   1.472 129.060  0.00  0.00    +0.021 C 
ATOM     13  C   LIG A   1      -6.627   1.482 130.302  0.00  0.00    +0.016 C 
ATOM     14  C   LIG A   1      -6.031   2.889 130.232  0.00  0.00    +0.009 C 
ATOM     15  C   LIG A   1      -5.073   3.073 129.022  0.00  0.00    -0.020 C 
ATOM     16  C   LIG A   1      -3.950   2.009 129.189  0.00  0.00    +0.012 C 
ATOM     17  C   LIG A   1      -5.907   2.853 127.688  0.00  0.00    -0.004 C 
ATOM     18  C   LIG A   1      -7.042   3.906 127.476  0.00  0.00    +0.016 C 
ATOM     19  C   LIG A   1      -4.920   3.040 126.484  0.00  0.00    +0.012 C 
ATOM     20  C   LIG A   1      -4.198   4.399 126.449  0.00  0.00    +0.008 C 
ATOM     21  C   LIG A   1      -3.531   4.841 127.774  0.00  0.00    -0.029 C 
ATOM     22  C   LIG A   1      -2.114   4.211 127.837  0.00  0.00    +0.011 C 
ATOM     23  C   LIG A   1      -4.461   4.536 129.002  0.00  0.00    +0.003 C 
ATOM     24  C   LIG A   1      -3.821   5.022 130.328  0.00  0.00    +0.022 C 
ATOM     25  C   LIG A   1      -3.421   6.518 130.313  0.00  0.00    +0.065 C 
ATOM     26  C   LIG A   1      -2.435   6.791 131.475  0.00  0.00    +0.023 C 
ATOM     27  C   LIG A   1      -2.715   6.946 129.007  0.00  0.00    +0.018 C 
ATOM     28  C   LIG A   1      -3.337   6.383 127.728  0.00  0.00    +0.008 C 
ATOM     29  C   LIG A   1      -7.760  -1.209 127.691  0.00  0.00    -0.002 A 
ATOM     30  C   LIG A   1      -7.412  -0.588 128.995  0.00  0.00    -0.025 C 
ATOM     31  C   LIG A   1      -7.256  -1.381 130.072  0.00  0.00    +0.060 C 
ATOM     32  O   LIG A   1      -8.853  -4.428 128.848  0.00  0.00    -0.283 OA
ENDROOT
BRANCH   6  33
ATOM     33  C   LIG A   1      -9.416  -2.729 124.080  0.00  0.00    +0.101 C 
ATOM     34  N   LIG A   1      -9.917  -3.161 123.124  0.00  0.00    -0.191 NA
ENDBRANCH   6  33
BRANCH   7  35
ATOM     35  C   LIG A   1      -8.122  -0.165 124.097  0.00  0.00    +0.101 C 
ATOM     36  N   LIG A   1      -8.069   0.483 123.134  0.00  0.00    -0.191 NA
ENDBRANCH   7  35
BRANCH  25  37
ATOM     37  C   LIG A   1      -4.678   7.388 130.527  0.00  0.00    +0.313 C 
ATOM     38  O   LIG A   1      -4.921   8.429 129.931  0.00  0.00    -0.250 OA
BRANCH  37  39
ATOM     39  O   LIG A   1      -5.485   6.845 131.479  0.00  0.00    -0.468 OA
ATOM     40  C   LIG A   1      -6.885   6.870 131.201  0.00  0.00    +0.280 C 
ENDBRANCH  37  39
ENDBRANCH  25  37
TORSDOF 4
ENDMDL
MODEL 2
REMARK VINA RESULT:      -9.0      3.485      9.002
REMARK  Name = NuBBE_94
REMARK  10 active torsions:
REMARK  status: ('A' for Active; 'I' for Inactive)
REMARK    1  A    between atoms: C_6  and  C_7
REMARK    2  A    between atoms: C_9  and  C_10
REMARK    3  A    between atoms: C_15  and  C_16
REMARK    4  A    between atoms: C_19  and  C_20
REMARK    5  A    between atoms: C_21  and  C_22
REMARK    6  A    between atoms: C_25  and  C_26
REMARK    7  A    between atoms: C_30  and  C_31
REMARK    8  A    between atoms: C_30  and  C_32
REMARK    9  A    between atoms: C_32  and  O_33
REMARK   10  A    between atoms: O_33  and  C_34
REMARK                            x       y       z     vdW  Elec       q    Type
REMARK                         _______ _______ _______ _____ _____    ______ ____
ROOT
ATOM      1  O   LIG A   1      -2.524   6.763 128.276  0.00  0.00    -0.284 OA
ATOM      2  C   LIG A   1      -3.557   6.324 128.752  0.00  0.00    +0.226 C 
ATOM      3  C   LIG A   1      -4.049   6.740 130.128  0.00  0.00    +0.233 C 
ATOM      4  C   LIG A   1      -5.010   5.843 130.790  0.00  0.00    +0.035 A 
ATOM      5  C   LIG A   1      -5.347   6.060 132.131  0.00  0.00    +0.032 A 
ATOM      6  C   LIG A   1      -6.214   5.180 132.784  0.00  0.00    +0.070 A 
ATOM      7  C   LIG A   1      -6.685   4.038 132.110  0.00  0.00    +0.077 A 
ATOM      8  C   LIG A   1      -6.326   3.818 130.757  0.00  0.00    +0.002 A 
ATOM      9  C   LIG A   1      -6.685   2.579 130.043  0.00  0.00    +0.010 C 
ATOM     10  C   LIG A   1      -6.727   2.496 128.694  0.00  0.00    -0.052 C 
ATOM     11  C   LIG A   1      -6.426   3.768 127.854  0.00  0.00    +0.015 C 
ATOM     12  C   LIG A   1      -7.716   4.631 127.741  0.00  0.00    +0.021 C 
ATOM     13  C   LIG A   1      -5.961   3.461 126.404  0.00  0.00    +0.016 C 
ATOM     14  C   LIG A   1      -6.588   2.229 125.747  0.00  0.00    +0.009 C 
ATOM     15  C   LIG A   1      -6.448   0.951 126.618  0.00  0.00    -0.020 C 
ATOM     16  C   LIG A   1      -4.922   0.739 126.839  0.00  0.00    +0.012 C 
ATOM     17  C   LIG A   1      -7.218   1.193 127.986  0.00  0.00    -0.004 C 
ATOM     18  C   LIG A   1      -8.757   1.403 127.812  0.00  0.00    +0.016 C 
ATOM     19  C   LIG A   1      -7.060  -0.107 128.848  0.00  0.00    +0.012 C 
ATOM     20  C   LIG A   1      -7.560  -1.394 128.170  0.00  0.00    +0.008 C 
ATOM     21  C   LIG A   1      -7.057  -1.634 126.725  0.00  0.00    -0.029 C 
ATOM     22  C   LIG A   1      -5.677  -2.340 126.804  0.00  0.00    +0.011 C 
ATOM     23  C   LIG A   1      -7.088  -0.304 125.890  0.00  0.00    +0.003 C 
ATOM     24  C   LIG A   1      -6.633  -0.546 124.428  0.00  0.00    +0.022 C 
ATOM     25  C   LIG A   1      -7.433  -1.657 123.704  0.00  0.00    +0.065 C 
ATOM     26  C   LIG A   1      -6.652  -2.107 122.446  0.00  0.00    +0.023 C 
ATOM     27  C   LIG A   1      -7.656  -2.913 124.575  0.00  0.00    +0.018 C 
ATOM     28  C   LIG A   1      -8.032  -2.625 126.031  0.00  0.00    +0.008 C 
ATOM     29  C   LIG A   1      -5.552   4.772 130.071  0.00  0.00    -0.002 A 
ATOM     30  C   LIG A   1      -5.387   4.669 128.599  0.00  0.00    -0.025 C 
ATOM     31  C   LIG A   1      -4.416   5.385 128.001  0.00  0.00    +0.060 C 
ATOM     32  O   LIG A   1      -3.655   7.762 130.666  0.00  0.00    -0.283 OA
ENDROOT
BRANCH   6  33
ATOM     33  C   LIG A   1      -6.597   5.470 134.134  0.00  0.00    +0.101 C 
ATOM     34  N   LIG A   1      -6.923   5.716 135.223  0.00  0.00    -0.191 NA
ENDBRANCH   6  33
BRANCH   7  35
ATOM     35  C   LIG A   1      -7.563   3.124 132.788  0.00  0.00    +0.101 C 
ATOM     36  N   LIG A   1      -8.269   2.373 133.324  0.00  0.00    -0.191 NA
ENDBRANCH   7  35
BRANCH  25  37
ATOM     37  C   LIG A   1      -8.799  -1.095 123.253  0.00  0.00    +0.313 C 
ATOM     38  O   LIG A   1      -9.810  -1.762 123.079  0.00  0.00    -0.250 OA
BRANCH  37  39
ATOM     39  O   LIG A   1      -8.730   0.252 123.067  0.00  0.00    -0.468 OA
ATOM     40  C   LIG A   1      -9.969   0.914 122.816  0.00  0.00    +0.280 C 
ENDBRANCH  37  39
ENDBRANCH  25  37
TORSDOF 4
ENDMDL
MODEL 3
REMARK VINA RESULT:      -8.8      3.310      8.589
REMARK  Name = NuBBE_94
REMARK  10 active torsions:
REMARK  status: ('A' for Active; 'I' for Inactive)
REMARK    1  A    between atoms: C_6  and  C_7
REMARK    2  A    between atoms: C_9  and  C_10
REMARK    3  A    between atoms: C_15  and  C_16
REMARK    4  A    between atoms: C_19  and  C_20
REMARK    5  A    between atoms: C_21  and  C_22
REMARK    6  A    between atoms: C_25  and  C_26
REMARK    7  A    between atoms: C_30  and  C_31
REMARK    8  A    between atoms: C_30  and  C_32
REMARK    9  A    between atoms: C_32  and  O_33
REMARK   10  A    between atoms: O_33  and  C_34
REMARK                            x       y       z     vdW  Elec       q    Type
REMARK                         _______ _______ _______ _____ _____    ______ ____
ROOT
ATOM      1  O   LIG A   1      -9.457   2.713 133.324  0.00  0.00    -0.284 OA
ATOM      2  C   LIG A   1      -8.450   2.876 132.656  0.00  0.00    +0.226 C 
ATOM      3  C   LIG A   1      -7.454   3.982 132.960  0.00  0.00    +0.233 C 
ATOM      4  C   LIG A   1      -6.554   4.386 131.867  0.00  0.00    +0.035 A 
ATOM      5  C   LIG A   1      -5.755   5.526 132.016  0.00  0.00    +0.032 A 
ATOM      6  C   LIG A   1      -4.941   5.948 130.962  0.00  0.00    +0.070 A 
ATOM      7  C   LIG A   1      -4.985   5.268 129.731  0.00  0.00    +0.077 A 
ATOM      8  C   LIG A   1      -5.808   4.124 129.586  0.00  0.00    +0.002 A 
ATOM      9  C   LIG A   1      -5.989   3.449 128.287  0.00  0.00    +0.010 C 
ATOM     10  C   LIG A   1      -6.412   2.170 128.178  0.00  0.00    -0.052 C 
ATOM     11  C   LIG A   1      -6.682   1.355 129.474  0.00  0.00    +0.015 C 
ATOM     12  C   LIG A   1      -5.342   0.762 129.999  0.00  0.00    +0.021 C 
ATOM     13  C   LIG A   1      -7.653   0.161 129.268  0.00  0.00    +0.016 C 
ATOM     14  C   LIG A   1      -7.569  -0.545 127.913  0.00  0.00    +0.009 C 
ATOM     15  C   LIG A   1      -7.695   0.439 126.717  0.00  0.00    -0.020 C 
ATOM     16  C   LIG A   1      -9.070   1.149 126.881  0.00  0.00    +0.012 C 
ATOM     17  C   LIG A   1      -6.484   1.465 126.786  0.00  0.00    -0.004 C 
ATOM     18  C   LIG A   1      -5.083   0.795 126.618  0.00  0.00    +0.016 C 
ATOM     19  C   LIG A   1      -6.636   2.448 125.573  0.00  0.00    +0.012 C 
ATOM     20  C   LIG A   1      -6.686   1.767 124.195  0.00  0.00    +0.008 C 
ATOM     21  C   LIG A   1      -7.676   0.584 124.064  0.00  0.00    -0.029 C 
ATOM     22  C   LIG A   1      -9.074   1.159 123.711  0.00  0.00    +0.011 C 
ATOM     23  C   LIG A   1      -7.626  -0.336 125.335  0.00  0.00    +0.003 C 
ATOM     24  C   LIG A   1      -8.578  -1.551 125.190  0.00  0.00    +0.022 C 
ATOM     25  C   LIG A   1      -8.329  -2.386 123.910  0.00  0.00    +0.065 C 
ATOM     26  C   LIG A   1      -9.560  -3.286 123.643  0.00  0.00    +0.023 C 
ATOM     27  C   LIG A   1      -8.118  -1.518 122.649  0.00  0.00    +0.018 C 
ATOM     28  C   LIG A   1      -7.230  -0.290 122.858  0.00  0.00    +0.008 C 
ATOM     29  C   LIG A   1      -6.531   3.633 130.688  0.00  0.00    -0.002 A 
ATOM     30  C   LIG A   1      -7.189   2.304 130.608  0.00  0.00    -0.025 C 
ATOM     31  C   LIG A   1      -8.118   1.981 131.528  0.00  0.00    +0.060 C 
ATOM     32  O   LIG A   1      -7.411   4.521 134.054  0.00  0.00    -0.283 OA
ENDROOT
BRANCH   6  33
ATOM     33  C   LIG A   1      -4.081   7.076 131.170  0.00  0.00    +0.101 C 
ATOM     34  N   LIG A   1      -3.368   7.979 131.339  0.00  0.00    -0.191 NA
ENDBRANCH   6  33
BRANCH   7  35
ATOM     35  C   LIG A   1      -4.159   5.714 128.643  0.00  0.00    +0.101 C 
ATOM     36  N   LIG A   1      -3.506   6.074 127.752  0.00  0.00    -0.191 NA
ENDBRANCH   7  35
BRANCH  25  37
ATOM     37  C   LIG A   1      -7.099  -3.295 124.121  0.00  0.00    +0.313 C 
ATOM     38  O   LIG A   1      -7.111  -4.367 124.710  0.00  0.00    -0.250 OA
BRANCH  37  39
ATOM     39  O   LIG A   1      -5.987  -2.739 123.567  0.00  0.00    -0.468 OA
ATOM     40  C   LIG A   1      -4.797  -3.525 123.629  0.00  0.00    +0.280 C 
ENDBRANCH  37  39
ENDBRANCH  25  37
TORSDOF 4
ENDMDL
MODEL 4
REMARK VINA RESULT:      -8.7      4.341      6.497
REMARK  Name = NuBBE_94
REMARK  10 active torsions:
REMARK  status: ('A' for Active; 'I' for Inactive)
REMARK    1  A    between atoms: C_6  and  C_7
REMARK    2  A    between atoms: C_9  and  C_10
REMARK    3  A    between atoms: C_15  and  C_16
REMARK    4  A    between atoms: C_19  and  C_20
REMARK    5  A    between atoms: C_21  and  C_22
REMARK    6  A    between atoms: C_25  and  C_26
REMARK    7  A    between atoms: C_30  and  C_31
REMARK    8  A    between atoms: C_30  and  C_32
REMARK    9  A    between atoms: C_32  and  O_33
REMARK   10  A    between atoms: O_33  and  C_34
REMARK                            x       y       z     vdW  Elec       q    Type
REMARK                         _______ _______ _______ _____ _____    ______ ____
ROOT
ATOM      1  O   LIG A   1      -4.471  -3.676 123.846  0.00  0.00    -0.284 OA
ATOM      2  C   LIG A   1      -5.292  -2.879 124.268  0.00  0.00    +0.226 C 
ATOM      3  C   LIG A   1      -6.012  -1.905 123.351  0.00  0.00    +0.233 C 
ATOM      4  C   LIG A   1      -6.607  -0.714 123.979  0.00  0.00    +0.035 A 
ATOM      5  C   LIG A   1      -7.106   0.316 123.174  0.00  0.00    +0.032 A 
ATOM      6  C   LIG A   1      -7.620   1.475 123.762  0.00  0.00    +0.070 A 
ATOM      7  C   LIG A   1      -7.563   1.631 125.159  0.00  0.00    +0.077 A 
ATOM      8  C   LIG A   1      -7.042   0.589 125.966  0.00  0.00    +0.002 A 
ATOM      9  C   LIG A   1      -6.842   0.748 127.418  0.00  0.00    +0.010 C 
ATOM     10  C   LIG A   1      -6.742  -0.302 128.263  0.00  0.00    -0.052 C 
ATOM     11  C   LIG A   1      -6.884  -1.741 127.694  0.00  0.00    +0.015 C 
ATOM     12  C   LIG A   1      -8.393  -2.104 127.580  0.00  0.00    +0.021 C 
ATOM     13  C   LIG A   1      -6.225  -2.831 128.583  0.00  0.00    +0.016 C 
ATOM     14  C   LIG A   1      -6.278  -2.586 130.092  0.00  0.00    +0.009 C 
ATOM     15  C   LIG A   1      -5.730  -1.189 130.492  0.00  0.00    -0.020 C 
ATOM     16  C   LIG A   1      -4.261  -1.134 129.979  0.00  0.00    +0.012 C 
ATOM     17  C   LIG A   1      -6.640  -0.082 129.806  0.00  0.00    -0.004 C 
ATOM     18  C   LIG A   1      -8.123  -0.094 130.299  0.00  0.00    +0.016 C 
ATOM     19  C   LIG A   1      -6.065   1.318 130.221  0.00  0.00    +0.012 C 
ATOM     20  C   LIG A   1      -5.980   1.555 131.739  0.00  0.00    +0.008 C 
ATOM     21  C   LIG A   1      -5.311   0.426 132.561  0.00  0.00    -0.029 C 
ATOM     22  C   LIG A   1      -3.777   0.661 132.546  0.00  0.00    +0.011 C 
ATOM     23  C   LIG A   1      -5.782  -0.987 132.064  0.00  0.00    +0.003 C 
ATOM     24  C   LIG A   1      -5.155  -2.122 132.915  0.00  0.00    +0.022 C 
ATOM     25  C   LIG A   1      -5.410  -1.971 134.435  0.00  0.00    +0.065 C 
ATOM     26  C   LIG A   1      -4.418  -2.875 135.207  0.00  0.00    +0.023 C 
ATOM     27  C   LIG A   1      -5.203  -0.528 134.947  0.00  0.00    +0.018 C 
ATOM     28  C   LIG A   1      -5.775   0.562 134.038  0.00  0.00    +0.008 C 
ATOM     29  C   LIG A   1      -6.640  -0.623 125.375  0.00  0.00    -0.002 A 
ATOM     30  C   LIG A   1      -6.332  -1.796 126.232  0.00  0.00    -0.025 C 
ATOM     31  C   LIG A   1      -5.665  -2.836 125.697  0.00  0.00    +0.060 C 
ATOM     32  O   LIG A   1      -6.084  -2.094 122.147  0.00  0.00    -0.283 OA
ENDROOT
BRANCH   6  33
ATOM     33  C   LIG A   1      -8.190   2.479 122.913  0.00  0.00    +0.101 C 
ATOM     34  N   LIG A   1      -8.667   3.297 122.237  0.00  0.00    -0.191 NA
ENDBRANCH   6  33
BRANCH   7  35
ATOM     35  C   LIG A   1      -8.076   2.831 125.761  0.00  0.00    +0.101 C 
ATOM     36  N   LIG A   1      -8.474   3.804 126.254  0.00  0.00    -0.191 NA
ENDBRANCH   7  35
BRANCH  25  37
ATOM     37  C   LIG A   1      -6.846  -2.433 134.763  0.00  0.00    +0.313 C 
ATOM     38  O   LIG A   1      -7.569  -3.068 134.007  0.00  0.00    -0.250 OA
BRANCH  37  39
ATOM     39  O   LIG A   1      -7.208  -2.032 136.012  0.00  0.00    -0.468 OA
ATOM     40  C   LIG A   1      -7.843  -3.018 136.826  0.00  0.00    +0.280 C 
ENDBRANCH  37  39
ENDBRANCH  25  37
TORSDOF 4
ENDMDL
MODEL 5
REMARK VINA RESULT:      -8.5      3.412      8.715
REMARK  Name = NuBBE_94
REMARK  10 active torsions:
REMARK  status: ('A' for Active; 'I' for Inactive)
REMARK    1  A    between atoms: C_6  and  C_7
REMARK    2  A    between atoms: C_9  and  C_10
REMARK    3  A    between atoms: C_15  and  C_16
REMARK    4  A    between atoms: C_19  and  C_20
REMARK    5  A    between atoms: C_21  and  C_22
REMARK    6  A    between atoms: C_25  and  C_26
REMARK    7  A    between atoms: C_30  and  C_31
REMARK    8  A    between atoms: C_30  and  C_32
REMARK    9  A    between atoms: C_32  and  O_33
REMARK   10  A    between atoms: O_33  and  C_34
REMARK                            x       y       z     vdW  Elec       q    Type
REMARK                         _______ _______ _______ _____ _____    ______ ____
ROOT
ATOM      1  O   LIG A   1      -2.697   5.505 130.050  0.00  0.00    -0.284 OA
ATOM      2  C   LIG A   1      -3.874   5.358 129.768  0.00  0.00    +0.226 C 
ATOM      3  C   LIG A   1      -4.972   6.149 130.460  0.00  0.00    +0.233 C 
ATOM      4  C   LIG A   1      -6.334   5.593 130.397  0.00  0.00    +0.035 A 
ATOM      5  C   LIG A   1      -7.348   6.161 131.177  0.00  0.00    +0.032 A 
ATOM      6  C   LIG A   1      -8.629   5.604 131.166  0.00  0.00    +0.070 A 
ATOM      7  C   LIG A   1      -8.873   4.431 130.429  0.00  0.00    +0.077 A 
ATOM      8  C   LIG A   1      -7.836   3.855 129.654  0.00  0.00    +0.002 A 
ATOM      9  C   LIG A   1      -7.998   2.561 128.966  0.00  0.00    +0.010 C 
ATOM     10  C   LIG A   1      -7.224   2.183 127.925  0.00  0.00    -0.052 C 
ATOM     11  C   LIG A   1      -6.141   3.164 127.398  0.00  0.00    +0.015 C 
ATOM     12  C   LIG A   1      -6.797   4.176 126.414  0.00  0.00    +0.021 C 
ATOM     13  C   LIG A   1      -4.990   2.466 126.624  0.00  0.00    +0.016 C 
ATOM     14  C   LIG A   1      -5.384   1.235 125.805  0.00  0.00    +0.009 C 
ATOM     15  C   LIG A   1      -6.160   0.182 126.643  0.00  0.00    -0.020 C 
ATOM     16  C   LIG A   1      -5.221  -0.218 127.817  0.00  0.00    +0.012 C 
ATOM     17  C   LIG A   1      -7.506   0.850 127.159  0.00  0.00    -0.004 C 
ATOM     18  C   LIG A   1      -8.484   1.261 126.012  0.00  0.00    +0.016 C 
ATOM     19  C   LIG A   1      -8.269  -0.229 128.003  0.00  0.00    +0.012 C 
ATOM     20  C   LIG A   1      -8.571  -1.538 127.253  0.00  0.00    +0.008 C 
ATOM     21  C   LIG A   1      -7.376  -2.177 126.504  0.00  0.00    -0.029 C 
ATOM     22  C   LIG A   1      -6.591  -3.061 127.511  0.00  0.00    +0.011 C 
ATOM     23  C   LIG A   1      -6.527  -1.084 125.761  0.00  0.00    +0.003 C 
ATOM     24  C   LIG A   1      -5.357  -1.721 124.968  0.00  0.00    +0.022 C 
ATOM     25  C   LIG A   1      -5.806  -2.823 123.977  0.00  0.00    +0.065 C 
ATOM     26  C   LIG A   1      -4.576  -3.668 123.565  0.00  0.00    +0.023 C 
ATOM     27  C   LIG A   1      -6.846  -3.796 124.577  0.00  0.00    +0.018 C 
ATOM     28  C   LIG A   1      -7.940  -3.129 125.413  0.00  0.00    +0.008 C 
ATOM     29  C   LIG A   1      -6.583   4.490 129.574  0.00  0.00    -0.002 A 
ATOM     30  C   LIG A   1      -5.585   4.031 128.575  0.00  0.00    -0.025 C 
ATOM     31  C   LIG A   1      -4.304   4.425 128.705  0.00  0.00    +0.060 C 
ATOM     32  O   LIG A   1      -4.734   7.189 131.053  0.00  0.00    -0.283 OA
ENDROOT
BRANCH   6  33
ATOM     33  C   LIG A   1      -9.664   6.251 131.918  0.00  0.00    +0.101 C 
ATOM     34  N   LIG A   1     -10.509   6.759 132.536  0.00  0.00    -0.191 NA
ENDBRANCH   6  33
BRANCH   7  35
ATOM     35  C   LIG A   1     -10.188   3.849 130.433  0.00  0.00    +0.101 C 
ATOM     36  N   LIG A   1     -11.249   3.378 130.454  0.00  0.00    -0.191 NA
ENDBRANCH   7  35
BRANCH  25  37
ATOM     37  C   LIG A   1      -6.391  -2.164 122.709  0.00  0.00    +0.313 C 
ATOM     38  O   LIG A   1      -5.729  -1.711 121.784  0.00  0.00    -0.250 OA
BRANCH  37  39
ATOM     39  O   LIG A   1      -7.751  -2.148 122.755  0.00  0.00    -0.468 OA
ATOM     40  C   LIG A   1      -8.362  -0.859 122.790  0.00  0.00    +0.280 C 
ENDBRANCH  37  39
ENDBRANCH  25  37
TORSDOF 4
ENDMDL
MODEL 6
REMARK VINA RESULT:      -8.4      3.348      7.185
REMARK  Name = NuBBE_94
REMARK  10 active torsions:
REMARK  status: ('A' for Active; 'I' for Inactive)
REMARK    1  A    between atoms: C_6  and  C_7
REMARK    2  A    between atoms: C_9  and  C_10
REMARK    3  A    between atoms: C_15  and  C_16
REMARK    4  A    between atoms: C_19  and  C_20
REMARK    5  A    between atoms: C_21  and  C_22
REMARK    6  A    between atoms: C_25  and  C_26
REMARK    7  A    between atoms: C_30  and  C_31
REMARK    8  A    between atoms: C_30  and  C_32
REMARK    9  A    between atoms: C_32  and  O_33
REMARK   10  A    between atoms: O_33  and  C_34
REMARK                            x       y       z     vdW  Elec       q    Type
REMARK                         _______ _______ _______ _____ _____    ______ ____
ROOT
ATOM      1  O   LIG A   1      -8.087   5.296 128.187  0.00  0.00    -0.284 OA
ATOM      2  C   LIG A   1      -7.861   4.206 127.691  0.00  0.00    +0.226 C 
ATOM      3  C   LIG A   1      -8.353   3.837 126.302  0.00  0.00    +0.233 C 
ATOM      4  C   LIG A   1      -8.440   2.402 125.986  0.00  0.00    +0.035 A 
ATOM      5  C   LIG A   1      -9.070   1.991 124.805  0.00  0.00    +0.032 A 
ATOM      6  C   LIG A   1      -9.208   0.629 124.526  0.00  0.00    +0.070 A 
ATOM      7  C   LIG A   1      -8.778  -0.323 125.469  0.00  0.00    +0.077 A 
ATOM      8  C   LIG A   1      -8.155   0.103 126.668  0.00  0.00    +0.002 A 
ATOM      9  C   LIG A   1      -7.802  -0.841 127.745  0.00  0.00    +0.010 C 
ATOM     10  C   LIG A   1      -6.875  -0.563 128.688  0.00  0.00    -0.052 C 
ATOM     11  C   LIG A   1      -6.115   0.791 128.619  0.00  0.00    +0.015 C 
ATOM     12  C   LIG A   1      -4.922   0.663 127.627  0.00  0.00    +0.021 C 
ATOM     13  C   LIG A   1      -5.521   1.243 129.981  0.00  0.00    +0.016 C 
ATOM     14  C   LIG A   1      -5.027   0.125 130.900  0.00  0.00    +0.009 C 
ATOM     15  C   LIG A   1      -6.103  -0.970 131.141  0.00  0.00    -0.020 C 
ATOM     16  C   LIG A   1      -7.330  -0.246 131.767  0.00  0.00    +0.012 C 
ATOM     17  C   LIG A   1      -6.457  -1.637 129.743  0.00  0.00    -0.004 C 
ATOM     18  C   LIG A   1      -5.254  -2.383 129.080  0.00  0.00    +0.016 C 
ATOM     19  C   LIG A   1      -7.545  -2.734 130.010  0.00  0.00    +0.012 C 
ATOM     20  C   LIG A   1      -7.136  -3.810 131.032  0.00  0.00    +0.008 C 
ATOM     21  C   LIG A   1      -6.552  -3.286 132.366  0.00  0.00    -0.029 C 
ATOM     22  C   LIG A   1      -7.734  -2.978 133.324  0.00  0.00    +0.011 C 
ATOM     23  C   LIG A   1      -5.558  -2.096 132.116  0.00  0.00    +0.003 C 
ATOM     24  C   LIG A   1      -4.930  -1.597 133.443  0.00  0.00    +0.022 C 
ATOM     25  C   LIG A   1      -4.239  -2.716 134.262  0.00  0.00    +0.065 C 
ATOM     26  C   LIG A   1      -4.030  -2.226 135.715  0.00  0.00    +0.023 C 
ATOM     27  C   LIG A   1      -5.068  -4.018 134.335  0.00  0.00    +0.018 C 
ATOM     28  C   LIG A   1      -5.729  -4.431 133.018  0.00  0.00    +0.008 C 
ATOM     29  C   LIG A   1      -7.911   1.471 126.886  0.00  0.00    -0.002 A 
ATOM     30  C   LIG A   1      -7.042   1.896 128.013  0.00  0.00    -0.025 C 
ATOM     31  C   LIG A   1      -7.060   3.185 128.399  0.00  0.00    +0.060 C 
ATOM     32  O   LIG A   1      -8.674   4.690 125.490  0.00  0.00    -0.283 OA
ENDROOT
BRANCH   6  33
ATOM     33  C   LIG A   1      -9.792   0.242 123.276  0.00  0.00    +0.101 C 
ATOM     34  N   LIG A   1     -10.281  -0.061 122.265  0.00  0.00    -0.191 NA
ENDBRANCH   6  33
BRANCH   7  35
ATOM     35  C   LIG A   1      -8.937  -1.723 125.188  0.00  0.00    +0.101 C 
ATOM     36  N   LIG A   1      -9.083  -2.853 124.961  0.00  0.00    -0.191 NA
ENDBRANCH   7  35
BRANCH  25  37
ATOM     37  C   LIG A   1      -2.855  -3.020 133.648  0.00  0.00    +0.313 C 
ATOM     38  O   LIG A   1      -2.318  -4.120 133.639  0.00  0.00    -0.250 OA
BRANCH  37  39
ATOM     39  O   LIG A   1      -2.303  -1.894 133.119  0.00  0.00    -0.468 OA
ATOM     40  C   LIG A   1      -1.226  -1.318 133.858  0.00  0.00    +0.280 C 
ENDBRANCH  37  39
ENDBRANCH  25  37
TORSDOF 4
ENDMDL
MODEL 7
REMARK VINA RESULT:      -8.3      4.403      8.178
REMARK  Name = NuBBE_94
REMARK  10 active torsions:
REMARK  status: ('A' for Active; 'I' for Inactive)
REMARK    1  A    between atoms: C_6  and  C_7
REMARK    2  A    between atoms: C_9  and  C_10
REMARK    3  A    between atoms: C_15  and  C_16
REMARK    4  A    between atoms: C_19  and  C_20
REMARK    5  A    between atoms: C_21  and  C_22
REMARK    6  A    between atoms: C_25  and  C_26
REMARK    7  A    between atoms: C_30  and  C_31
REMARK    8  A    between atoms: C_30  and  C_32
REMARK    9  A    between atoms: C_32  and  O_33
REMARK   10  A    between atoms: O_33  and  C_34
REMARK                            x       y       z     vdW  Elec       q    Type
REMARK                         _______ _______ _______ _____ _____    ______ ____
ROOT
ATOM      1  O   LIG A   1      -8.919   3.732 131.671  0.00  0.00    -0.284 OA
ATOM      2  C   LIG A   1      -8.357   2.962 130.910  0.00  0.00    +0.226 C 
ATOM      3  C   LIG A   1      -8.661   2.936 129.422  0.00  0.00    +0.233 C 
ATOM      4  C   LIG A   1      -8.302   1.710 128.690  0.00  0.00    +0.035 A 
ATOM      5  C   LIG A   1      -8.734   1.542 127.370  0.00  0.00    +0.032 A 
ATOM      6  C   LIG A   1      -8.446   0.357 126.687  0.00  0.00    +0.070 A 
ATOM      7  C   LIG A   1      -7.789  -0.691 127.357  0.00  0.00    +0.077 A 
ATOM      8  C   LIG A   1      -7.369  -0.517 128.700  0.00  0.00    +0.002 A 
ATOM      9  C   LIG A   1      -6.791  -1.621 129.489  0.00  0.00    +0.010 C 
ATOM     10  C   LIG A   1      -6.028  -1.417 130.585  0.00  0.00    -0.052 C 
ATOM     11  C   LIG A   1      -5.706   0.041 131.015  0.00  0.00    +0.015 C 
ATOM     12  C   LIG A   1      -4.492   0.566 130.195  0.00  0.00    +0.021 C 
ATOM     13  C   LIG A   1      -5.329   0.179 132.516  0.00  0.00    +0.016 C 
ATOM     14  C   LIG A   1      -4.559  -0.996 133.123  0.00  0.00    +0.009 C 
ATOM     15  C   LIG A   1      -5.265  -2.359 132.889  0.00  0.00    -0.020 C 
ATOM     16  C   LIG A   1      -6.677  -2.235 133.534  0.00  0.00    +0.012 C 
ATOM     17  C   LIG A   1      -5.349  -2.615 131.323  0.00  0.00    -0.004 C 
ATOM     18  C   LIG A   1      -3.953  -2.754 130.634  0.00  0.00    +0.016 C 
ATOM     19  C   LIG A   1      -6.067  -3.993 131.112  0.00  0.00    +0.012 C 
ATOM     20  C   LIG A   1      -5.395  -5.184 131.817  0.00  0.00    +0.008 C 
ATOM     21  C   LIG A   1      -5.047  -4.974 133.311  0.00  0.00    -0.029 C 
ATOM     22  C   LIG A   1      -6.304  -5.322 134.154  0.00  0.00    +0.011 C 
ATOM     23  C   LIG A   1      -4.447  -3.543 133.554  0.00  0.00    +0.003 C 
ATOM     24  C   LIG A   1      -4.049  -3.343 135.039  0.00  0.00    +0.022 C 
ATOM     25  C   LIG A   1      -3.088  -4.432 135.576  0.00  0.00    +0.065 C 
ATOM     26  C   LIG A   1      -3.092  -4.394 137.124  0.00  0.00    +0.023 C 
ATOM     27  C   LIG A   1      -3.490  -5.863 135.155  0.00  0.00    +0.018 C 
ATOM     28  C   LIG A   1      -3.945  -5.998 133.700  0.00  0.00    +0.008 C 
ATOM     29  C   LIG A   1      -7.554   0.722 129.339  0.00  0.00    -0.002 A 
ATOM     30  C   LIG A   1      -6.897   0.985 130.645  0.00  0.00    -0.025 C 
ATOM     31  C   LIG A   1      -7.316   2.027 131.386  0.00  0.00    +0.060 C 
ATOM     32  O   LIG A   1      -9.191   3.882 128.861  0.00  0.00    -0.283 OA
ENDROOT
BRANCH   6  33
ATOM     33  C   LIG A   1      -8.838   0.245 125.313  0.00  0.00    +0.101 C 
ATOM     34  N   LIG A   1      -9.173   0.163 124.202  0.00  0.00    -0.191 NA
ENDBRANCH   6  33
BRANCH   7  35
ATOM     35  C   LIG A   1      -7.509  -1.916 126.659  0.00  0.00    +0.101 C 
ATOM     36  N   LIG A   1      -7.285  -2.897 126.080  0.00  0.00    -0.191 NA
ENDBRANCH   7  35
BRANCH  25  37
ATOM     37  C   LIG A   1      -1.653  -4.136 135.087  0.00  0.00    +0.313 C 
ATOM     38  O   LIG A   1      -1.369  -3.623 134.013  0.00  0.00    -0.250 OA
BRANCH  37  39
ATOM     39  O   LIG A   1      -0.736  -4.529 136.013  0.00  0.00    -0.468 OA
ATOM     40  C   LIG A   1       0.409  -3.689 136.156  0.00  0.00    +0.280 C 
ENDBRANCH  37  39
ENDBRANCH  25  37
TORSDOF 4
ENDMDL
MODEL 8
REMARK VINA RESULT:      -8.2      3.958      9.107
REMARK  Name = NuBBE_94
REMARK  10 active torsions:
REMARK  status: ('A' for Active; 'I' for Inactive)
REMARK    1  A    between atoms: C_6  and  C_7
REMARK    2  A    between atoms: C_9  and  C_10
REMARK    3  A    between atoms: C_15  and  C_16
REMARK    4  A    between atoms: C_19  and  C_20
REMARK    5  A    between atoms: C_21  and  C_22
REMARK    6  A    between atoms: C_25  and  C_26
REMARK    7  A    between atoms: C_30  and  C_31
REMARK    8  A    between atoms: C_30  and  C_32
REMARK    9  A    between atoms: C_32  and  O_33
REMARK   10  A    between atoms: O_33  and  C_34
REMARK                            x       y       z     vdW  Elec       q    Type
REMARK                         _______ _______ _______ _____ _____    ______ ____
ROOT
ATOM      1  O   LIG A   1      -0.975   5.053 132.092  0.00  0.00    -0.284 OA
ATOM      2  C   LIG A   1      -2.194   5.053 132.069  0.00  0.00    +0.226 C 
ATOM      3  C   LIG A   1      -3.018   5.791 133.109  0.00  0.00    +0.233 C 
ATOM      4  C   LIG A   1      -4.418   5.365 133.275  0.00  0.00    +0.035 A 
ATOM      5  C   LIG A   1      -5.169   5.862 134.345  0.00  0.00    +0.032 A 
ATOM      6  C   LIG A   1      -6.480   5.419 134.543  0.00  0.00    +0.070 A 
ATOM      7  C   LIG A   1      -7.010   4.419 133.707  0.00  0.00    +0.077 A 
ATOM      8  C   LIG A   1      -6.236   3.910 132.635  0.00  0.00    +0.002 A 
ATOM      9  C   LIG A   1      -6.691   2.777 131.809  0.00  0.00    +0.010 C 
ATOM     10  C   LIG A   1      -6.207   2.530 130.572  0.00  0.00    -0.052 C 
ATOM     11  C   LIG A   1      -5.154   3.502 129.970  0.00  0.00    +0.015 C 
ATOM     12  C   LIG A   1      -5.881   4.722 129.333  0.00  0.00    +0.021 C 
ATOM     13  C   LIG A   1      -4.283   2.864 128.854  0.00  0.00    +0.016 C 
ATOM     14  C   LIG A   1      -4.983   1.834 127.965  0.00  0.00    +0.009 C 
ATOM     15  C   LIG A   1      -5.681   0.713 128.783  0.00  0.00    -0.020 C 
ATOM     16  C   LIG A   1      -4.566   0.037 129.634  0.00  0.00    +0.012 C 
ATOM     17  C   LIG A   1      -6.798   1.382 129.693  0.00  0.00    -0.004 C 
ATOM     18  C   LIG A   1      -7.943   2.067 128.880  0.00  0.00    +0.016 C 
ATOM     19  C   LIG A   1      -7.484   0.233 130.511  0.00  0.00    +0.012 C 
ATOM     20  C   LIG A   1      -8.090  -0.893 129.655  0.00  0.00    +0.008 C 
ATOM     21  C   LIG A   1      -7.165  -1.480 128.562  0.00  0.00    -0.029 C 
ATOM     22  C   LIG A   1      -6.292  -2.589 129.210  0.00  0.00    +0.011 C 
ATOM     23  C   LIG A   1      -6.372  -0.343 127.824  0.00  0.00    +0.003 C 
ATOM     24  C   LIG A   1      -5.481  -0.919 126.693  0.00  0.00    +0.022 C 
ATOM     25  C   LIG A   1      -6.256  -1.787 125.672  0.00  0.00    +0.065 C 
ATOM     26  C   LIG A   1      -5.249  -2.639 124.862  0.00  0.00    +0.023 C 
ATOM     27  C   LIG A   1      -7.250  -2.767 126.336  0.00  0.00    +0.018 C 
ATOM     28  C   LIG A   1      -8.056  -2.175 127.494  0.00  0.00    +0.008 C 
ATOM     29  C   LIG A   1      -4.964   4.449 132.369  0.00  0.00    -0.002 A 
ATOM     30  C   LIG A   1      -4.262   4.098 131.108  0.00  0.00    -0.025 C 
ATOM     31  C   LIG A   1      -2.946   4.361 131.001  0.00  0.00    +0.060 C 
ATOM     32  O   LIG A   1      -2.540   6.687 133.786  0.00  0.00    -0.283 OA
ENDROOT
BRANCH   6  33
ATOM     33  C   LIG A   1      -7.248   6.001 135.604  0.00  0.00    +0.101 C 
ATOM     34  N   LIG A   1      -7.862   6.490 136.462  0.00  0.00    -0.191 NA
ENDBRANCH   6  33
BRANCH   7  35
ATOM     35  C   LIG A   1      -8.352   3.951 133.923  0.00  0.00    +0.101 C 
ATOM     36  N   LIG A   1      -9.442   3.581 134.082  0.00  0.00    -0.191 NA
ENDBRANCH   7  35
BRANCH  25  37
ATOM     37  C   LIG A   1      -7.017  -0.869 124.691  0.00  0.00    +0.313 C 
ATOM     38  O   LIG A   1      -6.663   0.256 124.365  0.00  0.00    -0.250 OA
BRANCH  37  39
ATOM     39  O   LIG A   1      -8.146  -1.478 124.236  0.00  0.00    -0.468 OA
ATOM     40  C   LIG A   1      -8.236  -1.656 122.823  0.00  0.00    +0.280 C 
ENDBRANCH  37  39
ENDBRANCH  25  37
TORSDOF 4
ENDMDL
MODEL 9
REMARK VINA RESULT:      -8.1      4.066      8.097
REMARK  Name = NuBBE_94
REMARK  10 active torsions:
REMARK  status: ('A' for Active; 'I' for Inactive)
REMARK    1  A    between atoms: C_6  and  C_7
REMARK    2  A    between atoms: C_9  and  C_10
REMARK    3  A    between atoms: C_15  and  C_16
REMARK    4  A    between atoms: C_19  and  C_20
REMARK    5  A    between atoms: C_21  and  C_22
REMARK    6  A    between atoms: C_25  and  C_26
REMARK    7  A    between atoms: C_30  and  C_31
REMARK    8  A    between atoms: C_30  and  C_32
REMARK    9  A    between atoms: C_32  and  O_33
REMARK   10  A    between atoms: O_33  and  C_34
REMARK                            x       y       z     vdW  Elec       q    Type
REMARK                         _______ _______ _______ _____ _____    ______ ____
ROOT
ATOM      1  O   LIG A   1      -8.671  -3.358 125.259  0.00  0.00    -0.284 OA
ATOM      2  C   LIG A   1      -8.266  -2.426 125.934  0.00  0.00    +0.226 C 
ATOM      3  C   LIG A   1      -7.912  -1.083 125.320  0.00  0.00    +0.233 C 
ATOM      4  C   LIG A   1      -7.021  -0.208 126.101  0.00  0.00    +0.035 A 
ATOM      5  C   LIG A   1      -6.498   0.948 125.511  0.00  0.00    +0.032 A 
ATOM      6  C   LIG A   1      -5.607   1.754 126.226  0.00  0.00    +0.070 A 
ATOM      7  C   LIG A   1      -5.184   1.357 127.508  0.00  0.00    +0.077 A 
ATOM      8  C   LIG A   1      -5.708   0.177 128.090  0.00  0.00    +0.002 A 
ATOM      9  C   LIG A   1      -5.208  -0.353 129.372  0.00  0.00    +0.010 C 
ATOM     10  C   LIG A   1      -5.921  -1.204 130.143  0.00  0.00    -0.052 C 
ATOM     11  C   LIG A   1      -7.348  -1.614 129.685  0.00  0.00    +0.015 C 
ATOM     12  C   LIG A   1      -8.366  -0.522 130.124  0.00  0.00    +0.021 C 
ATOM     13  C   LIG A   1      -7.836  -2.957 130.296  0.00  0.00    +0.016 C 
ATOM     14  C   LIG A   1      -7.365  -3.254 131.721  0.00  0.00    +0.009 C 
ATOM     15  C   LIG A   1      -5.823  -3.144 131.876  0.00  0.00    -0.020 C 
ATOM     16  C   LIG A   1      -5.210  -4.162 130.870  0.00  0.00    +0.012 C 
ATOM     17  C   LIG A   1      -5.394  -1.651 131.544  0.00  0.00    -0.004 C 
ATOM     18  C   LIG A   1      -5.981  -0.594 132.534  0.00  0.00    +0.016 C 
ATOM     19  C   LIG A   1      -3.836  -1.566 131.703  0.00  0.00    +0.012 C 
ATOM     20  C   LIG A   1      -3.307  -1.983 133.086  0.00  0.00    +0.008 C 
ATOM     21  C   LIG A   1      -3.837  -3.331 133.632  0.00  0.00    -0.029 C 
ATOM     22  C   LIG A   1      -2.944  -4.468 133.066  0.00  0.00    +0.011 C 
ATOM     23  C   LIG A   1      -5.376  -3.483 133.359  0.00  0.00    +0.003 C 
ATOM     24  C   LIG A   1      -5.925  -4.808 133.947  0.00  0.00    +0.022 C 
ATOM     25  C   LIG A   1      -5.624  -4.990 135.455  0.00  0.00    +0.065 C 
ATOM     26  C   LIG A   1      -5.822  -6.478 135.836  0.00  0.00    +0.023 C 
ATOM     27  C   LIG A   1      -4.175  -4.613 135.837  0.00  0.00    +0.018 C 
ATOM     28  C   LIG A   1      -3.650  -3.336 135.175  0.00  0.00    +0.008 C 
ATOM     29  C   LIG A   1      -6.696  -0.562 127.414  0.00  0.00    -0.002 A 
ATOM     30  C   LIG A   1      -7.421  -1.647 128.123  0.00  0.00    -0.025 C 
ATOM     31  C   LIG A   1      -8.129  -2.537 127.401  0.00  0.00    +0.060 C 
ATOM     32  O   LIG A   1      -8.334  -0.749 124.224  0.00  0.00    -0.283 OA
ENDROOT
BRANCH   6  33
ATOM     33  C   LIG A   1      -5.146   2.969 125.621  0.00  0.00    +0.101 C 
ATOM     34  N   LIG A   1      -4.788   3.956 125.122  0.00  0.00    -0.191 NA
ENDBRANCH   6  33
BRANCH   7  35
ATOM     35  C   LIG A   1      -4.254   2.177 128.234  0.00  0.00    +0.101 C 
ATOM     36  N   LIG A   1      -3.494   2.826 128.827  0.00  0.00    -0.191 NA
ENDBRANCH   7  35
BRANCH  25  37
ATOM     37  C   LIG A   1      -6.612  -4.140 136.282  0.00  0.00    +0.313 C 
ATOM     38  O   LIG A   1      -6.338  -3.561 137.325  0.00  0.00    -0.250 OA
BRANCH  37  39
ATOM     39  O   LIG A   1      -7.842  -4.124 135.699  0.00  0.00    -0.468 OA
ATOM     40  C   LIG A   1      -8.925  -4.583 136.508  0.00  0.00    +0.280 C 
ENDBRANCH  37  39
ENDBRANCH  25  37
TORSDOF 4
ENDMDL
