MODEL 1
REMARK VINA RESULT:      -8.3      0.000      0.000
REMARK  Name = NuBBE_2303
REMARK  3 active torsions:
REMARK  status: ('A' for Active; 'I' for Inactive)
REMARK    1  A    between atoms: C_1  and  O_27
REMARK    2  A    between atoms: C_15  and  C_17
REMARK    3  A    between atoms: O_27  and  C_28
REMARK                            x       y       z     vdW  Elec       q    Type
REMARK                         _______ _______ _______ _____ _____    ______ ____
ROOT
ATOM      1  C   LIG A   1      -7.557  -2.530 126.546  0.00  0.00    +0.142 A 
ATOM      2  C   LIG A   1      -8.657  -3.390 126.589  0.00  0.00    +0.047 A 
ATOM      3  C   LIG A   1      -9.105  -3.919 127.808  0.00  0.00    +0.004 A 
ATOM      4  C   LIG A   1      -8.455  -3.603 129.004  0.00  0.00    +0.006 A 
ATOM      5  C   LIG A   1      -7.370  -2.736 128.963  0.00  0.00    -0.013 A 
ATOM      6  C   LIG A   1      -6.489  -2.227 130.113  0.00  0.00    +0.036 C 
ATOM      7  C   LIG A   1      -6.162  -3.260 131.190  0.00  0.00    +0.075 C 
ATOM      8  C   LIG A   1      -4.678  -3.620 131.393  0.00  0.00    -0.013 C 
ATOM      9  C   LIG A   1      -4.146  -4.099 130.030  0.00  0.00    +0.010 C 
ATOM     10  C   LIG A   1      -4.408  -3.100 128.879  0.00  0.00    +0.028 C 
ATOM     11  C   LIG A   1      -5.240  -1.803 129.272  0.00  0.00    +0.053 C 
ATOM     12  N   LIG A   1      -5.878  -1.267 127.991  0.00  0.00    -0.261 N 
ATOM     13  C   LIG A   1      -6.963  -2.159 127.747  0.00  0.00    +0.083 A 
ATOM     14  C   LIG A   1      -6.044   0.105 127.749  0.00  0.00    +0.217 C 
ATOM     15  O   LIG A   1      -5.541   0.985 128.447  0.00  0.00    -0.276 OA
ATOM     16  C   LIG A   1      -6.862   0.543 126.557  0.00  0.00    +0.110 C 
ATOM     17  C   LIG A   1      -4.254  -0.834 129.966  0.00  0.00    +0.027 C 
ATOM     18  C   LIG A   1      -3.238  -1.459 130.911  0.00  0.00    +0.003 C 
ATOM     19  C   LIG A   1      -3.791  -2.447 131.928  0.00  0.00    +0.008 C 
ATOM     20  C   LIG A   1      -4.639  -4.761 132.470  0.00  0.00    +0.009 C 
ATOM     21  C   LIG A   1      -5.928  -4.893 133.312  0.00  0.00    +0.016 C 
ATOM     22  C   LIG A   1      -6.699  -3.585 133.561  0.00  0.00    +0.085 C 
ATOM     23  N   LIG A   1      -6.638  -2.676 132.435  0.00  0.00    -0.298 NA
ATOM     24  C   LIG A   1      -7.781  -1.841 132.138  0.00  0.00    +0.086 C 
ATOM     25  C   LIG A   1      -7.291  -1.138 130.869  0.00  0.00    +0.030 C 
ENDROOT
BRANCH   1  26
ATOM     26  O   LIG A   1      -7.133  -2.146 125.306  0.00  0.00    -0.493 OA
ATOM     27  C   LIG A   1      -7.032  -3.250 124.404  0.00  0.00    +0.277 C 
ENDBRANCH   1  26
TORSDOF 1
ENDMDL
MODEL 2
REMARK VINA RESULT:      -8.2      4.200      7.196
REMARK  Name = NuBBE_2303
REMARK  3 active torsions:
REMARK  status: ('A' for Active; 'I' for Inactive)
REMARK    1  A    between atoms: C_1  and  O_27
REMARK    2  A    between atoms: C_15  and  C_17
REMARK    3  A    between atoms: O_27  and  C_28
REMARK                            x       y       z     vdW  Elec       q    Type
REMARK                         _______ _______ _______ _____ _____    ______ ____
ROOT
ATOM      1  C   LIG A   1      -5.926   4.314 125.974  0.00  0.00    +0.142 A 
ATOM      2  C   LIG A   1      -5.662   4.847 124.711  0.00  0.00    +0.047 A 
ATOM      3  C   LIG A   1      -6.015   4.146 123.549  0.00  0.00    +0.004 A 
ATOM      4  C   LIG A   1      -6.632   2.894 123.632  0.00  0.00    +0.006 A 
ATOM      5  C   LIG A   1      -6.908   2.370 124.889  0.00  0.00    -0.013 A 
ATOM      6  C   LIG A   1      -7.571   1.036 125.262  0.00  0.00    +0.036 C 
ATOM      7  C   LIG A   1      -7.179  -0.153 124.386  0.00  0.00    +0.075 C 
ATOM      8  C   LIG A   1      -6.467  -1.332 125.077  0.00  0.00    -0.013 C 
ATOM      9  C   LIG A   1      -5.218  -0.754 125.767  0.00  0.00    +0.010 C 
ATOM     10  C   LIG A   1      -5.522   0.442 126.698  0.00  0.00    +0.028 C 
ATOM     11  C   LIG A   1      -7.038   0.920 126.727  0.00  0.00    +0.053 C 
ATOM     12  N   LIG A   1      -7.047   2.375 127.193  0.00  0.00    -0.261 N 
ATOM     13  C   LIG A   1      -6.608   3.105 126.050  0.00  0.00    +0.083 A 
ATOM     14  C   LIG A   1      -8.067   2.903 128.000  0.00  0.00    +0.217 C 
ATOM     15  O   LIG A   1      -8.931   2.213 128.541  0.00  0.00    -0.276 OA
ATOM     16  C   LIG A   1      -8.107   4.393 128.246  0.00  0.00    +0.110 C 
ATOM     17  C   LIG A   1      -7.798  -0.065 127.647  0.00  0.00    +0.027 C 
ATOM     18  C   LIG A   1      -7.417  -1.534 127.534  0.00  0.00    +0.003 C 
ATOM     19  C   LIG A   1      -7.344  -2.099 126.122  0.00  0.00    +0.008 C 
ATOM     20  C   LIG A   1      -6.093  -2.352 123.946  0.00  0.00    +0.009 C 
ATOM     21  C   LIG A   1      -6.871  -2.159 122.624  0.00  0.00    +0.016 C 
ATOM     22  C   LIG A   1      -8.302  -1.613 122.766  0.00  0.00    +0.085 C 
ATOM     23  N   LIG A   1      -8.433  -0.661 123.850  0.00  0.00    -0.298 NA
ATOM     24  C   LIG A   1      -9.350   0.448 123.710  0.00  0.00    +0.086 C 
ATOM     25  C   LIG A   1      -9.094   1.190 125.025  0.00  0.00    +0.030 C 
ENDROOT
BRANCH   1  26
ATOM     26  O   LIG A   1      -5.457   5.022 127.043  0.00  0.00    -0.493 OA
ATOM     27  C   LIG A   1      -4.076   4.759 127.301  0.00  0.00    +0.277 C 
ENDBRANCH   1  26
TORSDOF 1
ENDMDL
MODEL 3
REMARK VINA RESULT:      -7.9      2.824      6.526
REMARK  Name = NuBBE_2303
REMARK  3 active torsions:
REMARK  status: ('A' for Active; 'I' for Inactive)
REMARK    1  A    between atoms: C_1  and  O_27
REMARK    2  A    between atoms: C_15  and  C_17
REMARK    3  A    between atoms: O_27  and  C_28
REMARK                            x       y       z     vdW  Elec       q    Type
REMARK                         _______ _______ _______ _____ _____    ______ ____
ROOT
ATOM      1  C   LIG A   1      -7.477  -1.207 129.953  0.00  0.00    +0.142 A 
ATOM      2  C   LIG A   1      -7.880  -2.542 130.030  0.00  0.00    +0.047 A 
ATOM      3  C   LIG A   1      -7.963  -3.333 128.875  0.00  0.00    +0.004 A 
ATOM      4  C   LIG A   1      -7.652  -2.799 127.621  0.00  0.00    +0.006 A 
ATOM      5  C   LIG A   1      -7.236  -1.475 127.546  0.00  0.00    -0.013 A 
ATOM      6  C   LIG A   1      -6.837  -0.650 126.314  0.00  0.00    +0.036 C 
ATOM      7  C   LIG A   1      -7.677  -0.900 125.063  0.00  0.00    +0.075 C 
ATOM      8  C   LIG A   1      -8.474   0.292 124.500  0.00  0.00    -0.013 C 
ATOM      9  C   LIG A   1      -9.373   0.804 125.640  0.00  0.00    +0.010 C 
ATOM     10  C   LIG A   1      -8.603   1.110 126.946  0.00  0.00    +0.028 C 
ATOM     11  C   LIG A   1      -7.048   0.776 126.919  0.00  0.00    +0.053 C 
ATOM     12  N   LIG A   1      -6.600   0.586 128.367  0.00  0.00    -0.261 N 
ATOM     13  C   LIG A   1      -7.096  -0.704 128.714  0.00  0.00    +0.083 A 
ATOM     14  C   LIG A   1      -5.334   0.985 128.823  0.00  0.00    +0.217 C 
ATOM     15  O   LIG A   1      -4.556   1.671 128.158  0.00  0.00    -0.276 OA
ATOM     16  C   LIG A   1      -4.895   0.579 130.210  0.00  0.00    +0.110 C 
ATOM     17  C   LIG A   1      -6.356   1.939 126.168  0.00  0.00    +0.027 C 
ATOM     18  C   LIG A   1      -7.084   2.492 124.951  0.00  0.00    +0.003 C 
ATOM     19  C   LIG A   1      -7.593   1.464 123.952  0.00  0.00    +0.008 C 
ATOM     20  C   LIG A   1      -9.314  -0.261 123.296  0.00  0.00    +0.009 C 
ATOM     21  C   LIG A   1      -8.822  -1.616 122.738  0.00  0.00    +0.016 C 
ATOM     22  C   LIG A   1      -7.308  -1.868 122.840  0.00  0.00    +0.085 C 
ATOM     23  N   LIG A   1      -6.724  -1.303 124.039  0.00  0.00    -0.298 NA
ATOM     24  C   LIG A   1      -5.628  -1.991 124.684  0.00  0.00    +0.086 C 
ATOM     25  C   LIG A   1      -5.410  -1.089 125.902  0.00  0.00    +0.030 C 
ENDROOT
BRANCH   1  26
ATOM     26  O   LIG A   1      -7.523  -0.490 131.114  0.00  0.00    -0.493 OA
ATOM     27  C   LIG A   1      -8.739   0.250 131.244  0.00  0.00    +0.277 C 
ENDBRANCH   1  26
TORSDOF 1
ENDMDL
MODEL 4
REMARK VINA RESULT:      -7.6      2.224      6.591
REMARK  Name = NuBBE_2303
REMARK  3 active torsions:
REMARK  status: ('A' for Active; 'I' for Inactive)
REMARK    1  A    between atoms: C_1  and  O_27
REMARK    2  A    between atoms: C_15  and  C_17
REMARK    3  A    between atoms: O_27  and  C_28
REMARK                            x       y       z     vdW  Elec       q    Type
REMARK                         _______ _______ _______ _____ _____    ______ ____
ROOT
ATOM      1  C   LIG A   1      -4.979  -1.456 129.520  0.00  0.00    +0.142 A 
ATOM      2  C   LIG A   1      -4.399  -0.218 129.806  0.00  0.00    +0.047 A 
ATOM      3  C   LIG A   1      -4.761   0.927 129.082  0.00  0.00    +0.004 A 
ATOM      4  C   LIG A   1      -5.703   0.851 128.053  0.00  0.00    +0.006 A 
ATOM      5  C   LIG A   1      -6.292  -0.377 127.778  0.00  0.00    -0.013 A 
ATOM      6  C   LIG A   1      -7.343  -0.736 126.718  0.00  0.00    +0.036 C 
ATOM      7  C   LIG A   1      -7.172  -0.039 125.369  0.00  0.00    +0.075 C 
ATOM      8  C   LIG A   1      -6.920  -0.935 124.141  0.00  0.00    -0.013 C 
ATOM      9  C   LIG A   1      -5.673  -1.781 124.456  0.00  0.00    +0.010 C 
ATOM     10  C   LIG A   1      -5.767  -2.547 125.796  0.00  0.00    +0.028 C 
ATOM     11  C   LIG A   1      -7.080  -2.276 126.650  0.00  0.00    +0.053 C 
ATOM     12  N   LIG A   1      -6.754  -2.615 128.104  0.00  0.00    -0.261 N 
ATOM     13  C   LIG A   1      -5.971  -1.510 128.548  0.00  0.00    +0.083 A 
ATOM     14  C   LIG A   1      -7.695  -3.189 128.973  0.00  0.00    +0.217 C 
ATOM     15  O   LIG A   1      -8.785  -3.626 128.604  0.00  0.00    -0.276 OA
ATOM     16  C   LIG A   1      -7.358  -3.305 130.441  0.00  0.00    +0.110 C 
ATOM     17  C   LIG A   1      -8.207  -3.127 126.018  0.00  0.00    +0.027 C 
ATOM     18  C   LIG A   1      -8.233  -3.200 124.498  0.00  0.00    +0.003 C 
ATOM     19  C   LIG A   1      -8.116  -1.872 123.763  0.00  0.00    +0.008 C 
ATOM     20  C   LIG A   1      -6.683   0.029 122.927  0.00  0.00    +0.009 C 
ATOM     21  C   LIG A   1      -7.178   1.476 123.149  0.00  0.00    +0.016 C 
ATOM     22  C   LIG A   1      -8.408   1.627 124.061  0.00  0.00    +0.085 C 
ATOM     23  N   LIG A   1      -8.427   0.662 125.141  0.00  0.00    -0.298 NA
ATOM     24  C   LIG A   1      -8.972   1.046 126.424  0.00  0.00    +0.086 C 
ATOM     25  C   LIG A   1      -8.715  -0.229 127.231  0.00  0.00    +0.030 C 
ENDROOT
BRANCH   1  26
ATOM     26  O   LIG A   1      -4.493  -2.529 130.209  0.00  0.00    -0.493 OA
ATOM     27  C   LIG A   1      -3.520  -3.258 129.457  0.00  0.00    +0.277 C 
ENDBRANCH   1  26
TORSDOF 1
ENDMDL
MODEL 5
REMARK VINA RESULT:      -7.4      6.739      9.119
REMARK  Name = NuBBE_2303
REMARK  3 active torsions:
REMARK  status: ('A' for Active; 'I' for Inactive)
REMARK    1  A    between atoms: C_1  and  O_27
REMARK    2  A    between atoms: C_15  and  C_17
REMARK    3  A    between atoms: O_27  and  C_28
REMARK                            x       y       z     vdW  Elec       q    Type
REMARK                         _______ _______ _______ _____ _____    ______ ____
ROOT
ATOM      1  C   LIG A   1      -8.787   5.625 131.578  0.00  0.00    +0.142 A 
ATOM      2  C   LIG A   1      -9.512   5.056 130.528  0.00  0.00    +0.047 A 
ATOM      3  C   LIG A   1      -8.860   4.344 129.512  0.00  0.00    +0.004 A 
ATOM      4  C   LIG A   1      -7.470   4.196 129.523  0.00  0.00    +0.006 A 
ATOM      5  C   LIG A   1      -6.751   4.749 130.575  0.00  0.00    -0.013 A 
ATOM      6  C   LIG A   1      -5.237   4.733 130.832  0.00  0.00    +0.036 C 
ATOM      7  C   LIG A   1      -4.364   4.901 129.590  0.00  0.00    +0.075 C 
ATOM      8  C   LIG A   1      -3.445   6.137 129.537  0.00  0.00    -0.013 C 
ATOM      9  C   LIG A   1      -4.348   7.371 129.713  0.00  0.00    +0.010 C 
ATOM     10  C   LIG A   1      -5.253   7.302 130.965  0.00  0.00    +0.028 C 
ATOM     11  C   LIG A   1      -5.159   5.954 131.805  0.00  0.00    +0.053 C 
ATOM     12  N   LIG A   1      -6.459   5.823 132.598  0.00  0.00    -0.261 N 
ATOM     13  C   LIG A   1      -7.415   5.409 131.624  0.00  0.00    +0.083 A 
ATOM     14  C   LIG A   1      -6.503   5.270 133.888  0.00  0.00    +0.217 C 
ATOM     15  O   LIG A   1      -5.499   5.014 134.552  0.00  0.00    -0.276 OA
ATOM     16  C   LIG A   1      -7.847   4.991 134.517  0.00  0.00    +0.110 C 
ATOM     17  C   LIG A   1      -3.877   6.054 132.665  0.00  0.00    +0.027 C 
ATOM     18  C   LIG A   1      -2.658   6.677 132.001  0.00  0.00    +0.003 C 
ATOM     19  C   LIG A   1      -2.310   6.150 130.615  0.00  0.00    +0.008 C 
ATOM     20  C   LIG A   1      -2.749   6.116 128.131  0.00  0.00    +0.009 C 
ATOM     21  C   LIG A   1      -2.796   4.749 127.411  0.00  0.00    +0.016 C 
ATOM     22  C   LIG A   1      -2.785   3.513 128.327  0.00  0.00    +0.085 C 
ATOM     23  N   LIG A   1      -3.507   3.725 129.565  0.00  0.00    -0.298 NA
ATOM     24  C   LIG A   1      -4.230   2.623 130.160  0.00  0.00    +0.086 C 
ATOM     25  C   LIG A   1      -4.868   3.325 131.362  0.00  0.00    +0.030 C 
ENDROOT
BRANCH   1  26
ATOM     26  O   LIG A   1      -9.496   6.383 132.465  0.00  0.00    -0.493 OA
ATOM     27  C   LIG A   1     -10.901   6.350 132.202  0.00  0.00    +0.277 C 
ENDBRANCH   1  26
TORSDOF 1
ENDMDL
MODEL 6
REMARK VINA RESULT:      -7.4      6.668      8.224
REMARK  Name = NuBBE_2303
REMARK  3 active torsions:
REMARK  status: ('A' for Active; 'I' for Inactive)
REMARK    1  A    between atoms: C_1  and  O_27
REMARK    2  A    between atoms: C_15  and  C_17
REMARK    3  A    between atoms: O_27  and  C_28
REMARK                            x       y       z     vdW  Elec       q    Type
REMARK                         _______ _______ _______ _____ _____    ______ ____
ROOT
ATOM      1  C   LIG A   1      -3.883   3.969 128.549  0.00  0.00    +0.142 A 
ATOM      2  C   LIG A   1      -4.816   3.370 127.699  0.00  0.00    +0.047 A 
ATOM      3  C   LIG A   1      -6.187   3.434 127.981  0.00  0.00    +0.004 A 
ATOM      4  C   LIG A   1      -6.650   4.091 129.125  0.00  0.00    +0.006 A 
ATOM      5  C   LIG A   1      -5.724   4.700 129.963  0.00  0.00    -0.013 A 
ATOM      6  C   LIG A   1      -5.956   5.480 131.265  0.00  0.00    +0.036 C 
ATOM      7  C   LIG A   1      -7.043   4.913 132.178  0.00  0.00    +0.075 C 
ATOM      8  C   LIG A   1      -6.610   4.444 133.580  0.00  0.00    -0.013 C 
ATOM      9  C   LIG A   1      -5.500   3.396 133.375  0.00  0.00    +0.010 C 
ATOM     10  C   LIG A   1      -4.340   3.892 132.482  0.00  0.00    +0.028 C 
ATOM     11  C   LIG A   1      -4.520   5.348 131.868  0.00  0.00    +0.053 C 
ATOM     12  N   LIG A   1      -3.636   5.429 130.624  0.00  0.00    -0.261 N 
ATOM     13  C   LIG A   1      -4.355   4.686 129.642  0.00  0.00    +0.083 A 
ATOM     14  C   LIG A   1      -2.969   6.606 130.249  0.00  0.00    +0.217 C 
ATOM     15  O   LIG A   1      -2.892   7.603 130.967  0.00  0.00    -0.276 OA
ATOM     16  C   LIG A   1      -2.283   6.660 128.904  0.00  0.00    +0.110 C 
ATOM     17  C   LIG A   1      -4.163   6.352 132.990  0.00  0.00    +0.027 C 
ATOM     18  C   LIG A   1      -4.638   6.002 134.393  0.00  0.00    +0.003 C 
ATOM     19  C   LIG A   1      -6.097   5.585 134.519  0.00  0.00    +0.008 C 
ATOM     20  C   LIG A   1      -7.883   3.823 134.255  0.00  0.00    +0.009 C 
ATOM     21  C   LIG A   1      -9.221   4.225 133.595  0.00  0.00    +0.016 C 
ATOM     22  C   LIG A   1      -9.256   5.626 132.959  0.00  0.00    +0.085 C 
ATOM     23  N   LIG A   1      -7.991   6.003 132.362  0.00  0.00    -0.298 NA
ATOM     24  C   LIG A   1      -7.987   6.815 131.166  0.00  0.00    +0.086 C 
ATOM     25  C   LIG A   1      -6.485   6.884 130.880  0.00  0.00    +0.030 C 
ENDROOT
BRANCH   1  26
ATOM     26  O   LIG A   1      -2.567   3.770 128.245  0.00  0.00    -0.493 OA
ATOM     27  C   LIG A   1      -2.378   3.403 126.877  0.00  0.00    +0.277 C 
ENDBRANCH   1  26
TORSDOF 1
ENDMDL
MODEL 7
REMARK VINA RESULT:      -7.4      2.886      5.456
REMARK  Name = NuBBE_2303
REMARK  3 active torsions:
REMARK  status: ('A' for Active; 'I' for Inactive)
REMARK    1  A    between atoms: C_1  and  O_27
REMARK    2  A    between atoms: C_15  and  C_17
REMARK    3  A    between atoms: O_27  and  C_28
REMARK                            x       y       z     vdW  Elec       q    Type
REMARK                         _______ _______ _______ _____ _____    ______ ____
ROOT
ATOM      1  C   LIG A   1      -8.326   3.670 129.258  0.00  0.00    +0.142 A 
ATOM      2  C   LIG A   1      -9.188   3.501 130.344  0.00  0.00    +0.047 A 
ATOM      3  C   LIG A   1      -9.340   2.245 130.948  0.00  0.00    +0.004 A 
ATOM      4  C   LIG A   1      -8.638   1.134 130.470  0.00  0.00    +0.006 A 
ATOM      5  C   LIG A   1      -7.769   1.306 129.400  0.00  0.00    -0.013 A 
ATOM      6  C   LIG A   1      -6.886   0.270 128.689  0.00  0.00    +0.036 C 
ATOM      7  C   LIG A   1      -7.520  -1.107 128.501  0.00  0.00    +0.075 C 
ATOM      8  C   LIG A   1      -7.721  -1.598 127.054  0.00  0.00    -0.013 C 
ATOM      9  C   LIG A   1      -8.566  -0.530 126.336  0.00  0.00    +0.010 C 
ATOM     10  C   LIG A   1      -7.985   0.899 126.450  0.00  0.00    +0.028 C 
ATOM     11  C   LIG A   1      -6.676   1.037 127.343  0.00  0.00    +0.053 C 
ATOM     12  N   LIG A   1      -6.594   2.491 127.806  0.00  0.00    -0.261 N 
ATOM     13  C   LIG A   1      -7.574   2.580 128.837  0.00  0.00    +0.083 A 
ATOM     14  C   LIG A   1      -5.373   3.168 127.952  0.00  0.00    +0.217 C 
ATOM     15  O   LIG A   1      -4.296   2.720 127.559  0.00  0.00    -0.276 OA
ATOM     16  C   LIG A   1      -5.366   4.530 128.606  0.00  0.00    +0.110 C 
ATOM     17  C   LIG A   1      -5.490   0.561 126.471  0.00  0.00    +0.027 C 
ATOM     18  C   LIG A   1      -5.739  -0.652 125.586  0.00  0.00    +0.003 C 
ATOM     19  C   LIG A   1      -6.395  -1.848 126.262  0.00  0.00    +0.008 C 
ATOM     20  C   LIG A   1      -8.472  -2.972 127.150  0.00  0.00    +0.009 C 
ATOM     21  C   LIG A   1      -8.408  -3.644 128.540  0.00  0.00    +0.016 C 
ATOM     22  C   LIG A   1      -7.129  -3.374 129.352  0.00  0.00    +0.085 C 
ATOM     23  N   LIG A   1      -6.607  -2.038 129.149  0.00  0.00    -0.298 NA
ATOM     24  C   LIG A   1      -5.966  -1.354 130.249  0.00  0.00    +0.086 C 
ATOM     25  C   LIG A   1      -5.662  -0.002 129.599  0.00  0.00    +0.030 C 
ENDROOT
BRANCH   1  26
ATOM     26  O   LIG A   1      -8.319   4.904 128.674  0.00  0.00    -0.493 OA
ATOM     27  C   LIG A   1      -9.283   5.783 129.258  0.00  0.00    +0.277 C 
ENDBRANCH   1  26
TORSDOF 1
ENDMDL
MODEL 8
REMARK VINA RESULT:      -7.1      6.109      8.707
REMARK  Name = NuBBE_2303
REMARK  3 active torsions:
REMARK  status: ('A' for Active; 'I' for Inactive)
REMARK    1  A    between atoms: C_1  and  O_27
REMARK    2  A    between atoms: C_15  and  C_17
REMARK    3  A    between atoms: O_27  and  C_28
REMARK                            x       y       z     vdW  Elec       q    Type
REMARK                         _______ _______ _______ _____ _____    ______ ____
ROOT
ATOM      1  C   LIG A   1      -3.942   5.272 130.357  0.00  0.00    +0.142 A 
ATOM      2  C   LIG A   1      -3.888   6.652 130.146  0.00  0.00    +0.047 A 
ATOM      3  C   LIG A   1      -4.972   7.472 130.488  0.00  0.00    +0.004 A 
ATOM      4  C   LIG A   1      -6.133   6.925 131.041  0.00  0.00    +0.006 A 
ATOM      5  C   LIG A   1      -6.182   5.555 131.266  0.00  0.00    -0.013 A 
ATOM      6  C   LIG A   1      -7.317   4.706 131.855  0.00  0.00    +0.036 C 
ATOM      7  C   LIG A   1      -8.726   5.113 131.424  0.00  0.00    +0.075 C 
ATOM      8  C   LIG A   1      -9.550   4.073 130.642  0.00  0.00    -0.013 C 
ATOM      9  C   LIG A   1      -8.717   3.681 129.408  0.00  0.00    +0.010 C 
ATOM     10  C   LIG A   1      -7.279   3.228 129.751  0.00  0.00    +0.028 C 
ATOM     11  C   LIG A   1      -6.881   3.317 131.288  0.00  0.00    +0.053 C 
ATOM     12  N   LIG A   1      -5.356   3.401 131.357  0.00  0.00    -0.261 N 
ATOM     13  C   LIG A   1      -5.069   4.745 130.978  0.00  0.00    +0.083 A 
ATOM     14  C   LIG A   1      -4.614   2.799 132.385  0.00  0.00    +0.217 C 
ATOM     15  O   LIG A   1      -5.096   2.017 133.204  0.00  0.00    -0.276 OA
ATOM     16  C   LIG A   1      -3.138   3.100 132.493  0.00  0.00    +0.110 C 
ATOM     17  C   LIG A   1      -7.498   2.079 131.980  0.00  0.00    +0.027 C 
ATOM     18  C   LIG A   1      -8.895   1.673 131.530  0.00  0.00    +0.003 C 
ATOM     19  C   LIG A   1      -9.925   2.792 131.459  0.00  0.00    +0.008 C 
ATOM     20  C   LIG A   1     -10.894   4.778 130.242  0.00  0.00    +0.009 C 
ATOM     21  C   LIG A   1     -11.217   6.052 131.055  0.00  0.00    +0.016 C 
ATOM     22  C   LIG A   1     -10.711   6.062 132.507  0.00  0.00    +0.085 C 
ATOM     23  N   LIG A   1      -9.440   5.386 132.663  0.00  0.00    -0.298 NA
ATOM     24  C   LIG A   1      -8.490   5.879 133.635  0.00  0.00    +0.086 C 
ATOM     25  C   LIG A   1      -7.317   4.927 133.389  0.00  0.00    +0.030 C 
ENDROOT
BRANCH   1  26
ATOM     26  O   LIG A   1      -2.881   4.544 129.901  0.00  0.00    -0.493 OA
ATOM     27  C   LIG A   1      -2.642   4.752 128.508  0.00  0.00    +0.277 C 
ENDBRANCH   1  26
TORSDOF 1
ENDMDL
MODEL 9
REMARK VINA RESULT:      -7.1      2.538      4.124
REMARK  Name = NuBBE_2303
REMARK  3 active torsions:
REMARK  status: ('A' for Active; 'I' for Inactive)
REMARK    1  A    between atoms: C_1  and  O_27
REMARK    2  A    between atoms: C_15  and  C_17
REMARK    3  A    between atoms: O_27  and  C_28
REMARK                            x       y       z     vdW  Elec       q    Type
REMARK                         _______ _______ _______ _____ _____    ______ ____
ROOT
ATOM      1  C   LIG A   1      -8.473   1.940 128.429  0.00  0.00    +0.142 A 
ATOM      2  C   LIG A   1      -8.724   1.380 127.174  0.00  0.00    +0.047 A 
ATOM      3  C   LIG A   1      -8.331   0.066 126.884  0.00  0.00    +0.004 A 
ATOM      4  C   LIG A   1      -7.672  -0.708 127.843  0.00  0.00    +0.006 A 
ATOM      5  C   LIG A   1      -7.436  -0.157 129.096  0.00  0.00    -0.013 A 
ATOM      6  C   LIG A   1      -6.744  -0.780 130.318  0.00  0.00    +0.036 C 
ATOM      7  C   LIG A   1      -5.528  -1.650 130.004  0.00  0.00    +0.075 C 
ATOM      8  C   LIG A   1      -4.172  -1.198 130.579  0.00  0.00    -0.013 C 
ATOM      9  C   LIG A   1      -3.932   0.237 130.076  0.00  0.00    +0.010 C 
ATOM     10  C   LIG A   1      -5.104   1.201 130.374  0.00  0.00    +0.028 C 
ATOM     11  C   LIG A   1      -6.374   0.541 131.068  0.00  0.00    +0.053 C 
ATOM     12  N   LIG A   1      -7.575   1.436 130.761  0.00  0.00    -0.261 N 
ATOM     13  C   LIG A   1      -7.887   1.139 129.402  0.00  0.00    +0.083 A 
ATOM     14  C   LIG A   1      -8.615   1.643 131.680  0.00  0.00    +0.217 C 
ATOM     15  O   LIG A   1      -8.569   1.276 132.854  0.00  0.00    -0.276 OA
ATOM     16  C   LIG A   1      -9.857   2.374 131.225  0.00  0.00    +0.110 C 
ATOM     17  C   LIG A   1      -6.036   0.395 132.570  0.00  0.00    +0.027 C 
ATOM     18  C   LIG A   1      -4.617  -0.037 132.909  0.00  0.00    +0.003 C 
ATOM     19  C   LIG A   1      -4.081  -1.237 132.141  0.00  0.00    +0.008 C 
ATOM     20  C   LIG A   1      -3.097  -2.199 130.026  0.00  0.00    +0.009 C 
ATOM     21  C   LIG A   1      -3.674  -3.527 129.484  0.00  0.00    +0.016 C 
ATOM     22  C   LIG A   1      -4.954  -4.028 130.175  0.00  0.00    +0.085 C 
ATOM     23  N   LIG A   1      -5.830  -2.951 130.585  0.00  0.00    -0.298 NA
ATOM     24  C   LIG A   1      -7.262  -3.147 130.539  0.00  0.00    +0.086 C 
ATOM     25  C   LIG A   1      -7.748  -1.761 130.973  0.00  0.00    +0.030 C 
ENDROOT
BRANCH   1  26
ATOM     26  O   LIG A   1      -8.802   3.256 128.584  0.00  0.00    -0.493 OA
ATOM     27  C   LIG A   1      -7.692   4.123 128.339  0.00  0.00    +0.277 C 
ENDBRANCH   1  26
TORSDOF 1
ENDMDL
