REMARK  Name = NuBBE_300
REMARK  16 active torsions:
REMARK  status: ('A' for Active; 'I' for Inactive)
REMARK    1  A    between atoms: O_1  and  C_2
REMARK    2  A    between atoms: C_4  and  C_6
REMARK    3  A    between atoms: C_10  and  C_12
REMARK    4  A    between atoms: C_12  and  C_13
REMARK    5  A    between atoms: C_13  and  C_14
REMARK    6  A    between atoms: C_14  and  C_15
REMARK    7  A    between atoms: C_15  and  C_16
REMARK    8  A    between atoms: C_16  and  C_17
REMARK    9  A    between atoms: C_17  and  C_18
REMARK   10  A    between atoms: C_18  and  C_19
REMARK   11  A    between atoms: C_19  and  C_20
REMARK   12  A    between atoms: C_20  and  C_21
REMARK   13  A    between atoms: C_21  and  C_22
REMARK   14  A    between atoms: C_22  and  C_23
REMARK   15  A    between atoms: C_23  and  C_24
REMARK   16  A    between atoms: C_24  and  C_25
REMARK                            x       y       z     vdW  Elec       q    Type
REMARK                         _______ _______ _______ _____ _____    ______ ____
ROOT
ATOM      1  C   LIG A   1      -1.323   1.461   1.788  0.00  0.00    +0.005 C 
ENDROOT
BRANCH   1   2
ATOM      2  C   LIG A   1      -2.587   1.921   2.518  0.00  0.00    +0.054 C 
BRANCH   2   9
ATOM      3  C   LIG A   1      -3.158   5.799   4.278  0.00  0.00    +0.163 C 
ATOM      4  C   LIG A   1      -3.477   4.572   5.146  0.00  0.00    +0.089 C 
ATOM      5  C   LIG A   1      -4.779   4.654   5.925  0.00  0.00    +0.066 C 
ATOM      6  N   LIG A   1      -3.605   3.435   4.153  0.00  0.00    +0.233 N 
ATOM      7  H   LIG A   1      -4.252   3.831   3.440  0.00  0.00    +0.202 HD
ATOM      8  H   LIG A   1      -4.075   2.627   4.571  0.00  0.00    +0.202 HD
ATOM      9  C   LIG A   1      -2.315   3.088   3.477  0.00  0.00    +0.063 C 
ATOM     10  C   LIG A   1      -1.753   4.331   2.768  0.00  0.00    +0.057 C 
ATOM     11  C   LIG A   1      -1.787   5.598   3.630  0.00  0.00    +0.042 C 
BRANCH   3  12
ATOM     12  O   LIG A   1      -4.117   5.823   3.208  0.00  0.00    -0.386 OA
ATOM     13  H   LIG A   1      -4.791   6.520   3.462  0.00  0.00    +0.210 HD
ENDBRANCH   3  12
ENDBRANCH   2   9
ENDBRANCH   1   2
BRANCH   1  14
ATOM     14  C   LIG A   1      -1.600   0.297   0.838  0.00  0.00    +0.000 C 
BRANCH  14  15
ATOM     15  C   LIG A   1      -0.309  -0.134   0.144  0.00  0.00    -0.000 C 
BRANCH  15  16
ATOM     16  C   LIG A   1      -0.550  -1.275  -0.840  0.00  0.00    -0.000 C 
BRANCH  16  17
ATOM     17  C   LIG A   1       0.755  -1.685  -1.517  0.00  0.00    -0.000 C 
BRANCH  17  18
ATOM     18  C   LIG A   1       0.525  -2.822  -2.509  0.00  0.00    -0.000 C 
BRANCH  18  19
ATOM     19  C   LIG A   1       1.839  -3.243  -3.152  0.00  0.00    -0.000 C 
BRANCH  19  20
ATOM     20  C   LIG A   1       1.633  -4.393  -4.139  0.00  0.00    +0.000 C 
BRANCH  20  21
ATOM     21  C   LIG A   1       2.940  -4.839  -4.785  0.00  0.00    +0.000 C 
BRANCH  21  22
ATOM     22  C   LIG A   1       3.972  -5.328  -3.761  0.00  0.00    +0.007 C 
BRANCH  22  23
ATOM     23  C   LIG A   1       5.292  -5.727  -4.407  0.00  0.00    +0.074 C 
BRANCH  23  24
ATOM     24  C   LIG A   1       5.979  -4.551  -5.090  0.00  0.00    +0.130 C 
ATOM     25  C   LIG A   1       7.273  -4.840  -5.800  0.00  0.00    +0.086 C 
ATOM     26  O   LIG A   1       5.537  -3.409  -5.079  0.00  0.00    -0.298 OA
ENDBRANCH  23  24
ENDBRANCH  22  23
ENDBRANCH  21  22
ENDBRANCH  20  21
ENDBRANCH  19  20
ENDBRANCH  18  19
ENDBRANCH  17  18
ENDBRANCH  16  17
ENDBRANCH  15  16
ENDBRANCH  14  15
ENDBRANCH   1  14
TORSDOF 14
REMARK  Name = NuBBE_300
REMARK  16 active torsions:
REMARK  status: ('A' for Active; 'I' for Inactive)
REMARK    1  A    between atoms: O_1  and  C_2
REMARK    2  A    between atoms: C_4  and  C_6
REMARK    3  A    between atoms: C_10  and  C_12
REMARK    4  A    between atoms: C_12  and  C_13
REMARK    5  A    between atoms: C_13  and  C_14
REMARK    6  A    between atoms: C_14  and  C_15
REMARK    7  A    between atoms: C_15  and  C_16
REMARK    8  A    between atoms: C_16  and  C_17
REMARK    9  A    between atoms: C_17  and  C_18
REMARK   10  A    between atoms: C_18  and  C_19
REMARK   11  A    between atoms: C_19  and  C_20
REMARK   12  A    between atoms: C_20  and  C_21
REMARK   13  A    between atoms: C_21  and  C_22
REMARK   14  A    between atoms: C_22  and  C_23
REMARK   15  A    between atoms: C_23  and  C_24
REMARK   16  A    between atoms: C_24  and  C_25
REMARK                            x       y       z     vdW  Elec       q    Type
REMARK                         _______ _______ _______ _____ _____    ______ ____
ROOT
ATOM      1 CL   LIG A   2      -6.143   7.796   4.429  0.00  0.00    +0.000 Cl
ENDROOT
TORSDOF 0
