MODEL 1
REMARK VINA RESULT:      -7.8      0.000      0.000
REMARK  Name = NuBBE_2521
REMARK  9 active torsions:
REMARK  status: ('A' for Active; 'I' for Inactive)
REMARK    1  A    between atoms: C_1  and  C_2
REMARK    2  A    between atoms: C_1  and  C_4
REMARK    3  A    between atoms: C_5  and  C_7
REMARK    4  A    between atoms: C_8  and  C_20
REMARK    5  A    between atoms: C_16  and  O_18
REMARK    6  A    between atoms: O_18  and  C_19
REMARK    7  A    between atoms: C_22  and  O_23
REMARK    8  A    between atoms: O_23  and  C_24
REMARK    9  A    between atoms: C_25  and  O_28
REMARK                            x       y       z     vdW  Elec       q    Type
REMARK                         _______ _______ _______ _____ _____    ______ ____
ROOT
ATOM      1  C   LIG A   1      -8.386  -2.281 125.399  0.00  0.00    +0.058 C 
ATOM      2  C   LIG A   1      -8.130  -0.743 125.539  0.00  0.00    +0.012 C 
ATOM      3  C   LIG A   1      -9.076   0.051 126.442  0.00  0.00    +0.009 C 
ATOM      4  C   LIG A   1      -8.191  -0.178 124.077  0.00  0.00    +0.041 C 
ATOM      5  C   LIG A   1      -8.002  -1.396 123.164  0.00  0.00    +0.138 C 
ATOM      6  C   LIG A   1      -8.827  -2.361 123.949  0.00  0.00    +0.155 C 
ATOM      7  O   LIG A   1      -9.615  -3.170 123.465  0.00  0.00    -0.296 OA
ATOM      8  C   LIG A   1      -6.581  -1.926 123.133  0.00  0.00    +0.208 C 
ATOM      9  O   LIG A   1      -5.832  -1.617 122.208  0.00  0.00    -0.288 OA
ATOM     10  C   LIG A   1      -6.155  -2.828 124.289  0.00  0.00    +0.160 C 
ATOM     11  C   LIG A   1      -7.029  -2.988 125.308  0.00  0.00    +0.037 C 
ENDROOT
BRANCH   4  12
ATOM     12  C   LIG A   1      -7.386   1.076 123.775  0.00  0.00    -0.039 A 
ATOM     13  C   LIG A   1      -7.588   1.750 122.553  0.00  0.00    +0.053 A 
ATOM     14  C   LIG A   1      -7.044   3.021 122.334  0.00  0.00    +0.162 A 
ATOM     15  C   LIG A   1      -6.263   3.605 123.335  0.00  0.00    +0.159 A 
ATOM     16  C   LIG A   1      -6.002   2.944 124.521  0.00  0.00    +0.049 A 
ATOM     17  C   LIG A   1      -6.561   1.686 124.737  0.00  0.00    +0.008 A 
BRANCH  14  18
ATOM     18  O   LIG A   1      -7.226   3.801 121.221  0.00  0.00    -0.491 OA
ATOM     19  C   LIG A   1      -8.535   3.817 120.665  0.00  0.00    +0.277 C 
ENDBRANCH  14  18
BRANCH  15  20
ATOM     20  O   LIG A   1      -5.754   4.865 123.176  0.00  0.00    -0.503 OA
ATOM     21  H   LIG A   1      -6.068   5.362 123.955  0.00  0.00    +0.292 HD
ENDBRANCH  15  20
ENDBRANCH   4  12
BRANCH  10  22
ATOM     22  O   LIG A   1      -4.935  -3.478 124.367  0.00  0.00    -0.492 OA
ATOM     23  C   LIG A   1      -4.793  -4.692 123.639  0.00  0.00    +0.277 C 
ENDBRANCH  10  22
BRANCH   1  24
ATOM     24  C   LIG A   1      -9.413  -2.966 126.319  0.00  0.00    +0.045 C 
BRANCH  24  25
ATOM     25  C   LIG A   1      -8.838  -3.879 127.371  0.00  0.00    -0.033 C 
ATOM     26  C   LIG A   1      -8.670  -3.526 128.654  0.00  0.00    +0.004 C 
ENDBRANCH  24  25
ENDBRANCH   1  24
TORSDOF 6
ENDMDL
MODEL 2
REMARK VINA RESULT:      -7.2      7.541      9.355
REMARK  Name = NuBBE_2521
REMARK  9 active torsions:
REMARK  status: ('A' for Active; 'I' for Inactive)
REMARK    1  A    between atoms: C_1  and  C_2
REMARK    2  A    between atoms: C_1  and  C_4
REMARK    3  A    between atoms: C_5  and  C_7
REMARK    4  A    between atoms: C_8  and  C_20
REMARK    5  A    between atoms: C_16  and  O_18
REMARK    6  A    between atoms: O_18  and  C_19
REMARK    7  A    between atoms: C_22  and  O_23
REMARK    8  A    between atoms: O_23  and  C_24
REMARK    9  A    between atoms: C_25  and  O_28
REMARK                            x       y       z     vdW  Elec       q    Type
REMARK                         _______ _______ _______ _____ _____    ______ ____
ROOT
ATOM      1  C   LIG A   1      -7.367   4.211 131.182  0.00  0.00    +0.058 C 
ATOM      2  C   LIG A   1      -7.884   5.658 130.882  0.00  0.00    +0.012 C 
ATOM      3  C   LIG A   1      -7.026   6.829 131.366  0.00  0.00    +0.009 C 
ATOM      4  C   LIG A   1      -9.306   5.734 131.539  0.00  0.00    +0.041 C 
ATOM      5  C   LIG A   1      -9.733   4.275 131.751  0.00  0.00    +0.138 C 
ATOM      6  C   LIG A   1      -8.407   3.743 132.183  0.00  0.00    +0.155 C 
ATOM      7  O   LIG A   1      -8.233   2.949 133.105  0.00  0.00    -0.296 OA
ATOM      8  C   LIG A   1     -10.121   3.557 130.473  0.00  0.00    +0.208 C 
ATOM      9  O   LIG A   1     -11.308   3.441 130.171  0.00  0.00    -0.288 OA
ATOM     10  C   LIG A   1      -8.983   3.014 129.611  0.00  0.00    +0.160 C 
ATOM     11  C   LIG A   1      -7.720   3.317 129.987  0.00  0.00    +0.037 C 
ENDROOT
BRANCH   4  12
ATOM     12  C   LIG A   1     -10.313   6.692 130.924  0.00  0.00    -0.039 A 
ATOM     13  C   LIG A   1     -10.012   7.318 129.696  0.00  0.00    +0.053 A 
ATOM     14  C   LIG A   1     -10.994   8.019 128.987  0.00  0.00    +0.162 A 
ATOM     15  C   LIG A   1     -12.278   8.123 129.528  0.00  0.00    +0.159 A 
ATOM     16  C   LIG A   1     -12.586   7.568 130.756  0.00  0.00    +0.049 A 
ATOM     17  C   LIG A   1     -11.608   6.857 131.448  0.00  0.00    +0.008 A 
BRANCH  14  18
ATOM     18  O   LIG A   1     -10.841   8.609 127.758  0.00  0.00    -0.491 OA
ATOM     19  C   LIG A   1     -10.866   7.742 126.631  0.00  0.00    +0.277 C 
ENDBRANCH  14  18
BRANCH  15  20
ATOM     20  O   LIG A   1     -13.274   8.760 128.842  0.00  0.00    -0.503 OA
ATOM     21  H   LIG A   1     -13.408   8.223 128.038  0.00  0.00    +0.292 HD
ENDBRANCH  15  20
ENDBRANCH   4  12
BRANCH  10  22
ATOM     22  O   LIG A   1      -9.159   2.248 128.472  0.00  0.00    -0.492 OA
ATOM     23  C   LIG A   1      -8.082   2.202 127.542  0.00  0.00    +0.277 C 
ENDBRANCH  10  22
BRANCH   1  24
ATOM     24  C   LIG A   1      -5.946   4.014 131.741  0.00  0.00    +0.045 C 
BRANCH  24  25
ATOM     25  C   LIG A   1      -4.853   3.880 130.711  0.00  0.00    -0.033 C 
ATOM     26  C   LIG A   1      -4.129   2.766 130.533  0.00  0.00    +0.004 C 
ENDBRANCH  24  25
ENDBRANCH   1  24
TORSDOF 6
ENDMDL
MODEL 3
REMARK VINA RESULT:      -7.1      1.915      2.590
REMARK  Name = NuBBE_2521
REMARK  9 active torsions:
REMARK  status: ('A' for Active; 'I' for Inactive)
REMARK    1  A    between atoms: C_1  and  C_2
REMARK    2  A    between atoms: C_1  and  C_4
REMARK    3  A    between atoms: C_5  and  C_7
REMARK    4  A    between atoms: C_8  and  C_20
REMARK    5  A    between atoms: C_16  and  O_18
REMARK    6  A    between atoms: O_18  and  C_19
REMARK    7  A    between atoms: C_22  and  O_23
REMARK    8  A    between atoms: O_23  and  C_24
REMARK    9  A    between atoms: C_25  and  O_28
REMARK                            x       y       z     vdW  Elec       q    Type
REMARK                         _______ _______ _______ _____ _____    ______ ____
ROOT
ATOM      1  C   LIG A   1      -6.616  -1.999 126.631  0.00  0.00    +0.058 C 
ATOM      2  C   LIG A   1      -6.871  -0.470 126.413  0.00  0.00    +0.012 C 
ATOM      3  C   LIG A   1      -7.014   0.407 127.659  0.00  0.00    +0.009 C 
ATOM      4  C   LIG A   1      -8.179  -0.387 125.551  0.00  0.00    +0.041 C 
ATOM      5  C   LIG A   1      -8.344  -1.781 124.931  0.00  0.00    +0.138 C 
ATOM      6  C   LIG A   1      -7.922  -2.577 126.121  0.00  0.00    +0.155 C 
ATOM      7  O   LIG A   1      -8.473  -3.604 126.513  0.00  0.00    -0.296 OA
ATOM      8  C   LIG A   1      -7.364  -2.075 123.811  0.00  0.00    +0.208 C 
ATOM      9  O   LIG A   1      -7.716  -1.950 122.640  0.00  0.00    -0.288 OA
ATOM     10  C   LIG A   1      -5.959  -2.511 124.219  0.00  0.00    +0.160 C 
ATOM     11  C   LIG A   1      -5.658  -2.487 125.538  0.00  0.00    +0.037 C 
ENDROOT
BRANCH   4  12
ATOM     12  C   LIG A   1      -8.349   0.823 124.648  0.00  0.00    -0.039 A 
ATOM     13  C   LIG A   1      -7.227   1.617 124.336  0.00  0.00    +0.053 A 
ATOM     14  C   LIG A   1      -7.291   2.594 123.335  0.00  0.00    +0.162 A 
ATOM     15  C   LIG A   1      -8.501   2.799 122.666  0.00  0.00    +0.159 A 
ATOM     16  C   LIG A   1      -9.632   2.074 122.989  0.00  0.00    +0.049 A 
ATOM     17  C   LIG A   1      -9.555   1.092 123.975  0.00  0.00    +0.008 A 
BRANCH  14  18
ATOM     18  O   LIG A   1      -6.254   3.377 122.897  0.00  0.00    -0.491 OA
ATOM     19  C   LIG A   1      -5.656   4.235 123.861  0.00  0.00    +0.277 C 
ENDBRANCH  14  18
BRANCH  15  20
ATOM     20  O   LIG A   1      -8.589   3.710 121.650  0.00  0.00    -0.503 OA
ATOM     21  H   LIG A   1      -7.953   4.412 121.887  0.00  0.00    +0.292 HD
ENDBRANCH  15  20
ENDBRANCH   4  12
BRANCH  10  22
ATOM     22  O   LIG A   1      -4.975  -2.915 123.333  0.00  0.00    -0.492 OA
ATOM     23  C   LIG A   1      -4.375  -4.187 123.557  0.00  0.00    +0.277 C 
ENDBRANCH  10  22
BRANCH   1  24
ATOM     24  C   LIG A   1      -6.304  -2.521 128.046  0.00  0.00    +0.045 C 
BRANCH  24  25
ATOM     25  C   LIG A   1      -4.842  -2.594 128.406  0.00  0.00    -0.033 C 
ATOM     26  C   LIG A   1      -4.341  -3.429 129.327  0.00  0.00    +0.004 C 
ENDBRANCH  24  25
ENDBRANCH   1  24
TORSDOF 6
ENDMDL
MODEL 4
REMARK VINA RESULT:      -6.9      8.035     10.922
REMARK  Name = NuBBE_2521
REMARK  9 active torsions:
REMARK  status: ('A' for Active; 'I' for Inactive)
REMARK    1  A    between atoms: C_1  and  C_2
REMARK    2  A    between atoms: C_1  and  C_4
REMARK    3  A    between atoms: C_5  and  C_7
REMARK    4  A    between atoms: C_8  and  C_20
REMARK    5  A    between atoms: C_16  and  O_18
REMARK    6  A    between atoms: O_18  and  C_19
REMARK    7  A    between atoms: C_22  and  O_23
REMARK    8  A    between atoms: O_23  and  C_24
REMARK    9  A    between atoms: C_25  and  O_28
REMARK                            x       y       z     vdW  Elec       q    Type
REMARK                         _______ _______ _______ _____ _____    ______ ____
ROOT
ATOM      1  C   LIG A   1      -3.847   5.482 129.243  0.00  0.00    +0.058 C 
ATOM      2  C   LIG A   1      -5.198   4.855 129.725  0.00  0.00    +0.012 C 
ATOM      3  C   LIG A   1      -6.126   4.273 128.657  0.00  0.00    +0.009 C 
ATOM      4  C   LIG A   1      -5.934   6.003 130.500  0.00  0.00    +0.041 C 
ATOM      5  C   LIG A   1      -4.843   7.027 130.839  0.00  0.00    +0.138 C 
ATOM      6  C   LIG A   1      -4.091   6.947 129.551  0.00  0.00    +0.155 C 
ATOM      7  O   LIG A   1      -3.636   7.912 128.941  0.00  0.00    -0.296 OA
ATOM      8  C   LIG A   1      -3.905   6.583 131.945  0.00  0.00    +0.208 C 
ATOM      9  O   LIG A   1      -4.080   6.985 133.095  0.00  0.00    -0.288 OA
ATOM     10  C   LIG A   1      -2.777   5.631 131.555  0.00  0.00    +0.160 C 
ATOM     11  C   LIG A   1      -2.769   5.162 130.287  0.00  0.00    +0.037 C 
ENDROOT
BRANCH   4  12
ATOM     12  C   LIG A   1      -6.902   5.598 131.600  0.00  0.00    -0.039 A 
ATOM     13  C   LIG A   1      -8.104   6.318 131.763  0.00  0.00    +0.053 A 
ATOM     14  C   LIG A   1      -9.119   5.843 132.602  0.00  0.00    +0.162 A 
ATOM     15  C   LIG A   1      -8.913   4.654 133.308  0.00  0.00    +0.159 A 
ATOM     16  C   LIG A   1      -7.724   3.957 133.211  0.00  0.00    +0.049 A 
ATOM     17  C   LIG A   1      -6.725   4.429 132.361  0.00  0.00    +0.008 A 
BRANCH  14  18
ATOM     18  O   LIG A   1     -10.351   6.414 132.788  0.00  0.00    -0.491 OA
ATOM     19  C   LIG A   1     -11.240   6.384 131.678  0.00  0.00    +0.277 C 
ENDBRANCH  14  18
BRANCH  15  20
ATOM     20  O   LIG A   1      -9.900   4.135 134.100  0.00  0.00    -0.503 OA
ATOM     21  H   LIG A   1     -10.696   4.126 133.535  0.00  0.00    +0.292 HD
ENDBRANCH  15  20
ENDBRANCH   4  12
BRANCH  10  22
ATOM     22  O   LIG A   1      -1.776   5.209 132.413  0.00  0.00    -0.492 OA
ATOM     23  C   LIG A   1      -0.738   6.136 132.713  0.00  0.00    +0.277 C 
ENDBRANCH  10  22
BRANCH   1  24
ATOM     24  C   LIG A   1      -3.405   5.300 127.779  0.00  0.00    +0.045 C 
BRANCH  24  25
ATOM     25  C   LIG A   1      -2.382   4.219 127.538  0.00  0.00    -0.033 C 
ATOM     26  C   LIG A   1      -2.592   3.156 126.749  0.00  0.00    +0.004 C 
ENDBRANCH  24  25
ENDBRANCH   1  24
TORSDOF 6
ENDMDL
MODEL 5
REMARK VINA RESULT:      -6.8      2.913      4.993
REMARK  Name = NuBBE_2521
REMARK  9 active torsions:
REMARK  status: ('A' for Active; 'I' for Inactive)
REMARK    1  A    between atoms: C_1  and  C_2
REMARK    2  A    between atoms: C_1  and  C_4
REMARK    3  A    between atoms: C_5  and  C_7
REMARK    4  A    between atoms: C_8  and  C_20
REMARK    5  A    between atoms: C_16  and  O_18
REMARK    6  A    between atoms: O_18  and  C_19
REMARK    7  A    between atoms: C_22  and  O_23
REMARK    8  A    between atoms: O_23  and  C_24
REMARK    9  A    between atoms: C_25  and  O_28
REMARK                            x       y       z     vdW  Elec       q    Type
REMARK                         _______ _______ _______ _____ _____    ______ ____
ROOT
ATOM      1  C   LIG A   1      -7.112  -0.960 125.022  0.00  0.00    +0.058 C 
ATOM      2  C   LIG A   1      -6.597  -0.217 126.300  0.00  0.00    +0.012 C 
ATOM      3  C   LIG A   1      -5.783  -1.031 127.309  0.00  0.00    +0.009 C 
ATOM      4  C   LIG A   1      -7.882   0.356 126.993  0.00  0.00    +0.041 C 
ATOM      5  C   LIG A   1      -8.965   0.349 125.906  0.00  0.00    +0.138 C 
ATOM      6  C   LIG A   1      -8.607  -0.959 125.280  0.00  0.00    +0.155 C 
ATOM      7  O   LIG A   1      -9.416  -1.810 124.916  0.00  0.00    -0.296 OA
ATOM      8  C   LIG A   1      -8.787   1.425 124.852  0.00  0.00    +0.208 C 
ATOM      9  O   LIG A   1      -9.432   2.469 124.927  0.00  0.00    -0.288 OA
ATOM     10  C   LIG A   1      -7.781   1.142 123.739  0.00  0.00    +0.160 C 
ATOM     11  C   LIG A   1      -7.042   0.014 123.839  0.00  0.00    +0.037 C 
ENDROOT
BRANCH   4  12
ATOM     12  C   LIG A   1      -7.724   1.610 127.837  0.00  0.00    -0.039 A 
ATOM     13  C   LIG A   1      -6.741   2.559 127.489  0.00  0.00    +0.053 A 
ATOM     14  C   LIG A   1      -6.714   3.822 128.092  0.00  0.00    +0.162 A 
ATOM     15  C   LIG A   1      -7.660   4.123 129.076  0.00  0.00    +0.159 A 
ATOM     16  C   LIG A   1      -8.600   3.193 129.477  0.00  0.00    +0.049 A 
ATOM     17  C   LIG A   1      -8.630   1.944 128.860  0.00  0.00    +0.008 A 
BRANCH  14  18
ATOM     18  O   LIG A   1      -5.855   4.848 127.790  0.00  0.00    -0.491 OA
ATOM     19  C   LIG A   1      -4.933   4.613 126.733  0.00  0.00    +0.277 C 
ENDBRANCH  14  18
BRANCH  15  20
ATOM     20  O   LIG A   1      -7.694   5.362 129.654  0.00  0.00    -0.503 OA
ATOM     21  H   LIG A   1      -7.167   5.930 129.061  0.00  0.00    +0.292 HD
ENDBRANCH  15  20
ENDBRANCH   4  12
BRANCH  10  22
ATOM     22  O   LIG A   1      -7.569   1.966 122.646  0.00  0.00    -0.492 OA
ATOM     23  C   LIG A   1      -6.654   3.044 122.808  0.00  0.00    +0.277 C 
ENDBRANCH  10  22
BRANCH   1  24
ATOM     24  C   LIG A   1      -6.612  -2.384 124.718  0.00  0.00    +0.045 C 
BRANCH  24  25
ATOM     25  C   LIG A   1      -5.546  -2.488 123.658  0.00  0.00    -0.033 C 
ATOM     26  C   LIG A   1      -4.706  -3.527 123.544  0.00  0.00    +0.004 C 
ENDBRANCH  24  25
ENDBRANCH   1  24
TORSDOF 6
ENDMDL
MODEL 6
REMARK VINA RESULT:      -6.7      2.825      5.323
REMARK  Name = NuBBE_2521
REMARK  9 active torsions:
REMARK  status: ('A' for Active; 'I' for Inactive)
REMARK    1  A    between atoms: C_1  and  C_2
REMARK    2  A    between atoms: C_1  and  C_4
REMARK    3  A    between atoms: C_5  and  C_7
REMARK    4  A    between atoms: C_8  and  C_20
REMARK    5  A    between atoms: C_16  and  O_18
REMARK    6  A    between atoms: O_18  and  C_19
REMARK    7  A    between atoms: C_22  and  O_23
REMARK    8  A    between atoms: O_23  and  C_24
REMARK    9  A    between atoms: C_25  and  O_28
REMARK                            x       y       z     vdW  Elec       q    Type
REMARK                         _______ _______ _______ _____ _____    ______ ____
ROOT
ATOM      1  C   LIG A   1      -7.345  -0.022 124.291  0.00  0.00    +0.058 C 
ATOM      2  C   LIG A   1      -6.338   0.443 125.395  0.00  0.00    +0.012 C 
ATOM      3  C   LIG A   1      -5.569  -0.643 126.152  0.00  0.00    +0.009 C 
ATOM      4  C   LIG A   1      -7.190   1.290 126.403  0.00  0.00    +0.041 C 
ATOM      5  C   LIG A   1      -8.464   1.670 125.636  0.00  0.00    +0.138 C 
ATOM      6  C   LIG A   1      -8.663   0.370 124.930  0.00  0.00    +0.155 C 
ATOM      7  O   LIG A   1      -9.747  -0.192 124.784  0.00  0.00    -0.296 OA
ATOM      8  C   LIG A   1      -8.250   2.737 124.580  0.00  0.00    +0.208 C 
ATOM      9  O   LIG A   1      -8.529   3.909 124.828  0.00  0.00    -0.288 OA
ATOM     10  C   LIG A   1      -7.677   2.280 123.241  0.00  0.00    +0.160 C 
ATOM     11  C   LIG A   1      -7.293   0.987 123.138  0.00  0.00    +0.037 C 
ENDROOT
BRANCH   4  12
ATOM     12  C   LIG A   1      -6.474   2.379 127.185  0.00  0.00    -0.039 A 
ATOM     13  C   LIG A   1      -5.205   2.820 126.755  0.00  0.00    +0.053 A 
ATOM     14  C   LIG A   1      -4.618   3.966 127.302  0.00  0.00    +0.162 A 
ATOM     15  C   LIG A   1      -5.293   4.657 128.313  0.00  0.00    +0.159 A 
ATOM     16  C   LIG A   1      -6.512   4.216 128.793  0.00  0.00    +0.049 A 
ATOM     17  C   LIG A   1      -7.097   3.083 128.231  0.00  0.00    +0.008 A 
BRANCH  14  18
ATOM     18  O   LIG A   1      -3.427   4.529 126.920  0.00  0.00    -0.491 OA
ATOM     19  C   LIG A   1      -2.281   3.690 126.979  0.00  0.00    +0.277 C 
ENDBRANCH  14  18
BRANCH  15  20
ATOM     20  O   LIG A   1      -4.773   5.807 128.838  0.00  0.00    -0.503 OA
ATOM     21  H   LIG A   1      -5.504   6.453 128.802  0.00  0.00    +0.292 HD
ENDBRANCH  15  20
ENDBRANCH   4  12
BRANCH  10  22
ATOM     22  O   LIG A   1      -7.515   3.099 122.137  0.00  0.00    -0.492 OA
ATOM     23  C   LIG A   1      -8.676   3.406 121.373  0.00  0.00    +0.277 C 
ENDBRANCH  10  22
BRANCH   1  24
ATOM     24  C   LIG A   1      -7.367  -1.500 123.858  0.00  0.00    +0.045 C 
BRANCH  24  25
ATOM     25  C   LIG A   1      -6.333  -1.895 122.835  0.00  0.00    -0.033 C 
ATOM     26  C   LIG A   1      -5.302  -2.711 123.094  0.00  0.00    +0.004 C 
ENDBRANCH  24  25
ENDBRANCH   1  24
TORSDOF 6
ENDMDL
MODEL 7
REMARK VINA RESULT:      -6.5      3.638      5.781
REMARK  Name = NuBBE_2521
REMARK  9 active torsions:
REMARK  status: ('A' for Active; 'I' for Inactive)
REMARK    1  A    between atoms: C_1  and  C_2
REMARK    2  A    between atoms: C_1  and  C_4
REMARK    3  A    between atoms: C_5  and  C_7
REMARK    4  A    between atoms: C_8  and  C_20
REMARK    5  A    between atoms: C_16  and  O_18
REMARK    6  A    between atoms: O_18  and  C_19
REMARK    7  A    between atoms: C_22  and  O_23
REMARK    8  A    between atoms: O_23  and  C_24
REMARK    9  A    between atoms: C_25  and  O_28
REMARK                            x       y       z     vdW  Elec       q    Type
REMARK                         _______ _______ _______ _____ _____    ______ ____
ROOT
ATOM      1  C   LIG A   1      -7.096  -1.480 124.844  0.00  0.00    +0.058 C 
ATOM      2  C   LIG A   1      -6.487  -0.991 126.201  0.00  0.00    +0.012 C 
ATOM      3  C   LIG A   1      -5.658  -1.994 127.006  0.00  0.00    +0.009 C 
ATOM      4  C   LIG A   1      -7.711  -0.507 127.054  0.00  0.00    +0.041 C 
ATOM      5  C   LIG A   1      -8.847  -0.289 126.045  0.00  0.00    +0.138 C 
ATOM      6  C   LIG A   1      -8.574  -1.477 125.183  0.00  0.00    +0.155 C 
ATOM      7  O   LIG A   1      -9.435  -2.225 124.723  0.00  0.00    -0.296 OA
ATOM      8  C   LIG A   1      -8.676   0.949 125.186  0.00  0.00    +0.208 C 
ATOM      9  O   LIG A   1      -9.274   1.984 125.477  0.00  0.00    -0.288 OA
ATOM     10  C   LIG A   1      -7.740   0.834 123.985  0.00  0.00    +0.160 C 
ATOM     11  C   LIG A   1      -7.044  -0.317 123.847  0.00  0.00    +0.037 C 
ENDROOT
BRANCH   4  12
ATOM     12  C   LIG A   1      -7.459   0.574 128.092  0.00  0.00    -0.039 A 
ATOM     13  C   LIG A   1      -8.071   0.473 129.359  0.00  0.00    +0.053 A 
ATOM     14  C   LIG A   1      -7.689   1.312 130.412  0.00  0.00    +0.162 A 
ATOM     15  C   LIG A   1      -6.710   2.283 130.184  0.00  0.00    +0.159 A 
ATOM     16  C   LIG A   1      -6.134   2.442 128.937  0.00  0.00    +0.049 A 
ATOM     17  C   LIG A   1      -6.508   1.592 127.899  0.00  0.00    +0.008 A 
BRANCH  14  18
ATOM     18  O   LIG A   1      -8.160   1.264 131.699  0.00  0.00    -0.491 OA
ATOM     19  C   LIG A   1      -9.556   1.474 131.873  0.00  0.00    +0.277 C 
ENDBRANCH  14  18
BRANCH  15  20
ATOM     20  O   LIG A   1      -6.278   3.089 131.200  0.00  0.00    -0.503 OA
ATOM     21  H   LIG A   1      -6.437   2.574 132.014  0.00  0.00    +0.292 HD
ENDBRANCH  15  20
ENDBRANCH   4  12
BRANCH  10  22
ATOM     22  O   LIG A   1      -7.549   1.829 123.042  0.00  0.00    -0.492 OA
ATOM     23  C   LIG A   1      -6.594   2.841 123.343  0.00  0.00    +0.277 C 
ENDBRANCH  10  22
BRANCH   1  24
ATOM     24  C   LIG A   1      -6.671  -2.845 124.271  0.00  0.00    +0.045 C 
BRANCH  24  25
ATOM     25  C   LIG A   1      -5.372  -2.855 123.507  0.00  0.00    -0.033 C 
ATOM     26  C   LIG A   1      -4.482  -3.856 123.561  0.00  0.00    +0.004 C 
ENDBRANCH  24  25
ENDBRANCH   1  24
TORSDOF 6
ENDMDL
MODEL 8
REMARK VINA RESULT:      -6.4      3.144      5.286
REMARK  Name = NuBBE_2521
REMARK  9 active torsions:
REMARK  status: ('A' for Active; 'I' for Inactive)
REMARK    1  A    between atoms: C_1  and  C_2
REMARK    2  A    between atoms: C_1  and  C_4
REMARK    3  A    between atoms: C_5  and  C_7
REMARK    4  A    between atoms: C_8  and  C_20
REMARK    5  A    between atoms: C_16  and  O_18
REMARK    6  A    between atoms: O_18  and  C_19
REMARK    7  A    between atoms: C_22  and  O_23
REMARK    8  A    between atoms: O_23  and  C_24
REMARK    9  A    between atoms: C_25  and  O_28
REMARK                            x       y       z     vdW  Elec       q    Type
REMARK                         _______ _______ _______ _____ _____    ______ ____
ROOT
ATOM      1  C   LIG A   1      -6.436  -2.284 129.338  0.00  0.00    +0.058 C 
ATOM      2  C   LIG A   1      -7.684  -2.477 128.414  0.00  0.00    +0.012 C 
ATOM      3  C   LIG A   1      -8.641  -3.624 128.750  0.00  0.00    +0.009 C 
ATOM      4  C   LIG A   1      -7.104  -2.676 126.970  0.00  0.00    +0.041 C 
ATOM      5  C   LIG A   1      -5.669  -2.134 127.033  0.00  0.00    +0.138 C 
ATOM      6  C   LIG A   1      -5.319  -2.662 128.385  0.00  0.00    +0.155 C 
ATOM      7  O   LIG A   1      -4.245  -3.181 128.681  0.00  0.00    -0.296 OA
ATOM      8  C   LIG A   1      -5.586  -0.622 127.095  0.00  0.00    +0.208 C 
ATOM      9  O   LIG A   1      -5.358   0.023 126.073  0.00  0.00    -0.288 OA
ATOM     10  C   LIG A   1      -5.804   0.027 128.461  0.00  0.00    +0.160 C 
ATOM     11  C   LIG A   1      -6.172  -0.780 129.481  0.00  0.00    +0.037 C 
ENDROOT
BRANCH   4  12
ATOM     12  C   LIG A   1      -7.977  -2.256 125.799  0.00  0.00    -0.039 A 
ATOM     13  C   LIG A   1      -8.726  -1.064 125.886  0.00  0.00    +0.053 A 
ATOM     14  C   LIG A   1      -9.355  -0.525 124.758  0.00  0.00    +0.162 A 
ATOM     15  C   LIG A   1      -9.261  -1.205 123.540  0.00  0.00    +0.159 A 
ATOM     16  C   LIG A   1      -8.581  -2.404 123.438  0.00  0.00    +0.049 A 
ATOM     17  C   LIG A   1      -7.943  -2.925 124.562  0.00  0.00    +0.008 A 
BRANCH  14  18
ATOM     18  O   LIG A   1     -10.050   0.656 124.703  0.00  0.00    -0.491 OA
ATOM     19  C   LIG A   1      -9.275   1.848 124.694  0.00  0.00    +0.277 C 
ENDBRANCH  14  18
BRANCH  15  20
ATOM     20  O   LIG A   1      -9.823  -0.685 122.407  0.00  0.00    -0.503 OA
ATOM     21  H   LIG A   1     -10.539  -0.104 122.726  0.00  0.00    +0.292 HD
ENDBRANCH  15  20
ENDBRANCH   4  12
BRANCH  10  22
ATOM     22  O   LIG A   1      -5.663   1.380 128.717  0.00  0.00    -0.492 OA
ATOM     23  C   LIG A   1      -4.351   1.861 128.987  0.00  0.00    +0.277 C 
ENDBRANCH  10  22
BRANCH   1  24
ATOM     24  C   LIG A   1      -6.330  -3.087 130.648  0.00  0.00    +0.045 C 
BRANCH  24  25
ATOM     25  C   LIG A   1      -6.998  -2.467 131.849  0.00  0.00    -0.033 C 
ATOM     26  C   LIG A   1      -7.315  -3.147 132.960  0.00  0.00    +0.004 C 
ENDBRANCH  24  25
ENDBRANCH   1  24
TORSDOF 6
ENDMDL
MODEL 9
REMARK VINA RESULT:      -6.3      5.134      8.268
REMARK  Name = NuBBE_2521
REMARK  9 active torsions:
REMARK  status: ('A' for Active; 'I' for Inactive)
REMARK    1  A    between atoms: C_1  and  C_2
REMARK    2  A    between atoms: C_1  and  C_4
REMARK    3  A    between atoms: C_5  and  C_7
REMARK    4  A    between atoms: C_8  and  C_20
REMARK    5  A    between atoms: C_16  and  O_18
REMARK    6  A    between atoms: O_18  and  C_19
REMARK    7  A    between atoms: C_22  and  O_23
REMARK    8  A    between atoms: O_23  and  C_24
REMARK    9  A    between atoms: C_25  and  O_28
REMARK                            x       y       z     vdW  Elec       q    Type
REMARK                         _______ _______ _______ _____ _____    ______ ____
ROOT
ATOM      1  C   LIG A   1      -4.745  -3.284 132.307  0.00  0.00    +0.058 C 
ATOM      2  C   LIG A   1      -5.698  -3.893 131.225  0.00  0.00    +0.012 C 
ATOM      3  C   LIG A   1      -5.526  -5.376 130.887  0.00  0.00    +0.009 C 
ATOM      4  C   LIG A   1      -5.474  -3.025 129.938  0.00  0.00    +0.041 C 
ATOM      5  C   LIG A   1      -4.814  -1.731 130.433  0.00  0.00    +0.138 C 
ATOM      6  C   LIG A   1      -3.913  -2.347 131.452  0.00  0.00    +0.155 C 
ATOM      7  O   LIG A   1      -2.740  -2.028 131.639  0.00  0.00    -0.296 OA
ATOM      8  C   LIG A   1      -5.761  -0.798 131.162  0.00  0.00    +0.208 C 
ATOM      9  O   LIG A   1      -6.261   0.156 130.569  0.00  0.00    -0.288 OA
ATOM     10  C   LIG A   1      -6.051  -1.115 132.628  0.00  0.00    +0.160 C 
ATOM     11  C   LIG A   1      -5.542  -2.263 133.129  0.00  0.00    +0.037 C 
ENDROOT
BRANCH   4  12
ATOM     12  C   LIG A   1      -6.630  -2.910 128.959  0.00  0.00    -0.039 A 
ATOM     13  C   LIG A   1      -6.417  -2.302 127.705  0.00  0.00    +0.053 A 
ATOM     14  C   LIG A   1      -7.382  -2.380 126.693  0.00  0.00    +0.162 A 
ATOM     15  C   LIG A   1      -8.584  -3.044 126.954  0.00  0.00    +0.159 A 
ATOM     16  C   LIG A   1      -8.844  -3.600 128.192  0.00  0.00    +0.049 A 
ATOM     17  C   LIG A   1      -7.871  -3.532 129.188  0.00  0.00    +0.008 A 
BRANCH  14  18
ATOM     18  O   LIG A   1      -7.262  -1.891 125.418  0.00  0.00    -0.491 OA
ATOM     19  C   LIG A   1      -6.291  -2.517 124.587  0.00  0.00    +0.277 C 
ENDBRANCH  14  18
BRANCH  15  20
ATOM     20  O   LIG A   1      -9.530  -3.181 125.976  0.00  0.00    -0.503 OA
ATOM     21  H   LIG A   1      -9.063  -3.611 125.234  0.00  0.00    +0.292 HD
ENDBRANCH  15  20
ENDBRANCH   4  12
BRANCH  10  22
ATOM     22  O   LIG A   1      -6.807  -0.316 133.468  0.00  0.00    -0.492 OA
ATOM     23  C   LIG A   1      -6.168   0.820 134.041  0.00  0.00    +0.277 C 
ENDBRANCH  10  22
BRANCH   1  24
ATOM     24  C   LIG A   1      -3.840  -4.216 133.133  0.00  0.00    +0.045 C 
BRANCH  24  25
ATOM     25  C   LIG A   1      -4.439  -4.739 134.414  0.00  0.00    -0.033 C 
ATOM     26  C   LIG A   1      -4.733  -6.029 134.627  0.00  0.00    +0.004 C 
ENDBRANCH  24  25
ENDBRANCH   1  24
TORSDOF 6
ENDMDL
