MODEL 1
REMARK VINA RESULT:      -9.0      0.000      0.000
REMARK  Name = NuBBE_960
REMARK  14 active torsions:
REMARK  status: ('A' for Active; 'I' for Inactive)
REMARK    1  A    between atoms: C_1  and  C_2
REMARK    2  A    between atoms: C_11  and  O_23
REMARK    3  A    between atoms: C_13  and  C_21
REMARK    4  A    between atoms: C_13  and  C_22
REMARK    5  A    between atoms: C_14  and  C_16
REMARK    6  A    between atoms: C_16  and  C_17
REMARK    7  A    between atoms: C_17  and  O_19
REMARK    8  A    between atoms: O_19  and  C_20
REMARK    9  A    between atoms: O_23  and  C_24
REMARK   10  A    between atoms: C_24  and  C_26
REMARK   11  A    between atoms: C_26  and  C_29
REMARK   12  A    between atoms: C_27  and  C_28
REMARK   13  A    between atoms: C_32  and  C_35
REMARK   14  A    between atoms: C_36  and  C_42
REMARK                            x       y       z     vdW  Elec       q    Type
REMARK                         _______ _______ _______ _____ _____    ______ ____
ROOT
ATOM      1  C   LIG A   1      -7.042   0.066 129.666  0.00  0.00    +0.020 C 
ATOM      2  C   LIG A   1      -6.469   1.081 128.647  0.00  0.00    +0.037 C 
ATOM      3  C   LIG A   1      -5.311   1.962 129.294  0.00  0.00    +0.028 C 
ATOM      4  C   LIG A   1      -4.451   2.785 128.319  0.00  0.00    -0.064 C 
ATOM      5  C   LIG A   1      -4.233   2.237 127.077  0.00  0.00    -0.012 C 
ATOM      6  C   LIG A   1      -5.144   1.084 126.540  0.00  0.00    +0.120 C 
ATOM      7  C   LIG A   1      -5.496   0.327 127.791  0.00  0.00    +0.150 C 
ATOM      8  O   LIG A   1      -4.873  -0.620 128.237  0.00  0.00    -0.296 OA
ATOM      9  C   LIG A   1      -6.300   0.583 125.572  0.00  0.00    +0.197 C 
ATOM     10  C   LIG A   1      -7.761   0.764 126.290  0.00  0.00    +0.007 C 
ATOM     11  C   LIG A   1      -7.653   1.652 127.661  0.00  0.00    +0.022 C 
ATOM     12  C   LIG A   1      -8.664   1.350 125.182  0.00  0.00    +0.015 C 
ATOM     13  C   LIG A   1      -8.531  -0.509 126.718  0.00  0.00    +0.015 C 
ATOM     14  C   LIG A   1      -3.983   4.194 128.767  0.00  0.00    +0.035 C 
ATOM     15  C   LIG A   1      -4.141   4.630 130.294  0.00  0.00    +0.016 C 
ATOM     16  C   LIG A   1      -4.576   3.443 131.182  0.00  0.00    +0.012 C 
ATOM     17  C   LIG A   1      -5.663   2.546 130.638  0.00  0.00    +0.009 C 
ATOM     18  C   LIG A   1      -5.148   5.834 130.323  0.00  0.00    +0.016 C 
ATOM     19  C   LIG A   1      -2.774   5.172 130.889  0.00  0.00    +0.216 C 
ATOM     20  O   LIG A   1      -2.245   6.206 130.027  0.00  0.00    -0.456 OA
ATOM     21  C   LIG A   1      -2.314   6.042 128.685  0.00  0.00    +0.308 C 
ATOM     22  O   LIG A   1      -2.114   6.970 127.910  0.00  0.00    -0.251 OA
ATOM     23  C   LIG A   1      -2.630   4.645 128.217  0.00  0.00    +0.129 C 
ENDROOT
BRANCH  19  24
ATOM     24  C   LIG A   1      -2.850   5.712 132.328  0.00  0.00    +0.031 A 
ATOM     25  C   LIG A   1      -3.134   7.059 132.729  0.00  0.00    +0.048 A 
ATOM     26  C   LIG A   1      -3.117   7.091 134.107  0.00  0.00    +0.195 A 
ATOM     27  O   LIG A   1      -2.833   5.867 134.600  0.00  0.00    -0.471 OA
ATOM     28  C   LIG A   1      -2.679   5.052 133.537  0.00  0.00    +0.202 A 
ENDBRANCH  19  24
BRANCH  11  29
ATOM     29  C   LIG A   1      -7.694   3.193 127.410  0.00  0.00    +0.126 C 
BRANCH  29  30
ATOM     30  C   LIG A   1      -8.382   4.017 128.513  0.00  0.00    +0.307 C 
ATOM     31  O   LIG A   1      -8.113   5.179 128.787  0.00  0.00    -0.251 OA
BRANCH  30  32
ATOM     32  O   LIG A   1      -9.267   3.228 129.197  0.00  0.00    -0.468 OA
ATOM     33  C   LIG A   1      -9.314   3.330 130.635  0.00  0.00    +0.280 C 
ENDBRANCH  30  32
ENDBRANCH  29  30
ENDBRANCH  11  29
BRANCH   9  34
ATOM     34  O   LIG A   1      -5.926  -0.747 125.125  0.00  0.00    -0.457 OA
BRANCH  34  35
ATOM     35  C   LIG A   1      -6.255  -1.260 123.931  0.00  0.00    +0.335 C 
ATOM     36  O   LIG A   1      -6.714  -0.606 122.963  0.00  0.00    -0.245 OA
BRANCH  35  37
ATOM     37  C   LIG A   1      -6.044  -2.736 123.923  0.00  0.00    +0.029 C 
ATOM     38  C   LIG A   1      -4.845  -3.242 123.561  0.00  0.00    -0.020 C 
ATOM     39  C   LIG A   1      -4.430  -4.679 123.607  0.00  0.00    +0.035 C 
ATOM     40  C   LIG A   1      -7.228  -3.533 124.354  0.00  0.00    +0.051 C 
ENDBRANCH  35  37
ENDBRANCH  34  35
ENDBRANCH   9  34
TORSDOF 7
ENDMDL
MODEL 2
REMARK VINA RESULT:      -8.9      4.631      7.090
REMARK  Name = NuBBE_960
REMARK  14 active torsions:
REMARK  status: ('A' for Active; 'I' for Inactive)
REMARK    1  A    between atoms: C_1  and  C_2
REMARK    2  A    between atoms: C_11  and  O_23
REMARK    3  A    between atoms: C_13  and  C_21
REMARK    4  A    between atoms: C_13  and  C_22
REMARK    5  A    between atoms: C_14  and  C_16
REMARK    6  A    between atoms: C_16  and  C_17
REMARK    7  A    between atoms: C_17  and  O_19
REMARK    8  A    between atoms: O_19  and  C_20
REMARK    9  A    between atoms: O_23  and  C_24
REMARK   10  A    between atoms: C_24  and  C_26
REMARK   11  A    between atoms: C_26  and  C_29
REMARK   12  A    between atoms: C_27  and  C_28
REMARK   13  A    between atoms: C_32  and  C_35
REMARK   14  A    between atoms: C_36  and  C_42
REMARK                            x       y       z     vdW  Elec       q    Type
REMARK                         _______ _______ _______ _____ _____    ______ ____
ROOT
ATOM      1  C   LIG A   1      -5.007  -1.544 125.204  0.00  0.00    +0.020 C 
ATOM      2  C   LIG A   1      -6.247  -0.869 125.839  0.00  0.00    +0.037 C 
ATOM      3  C   LIG A   1      -6.167  -0.883 127.429  0.00  0.00    +0.028 C 
ATOM      4  C   LIG A   1      -7.167   0.018 128.173  0.00  0.00    -0.064 C 
ATOM      5  C   LIG A   1      -7.518   1.194 127.552  0.00  0.00    -0.012 C 
ATOM      6  C   LIG A   1      -7.268   1.394 126.021  0.00  0.00    +0.120 C 
ATOM      7  C   LIG A   1      -6.007   0.610 125.783  0.00  0.00    +0.150 C 
ATOM      8  O   LIG A   1      -4.878   1.063 125.840  0.00  0.00    -0.296 OA
ATOM      9  C   LIG A   1      -7.829   1.484 124.536  0.00  0.00    +0.197 C 
ATOM     10  C   LIG A   1      -7.871  -0.004 123.853  0.00  0.00    +0.007 C 
ATOM     11  C   LIG A   1      -7.598  -1.182 124.957  0.00  0.00    +0.022 C 
ATOM     12  C   LIG A   1      -9.239  -0.059 123.139  0.00  0.00    +0.015 C 
ATOM     13  C   LIG A   1      -6.876  -0.315 122.709  0.00  0.00    +0.015 C 
ATOM     14  C   LIG A   1      -7.773  -0.503 129.503  0.00  0.00    +0.035 C 
ATOM     15  C   LIG A   1      -7.142  -1.790 130.207  0.00  0.00    +0.016 C 
ATOM     16  C   LIG A   1      -5.827  -2.224 129.523  0.00  0.00    +0.012 C 
ATOM     17  C   LIG A   1      -5.811  -2.227 128.013  0.00  0.00    +0.009 C 
ATOM     18  C   LIG A   1      -8.249  -2.903 130.197  0.00  0.00    +0.016 C 
ATOM     19  C   LIG A   1      -6.798  -1.509 131.730  0.00  0.00    +0.216 C 
ATOM     20  O   LIG A   1      -7.962  -0.975 132.401  0.00  0.00    -0.456 OA
ATOM     21  C   LIG A   1      -8.727  -0.059 131.761  0.00  0.00    +0.308 C 
ATOM     22  O   LIG A   1      -9.844   0.245 132.164  0.00  0.00    -0.251 OA
ATOM     23  C   LIG A   1      -8.105   0.568 130.540  0.00  0.00    +0.129 C 
ENDROOT
BRANCH  19  24
ATOM     24  C   LIG A   1      -6.278  -2.723 132.521  0.00  0.00    +0.031 A 
ATOM     25  C   LIG A   1      -4.923  -3.187 132.594  0.00  0.00    +0.048 A 
ATOM     26  C   LIG A   1      -4.910  -4.288 133.423  0.00  0.00    +0.195 A 
ATOM     27  O   LIG A   1      -6.156  -4.555 133.868  0.00  0.00    -0.471 OA
ATOM     28  C   LIG A   1      -6.964  -3.618 133.330  0.00  0.00    +0.202 A 
ENDBRANCH  19  24
BRANCH  11  29
ATOM     29  C   LIG A   1      -8.880  -1.611 125.739  0.00  0.00    +0.126 C 
BRANCH  29  30
ATOM     30  C   LIG A   1      -9.063  -3.130 125.912  0.00  0.00    +0.307 C 
ATOM     31  O   LIG A   1      -9.358  -3.682 126.963  0.00  0.00    -0.251 OA
BRANCH  30  32
ATOM     32  O   LIG A   1      -8.752  -3.770 124.743  0.00  0.00    -0.468 OA
ATOM     33  C   LIG A   1      -9.623  -3.590 123.606  0.00  0.00    +0.280 C 
ENDBRANCH  30  32
ENDBRANCH  29  30
ENDBRANCH  11  29
BRANCH   9  34
ATOM     34  O   LIG A   1      -7.064   2.517 123.861  0.00  0.00    -0.457 OA
BRANCH  34  35
ATOM     35  C   LIG A   1      -7.503   3.207 122.799  0.00  0.00    +0.335 C 
ATOM     36  O   LIG A   1      -8.697   3.263 122.415  0.00  0.00    -0.245 OA
BRANCH  35  37
ATOM     37  C   LIG A   1      -6.365   3.867 122.099  0.00  0.00    +0.029 C 
ATOM     38  C   LIG A   1      -6.401   4.025 120.758  0.00  0.00    -0.020 C 
ATOM     39  C   LIG A   1      -5.405   4.763 119.918  0.00  0.00    +0.035 C 
ATOM     40  C   LIG A   1      -5.266   4.323 122.998  0.00  0.00    +0.051 C 
ENDBRANCH  35  37
ENDBRANCH  34  35
ENDBRANCH   9  34
TORSDOF 7
ENDMDL
MODEL 3
REMARK VINA RESULT:      -8.9      3.331      8.539
REMARK  Name = NuBBE_960
REMARK  14 active torsions:
REMARK  status: ('A' for Active; 'I' for Inactive)
REMARK    1  A    between atoms: C_1  and  C_2
REMARK    2  A    between atoms: C_11  and  O_23
REMARK    3  A    between atoms: C_13  and  C_21
REMARK    4  A    between atoms: C_13  and  C_22
REMARK    5  A    between atoms: C_14  and  C_16
REMARK    6  A    between atoms: C_16  and  C_17
REMARK    7  A    between atoms: C_17  and  O_19
REMARK    8  A    between atoms: O_19  and  C_20
REMARK    9  A    between atoms: O_23  and  C_24
REMARK   10  A    between atoms: C_24  and  C_26
REMARK   11  A    between atoms: C_26  and  C_29
REMARK   12  A    between atoms: C_27  and  C_28
REMARK   13  A    between atoms: C_32  and  C_35
REMARK   14  A    between atoms: C_36  and  C_42
REMARK                            x       y       z     vdW  Elec       q    Type
REMARK                         _______ _______ _______ _____ _____    ______ ____
ROOT
ATOM      1  C   LIG A   1      -9.361   3.031 133.330  0.00  0.00    +0.020 C 
ATOM      2  C   LIG A   1      -8.647   3.001 131.957  0.00  0.00    +0.037 C 
ATOM      3  C   LIG A   1      -8.397   1.508 131.464  0.00  0.00    +0.028 C 
ATOM      4  C   LIG A   1      -7.983   1.333 129.993  0.00  0.00    -0.064 C 
ATOM      5  C   LIG A   1      -8.504   2.234 129.094  0.00  0.00    -0.012 C 
ATOM      6  C   LIG A   1      -9.112   3.590 129.583  0.00  0.00    +0.120 C 
ATOM      7  C   LIG A   1      -9.703   3.229 130.918  0.00  0.00    +0.150 C 
ATOM      8  O   LIG A   1     -10.850   2.860 131.101  0.00  0.00    -0.296 OA
ATOM      9  C   LIG A   1      -9.004   5.168 129.740  0.00  0.00    +0.197 C 
ATOM     10  C   LIG A   1      -8.240   5.550 131.138  0.00  0.00    +0.007 C 
ATOM     11  C   LIG A   1      -7.563   4.231 131.835  0.00  0.00    +0.022 C 
ATOM     12  C   LIG A   1      -7.260   6.677 130.745  0.00  0.00    +0.015 C 
ATOM     13  C   LIG A   1      -9.068   6.199 132.273  0.00  0.00    +0.015 C 
ATOM     14  C   LIG A   1      -6.947   0.231 129.651  0.00  0.00    +0.035 C 
ATOM     15  C   LIG A   1      -6.567  -0.864 130.749  0.00  0.00    +0.016 C 
ATOM     16  C   LIG A   1      -7.489  -0.773 131.985  0.00  0.00    +0.012 C 
ATOM     17  C   LIG A   1      -7.790   0.610 132.512  0.00  0.00    +0.009 C 
ATOM     18  C   LIG A   1      -5.047  -0.663 131.087  0.00  0.00    +0.016 C 
ATOM     19  C   LIG A   1      -6.710  -2.337 130.175  0.00  0.00    +0.216 C 
ATOM     20  O   LIG A   1      -5.968  -2.451 128.940  0.00  0.00    -0.456 OA
ATOM     21  C   LIG A   1      -6.014  -1.433 128.049  0.00  0.00    +0.308 C 
ATOM     22  O   LIG A   1      -5.228  -1.360 127.112  0.00  0.00    -0.251 OA
ATOM     23  C   LIG A   1      -7.105  -0.419 128.277  0.00  0.00    +0.129 C 
ENDROOT
BRANCH  19  24
ATOM     24  C   LIG A   1      -6.269  -3.460 131.130  0.00  0.00    +0.031 A 
ATOM     25  C   LIG A   1      -5.384  -4.548 130.830  0.00  0.00    +0.048 A 
ATOM     26  C   LIG A   1      -5.256  -5.303 131.976  0.00  0.00    +0.195 A 
ATOM     27  O   LIG A   1      -6.002  -4.776 132.970  0.00  0.00    -0.471 OA
ATOM     28  C   LIG A   1      -6.598  -3.678 132.461  0.00  0.00    +0.202 A 
ENDBRANCH  19  24
BRANCH  11  29
ATOM     29  C   LIG A   1      -6.149   3.886 131.270  0.00  0.00    +0.126 C 
BRANCH  29  30
ATOM     30  C   LIG A   1      -5.157   3.313 132.297  0.00  0.00    +0.307 C 
ATOM     31  O   LIG A   1      -5.421   3.078 133.468  0.00  0.00    -0.251 OA
BRANCH  30  32
ATOM     32  O   LIG A   1      -3.917   3.197 131.728  0.00  0.00    -0.468 OA
ATOM     33  C   LIG A   1      -3.203   4.400 131.377  0.00  0.00    +0.280 C 
ENDBRANCH  30  32
ENDBRANCH  29  30
ENDBRANCH  11  29
BRANCH   9  34
ATOM     34  O   LIG A   1     -10.338   5.702 129.530  0.00  0.00    -0.457 OA
BRANCH  34  35
ATOM     35  C   LIG A   1     -10.606   6.785 128.787  0.00  0.00    +0.335 C 
ATOM     36  O   LIG A   1     -10.020   7.097 127.722  0.00  0.00    -0.245 OA
BRANCH  35  37
ATOM     37  C   LIG A   1     -11.675   7.604 129.427  0.00  0.00    +0.029 C 
ATOM     38  C   LIG A   1     -12.002   8.807 128.907  0.00  0.00    -0.020 C 
ATOM     39  C   LIG A   1     -13.119   9.699 129.351  0.00  0.00    +0.035 C 
ATOM     40  C   LIG A   1     -12.314   6.970 130.615  0.00  0.00    +0.051 C 
ENDBRANCH  35  37
ENDBRANCH  34  35
ENDBRANCH   9  34
TORSDOF 7
ENDMDL
MODEL 4
REMARK VINA RESULT:      -8.4      1.838      8.896
REMARK  Name = NuBBE_960
REMARK  14 active torsions:
REMARK  status: ('A' for Active; 'I' for Inactive)
REMARK    1  A    between atoms: C_1  and  C_2
REMARK    2  A    between atoms: C_11  and  O_23
REMARK    3  A    between atoms: C_13  and  C_21
REMARK    4  A    between atoms: C_13  and  C_22
REMARK    5  A    between atoms: C_14  and  C_16
REMARK    6  A    between atoms: C_16  and  C_17
REMARK    7  A    between atoms: C_17  and  O_19
REMARK    8  A    between atoms: O_19  and  C_20
REMARK    9  A    between atoms: O_23  and  C_24
REMARK   10  A    between atoms: C_24  and  C_26
REMARK   11  A    between atoms: C_26  and  C_29
REMARK   12  A    between atoms: C_27  and  C_28
REMARK   13  A    between atoms: C_32  and  C_35
REMARK   14  A    between atoms: C_36  and  C_42
REMARK                            x       y       z     vdW  Elec       q    Type
REMARK                         _______ _______ _______ _____ _____    ______ ____
ROOT
ATOM      1  C   LIG A   1      -4.274   4.332 126.393  0.00  0.00    +0.020 C 
ATOM      2  C   LIG A   1      -4.853   3.513 127.573  0.00  0.00    +0.037 C 
ATOM      3  C   LIG A   1      -5.183   2.018 127.136  0.00  0.00    +0.028 C 
ATOM      4  C   LIG A   1      -5.468   1.020 128.272  0.00  0.00    -0.064 C 
ATOM      5  C   LIG A   1      -4.787   1.217 129.450  0.00  0.00    -0.012 C 
ATOM      6  C   LIG A   1      -4.113   2.594 129.764  0.00  0.00    +0.120 C 
ATOM      7  C   LIG A   1      -3.686   3.074 128.405  0.00  0.00    +0.150 C 
ATOM      8  O   LIG A   1      -2.599   2.865 127.896  0.00  0.00    -0.296 OA
ATOM      9  C   LIG A   1      -4.098   3.966 130.566  0.00  0.00    +0.197 C 
ATOM     10  C   LIG A   1      -4.956   5.105 129.761  0.00  0.00    +0.007 C 
ATOM     11  C   LIG A   1      -5.809   4.454 128.523  0.00  0.00    +0.022 C 
ATOM     12  C   LIG A   1      -5.792   5.802 130.856  0.00  0.00    +0.015 C 
ATOM     13  C   LIG A   1      -4.187   6.284 129.116  0.00  0.00    +0.015 C 
ATOM     14  C   LIG A   1      -6.558  -0.058 128.042  0.00  0.00    +0.035 C 
ATOM     15  C   LIG A   1      -7.136  -0.297 126.573  0.00  0.00    +0.016 C 
ATOM     16  C   LIG A   1      -6.331   0.488 125.513  0.00  0.00    +0.012 C 
ATOM     17  C   LIG A   1      -5.964   1.913 125.851  0.00  0.00    +0.009 C 
ATOM     18  C   LIG A   1      -8.658   0.086 126.613  0.00  0.00    +0.016 C 
ATOM     19  C   LIG A   1      -7.066  -1.828 126.163  0.00  0.00    +0.216 C 
ATOM     20  O   LIG A   1      -7.694  -2.634 127.186  0.00  0.00    -0.456 OA
ATOM     21  C   LIG A   1      -7.474  -2.332 128.488  0.00  0.00    +0.308 C 
ATOM     22  O   LIG A   1      -8.158  -2.809 129.386  0.00  0.00    -0.251 OA
ATOM     23  C   LIG A   1      -6.327  -1.392 128.751  0.00  0.00    +0.129 C 
ENDROOT
BRANCH  19  24
ATOM     24  C   LIG A   1      -7.694  -2.173 124.800  0.00  0.00    +0.031 A 
ATOM     25  C   LIG A   1      -8.892  -2.926 124.569  0.00  0.00    +0.048 A 
ATOM     26  C   LIG A   1      -9.088  -2.979 123.206  0.00  0.00    +0.195 A 
ATOM     27  O   LIG A   1      -8.098  -2.324 122.564  0.00  0.00    -0.471 OA
ATOM     28  C   LIG A   1      -7.274  -1.845 123.519  0.00  0.00    +0.202 A 
ENDBRANCH  19  24
BRANCH  11  29
ATOM     29  C   LIG A   1      -7.187   3.864 128.960  0.00  0.00    +0.126 C 
BRANCH  29  30
ATOM     30  C   LIG A   1      -8.418   4.561 128.353  0.00  0.00    +0.307 C 
ATOM     31  O   LIG A   1      -8.474   5.020 127.221  0.00  0.00    -0.251 OA
BRANCH  30  32
ATOM     32  O   LIG A   1      -9.400   4.671 129.300  0.00  0.00    -0.468 OA
ATOM     33  C   LIG A   1      -9.507   3.644 130.307  0.00  0.00    +0.280 C 
ENDBRANCH  30  32
ENDBRANCH  29  30
ENDBRANCH  11  29
BRANCH   9  34
ATOM     34  O   LIG A   1      -2.709   4.257 130.873  0.00  0.00    -0.457 OA
BRANCH  34  35
ATOM     35  C   LIG A   1      -2.263   4.600 132.089  0.00  0.00    +0.335 C 
ATOM     36  O   LIG A   1      -2.126   3.815 133.060  0.00  0.00    -0.245 OA
BRANCH  35  37
ATOM     37  C   LIG A   1      -1.992   6.065 132.151  0.00  0.00    +0.029 C 
ATOM     38  C   LIG A   1      -2.829   6.875 132.834  0.00  0.00    -0.020 C 
ATOM     39  C   LIG A   1      -2.645   8.338 133.092  0.00  0.00    +0.035 C 
ATOM     40  C   LIG A   1      -0.758   6.497 131.435  0.00  0.00    +0.051 C 
ENDBRANCH  35  37
ENDBRANCH  34  35
ENDBRANCH   9  34
TORSDOF 7
ENDMDL
MODEL 5
REMARK VINA RESULT:      -8.4      2.814      4.350
REMARK  Name = NuBBE_960
REMARK  14 active torsions:
REMARK  status: ('A' for Active; 'I' for Inactive)
REMARK    1  A    between atoms: C_1  and  C_2
REMARK    2  A    between atoms: C_11  and  O_23
REMARK    3  A    between atoms: C_13  and  C_21
REMARK    4  A    between atoms: C_13  and  C_22
REMARK    5  A    between atoms: C_14  and  C_16
REMARK    6  A    between atoms: C_16  and  C_17
REMARK    7  A    between atoms: C_17  and  O_19
REMARK    8  A    between atoms: O_19  and  C_20
REMARK    9  A    between atoms: O_23  and  C_24
REMARK   10  A    between atoms: C_24  and  C_26
REMARK   11  A    between atoms: C_26  and  C_29
REMARK   12  A    between atoms: C_27  and  C_28
REMARK   13  A    between atoms: C_32  and  C_35
REMARK   14  A    between atoms: C_36  and  C_42
REMARK                            x       y       z     vdW  Elec       q    Type
REMARK                         _______ _______ _______ _____ _____    ______ ____
ROOT
ATOM      1  C   LIG A   1      -4.255  -0.186 129.742  0.00  0.00    +0.020 C 
ATOM      2  C   LIG A   1      -5.728   0.213 129.479  0.00  0.00    +0.037 C 
ATOM      3  C   LIG A   1      -6.064   1.638 130.103  0.00  0.00    +0.028 C 
ATOM      4  C   LIG A   1      -7.385   2.288 129.654  0.00  0.00    -0.064 C 
ATOM      5  C   LIG A   1      -7.791   2.032 128.366  0.00  0.00    -0.012 C 
ATOM      6  C   LIG A   1      -7.195   0.827 127.564  0.00  0.00    +0.120 C 
ATOM      7  C   LIG A   1      -5.785   0.749 128.079  0.00  0.00    +0.150 C 
ATOM      8  O   LIG A   1      -4.825   1.314 127.587  0.00  0.00    -0.296 OA
ATOM      9  C   LIG A   1      -7.355  -0.631 126.954  0.00  0.00    +0.197 C 
ATOM     10  C   LIG A   1      -6.916  -1.760 128.056  0.00  0.00    +0.007 C 
ATOM     11  C   LIG A   1      -6.709  -1.104 129.542  0.00  0.00    +0.022 C 
ATOM     12  C   LIG A   1      -8.010  -2.846 127.950  0.00  0.00    +0.015 C 
ATOM     13  C   LIG A   1      -5.615  -2.562 127.808  0.00  0.00    +0.015 C 
ATOM     14  C   LIG A   1      -8.199   3.090 130.703  0.00  0.00    +0.035 C 
ATOM     15  C   LIG A   1      -7.529   3.470 132.101  0.00  0.00    +0.016 C 
ATOM     16  C   LIG A   1      -6.021   3.134 132.117  0.00  0.00    +0.012 C 
ATOM     17  C   LIG A   1      -5.610   1.805 131.531  0.00  0.00    +0.009 C 
ATOM     18  C   LIG A   1      -8.346   2.726 133.216  0.00  0.00    +0.016 C 
ATOM     19  C   LIG A   1      -7.658   5.021 132.406  0.00  0.00    +0.216 C 
ATOM     20  O   LIG A   1      -9.040   5.427 132.280  0.00  0.00    -0.456 OA
ATOM     21  C   LIG A   1      -9.780   4.934 131.258  0.00  0.00    +0.308 C 
ATOM     22  O   LIG A   1     -11.000   5.040 131.235  0.00  0.00    -0.251 OA
ATOM     23  C   LIG A   1      -8.999   4.270 130.153  0.00  0.00    +0.129 C 
ENDROOT
BRANCH  19  24
ATOM     24  C   LIG A   1      -7.129   5.468 133.781  0.00  0.00    +0.031 A 
ATOM     25  C   LIG A   1      -7.878   5.572 134.999  0.00  0.00    +0.048 A 
ATOM     26  C   LIG A   1      -7.008   5.993 135.982  0.00  0.00    +0.195 A 
ATOM     27  O   LIG A   1      -5.773   6.172 135.469  0.00  0.00    -0.471 OA
ATOM     28  C   LIG A   1      -5.852   5.854 134.160  0.00  0.00    +0.202 A 
ENDBRANCH  19  24
BRANCH  11  29
ATOM     29  C   LIG A   1      -8.037  -0.968 130.353  0.00  0.00    +0.126 C 
BRANCH  29  30
ATOM     30  C   LIG A   1      -7.889  -1.110 131.878  0.00  0.00    +0.307 C 
ATOM     31  O   LIG A   1      -8.666  -0.645 132.701  0.00  0.00    -0.251 OA
BRANCH  30  32
ATOM     32  O   LIG A   1      -6.714  -1.747 132.172  0.00  0.00    -0.468 OA
ATOM     33  C   LIG A   1      -6.119  -1.533 133.469  0.00  0.00    +0.280 C 
ENDBRANCH  30  32
ENDBRANCH  29  30
ENDBRANCH  11  29
BRANCH   9  34
ATOM     34  O   LIG A   1      -6.664  -0.629 125.676  0.00  0.00    -0.457 OA
BRANCH  34  35
ATOM     35  C   LIG A   1      -7.190  -1.098 124.536  0.00  0.00    +0.335 C 
ATOM     36  O   LIG A   1      -8.035  -0.498 123.827  0.00  0.00    -0.245 OA
BRANCH  35  37
ATOM     37  C   LIG A   1      -6.665  -2.462 124.242  0.00  0.00    +0.029 C 
ATOM     38  C   LIG A   1      -5.355  -2.631 123.958  0.00  0.00    -0.020 C 
ATOM     39  C   LIG A   1      -4.645  -3.933 123.755  0.00  0.00    +0.035 C 
ATOM     40  C   LIG A   1      -7.684  -3.547 124.317  0.00  0.00    +0.051 C 
ENDBRANCH  35  37
ENDBRANCH  34  35
ENDBRANCH   9  34
TORSDOF 7
ENDMDL
MODEL 6
REMARK VINA RESULT:      -8.4      3.649      7.172
REMARK  Name = NuBBE_960
REMARK  14 active torsions:
REMARK  status: ('A' for Active; 'I' for Inactive)
REMARK    1  A    between atoms: C_1  and  C_2
REMARK    2  A    between atoms: C_11  and  O_23
REMARK    3  A    between atoms: C_13  and  C_21
REMARK    4  A    between atoms: C_13  and  C_22
REMARK    5  A    between atoms: C_14  and  C_16
REMARK    6  A    between atoms: C_16  and  C_17
REMARK    7  A    between atoms: C_17  and  O_19
REMARK    8  A    between atoms: O_19  and  C_20
REMARK    9  A    between atoms: O_23  and  C_24
REMARK   10  A    between atoms: C_24  and  C_26
REMARK   11  A    between atoms: C_26  and  C_29
REMARK   12  A    between atoms: C_27  and  C_28
REMARK   13  A    between atoms: C_32  and  C_35
REMARK   14  A    between atoms: C_36  and  C_42
REMARK                            x       y       z     vdW  Elec       q    Type
REMARK                         _______ _______ _______ _____ _____    ______ ____
ROOT
ATOM      1  C   LIG A   1      -4.761   1.981 129.600  0.00  0.00    +0.020 C 
ATOM      2  C   LIG A   1      -6.131   1.533 129.036  0.00  0.00    +0.037 C 
ATOM      3  C   LIG A   1      -6.130   1.524 127.444  0.00  0.00    +0.028 C 
ATOM      4  C   LIG A   1      -7.311   0.811 126.762  0.00  0.00    -0.064 C 
ATOM      5  C   LIG A   1      -7.832  -0.280 127.416  0.00  0.00    -0.012 C 
ATOM      6  C   LIG A   1      -7.544  -0.514 128.936  0.00  0.00    +0.120 C 
ATOM      7  C   LIG A   1      -6.154   0.035 129.101  0.00  0.00    +0.150 C 
ATOM      8  O   LIG A   1      -5.127  -0.611 128.995  0.00  0.00    -0.296 OA
ATOM      9  C   LIG A   1      -8.036  -0.496 130.447  0.00  0.00    +0.197 C 
ATOM     10  C   LIG A   1      -7.781   0.980 131.111  0.00  0.00    +0.007 C 
ATOM     11  C   LIG A   1      -7.359   2.085 129.978  0.00  0.00    +0.022 C 
ATOM     12  C   LIG A   1      -9.079   1.281 131.890  0.00  0.00    +0.015 C 
ATOM     13  C   LIG A   1      -6.690   1.115 132.201  0.00  0.00    +0.015 C 
ATOM     14  C   LIG A   1      -7.880   1.424 125.457  0.00  0.00    +0.035 C 
ATOM     15  C   LIG A   1      -7.069   2.575 124.705  0.00  0.00    +0.016 C 
ATOM     16  C   LIG A   1      -5.665   2.773 125.318  0.00  0.00    +0.012 C 
ATOM     17  C   LIG A   1      -5.572   2.781 126.825  0.00  0.00    +0.009 C 
ATOM     18  C   LIG A   1      -7.959   3.867 124.752  0.00  0.00    +0.016 C 
ATOM     19  C   LIG A   1      -6.857   2.230 123.171  0.00  0.00    +0.216 C 
ATOM     20  O   LIG A   1      -8.130   1.907 122.565  0.00  0.00    -0.456 OA
ATOM     21  C   LIG A   1      -9.011   1.145 123.254  0.00  0.00    +0.308 C 
ATOM     22  O   LIG A   1     -10.182   1.042 122.910  0.00  0.00    -0.251 OA
ATOM     23  C   LIG A   1      -8.448   0.423 124.451  0.00  0.00    +0.129 C 
ENDROOT
BRANCH  19  24
ATOM     24  C   LIG A   1      -6.171   3.328 122.338  0.00  0.00    +0.031 A 
ATOM     25  C   LIG A   1      -6.356   3.592 120.941  0.00  0.00    +0.048 A 
ATOM     26  C   LIG A   1      -5.560   4.669 120.616  0.00  0.00    +0.195 A 
ATOM     27  O   LIG A   1      -4.882   5.095 121.702  0.00  0.00    -0.471 OA
ATOM     28  C   LIG A   1      -5.253   4.294 122.723  0.00  0.00    +0.202 A 
ENDBRANCH  19  24
BRANCH  11  29
ATOM     29  C   LIG A   1      -8.583   2.731 129.254  0.00  0.00    +0.126 C 
BRANCH  29  30
ATOM     30  C   LIG A   1      -8.586   4.269 129.220  0.00  0.00    +0.307 C 
ATOM     31  O   LIG A   1      -8.651   4.946 128.203  0.00  0.00    -0.251 OA
BRANCH  30  32
ATOM     32  O   LIG A   1      -8.409   4.761 130.486  0.00  0.00    -0.468 OA
ATOM     33  C   LIG A   1      -9.576   5.091 131.266  0.00  0.00    +0.280 C 
ENDBRANCH  30  32
ENDBRANCH  29  30
ENDBRANCH  11  29
BRANCH   9  34
ATOM     34  O   LIG A   1      -7.433  -1.645 131.099  0.00  0.00    -0.457 OA
BRANCH  34  35
ATOM     35  C   LIG A   1      -7.452  -2.888 130.600  0.00  0.00    +0.335 C 
ATOM     36  O   LIG A   1      -8.250  -3.307 129.726  0.00  0.00    -0.245 OA
BRANCH  35  37
ATOM     37  C   LIG A   1      -6.416  -3.731 131.264  0.00  0.00    +0.029 C 
ATOM     38  C   LIG A   1      -6.342  -3.768 132.612  0.00  0.00    -0.020 C 
ATOM     39  C   LIG A   1      -5.447  -4.642 133.435  0.00  0.00    +0.035 C 
ATOM     40  C   LIG A   1      -5.545  -4.495 130.326  0.00  0.00    +0.051 C 
ENDBRANCH  35  37
ENDBRANCH  34  35
ENDBRANCH   9  34
TORSDOF 7
ENDMDL
MODEL 7
REMARK VINA RESULT:      -8.2      3.610      6.790
REMARK  Name = NuBBE_960
REMARK  14 active torsions:
REMARK  status: ('A' for Active; 'I' for Inactive)
REMARK    1  A    between atoms: C_1  and  C_2
REMARK    2  A    between atoms: C_11  and  O_23
REMARK    3  A    between atoms: C_13  and  C_21
REMARK    4  A    between atoms: C_13  and  C_22
REMARK    5  A    between atoms: C_14  and  C_16
REMARK    6  A    between atoms: C_16  and  C_17
REMARK    7  A    between atoms: C_17  and  O_19
REMARK    8  A    between atoms: O_19  and  C_20
REMARK    9  A    between atoms: O_23  and  C_24
REMARK   10  A    between atoms: C_24  and  C_26
REMARK   11  A    between atoms: C_26  and  C_29
REMARK   12  A    between atoms: C_27  and  C_28
REMARK   13  A    between atoms: C_32  and  C_35
REMARK   14  A    between atoms: C_36  and  C_42
REMARK                            x       y       z     vdW  Elec       q    Type
REMARK                         _______ _______ _______ _____ _____    ______ ____
ROOT
ATOM      1  C   LIG A   1      -7.193  -0.650 127.683  0.00  0.00    +0.020 C 
ATOM      2  C   LIG A   1      -6.894  -0.331 129.169  0.00  0.00    +0.037 C 
ATOM      3  C   LIG A   1      -7.892   0.772 129.738  0.00  0.00    +0.028 C 
ATOM      4  C   LIG A   1      -7.910   0.955 131.266  0.00  0.00    -0.064 C 
ATOM      5  C   LIG A   1      -7.684  -0.169 132.024  0.00  0.00    -0.012 C 
ATOM      6  C   LIG A   1      -7.026  -1.440 131.393  0.00  0.00    +0.120 C 
ATOM      7  C   LIG A   1      -7.539  -1.415 129.980  0.00  0.00    +0.150 C 
ATOM      8  O   LIG A   1      -8.551  -1.970 129.589  0.00  0.00    -0.296 OA
ATOM      9  C   LIG A   1      -5.767  -2.394 131.219  0.00  0.00    +0.197 C 
ATOM     10  C   LIG A   1      -4.825  -1.874 129.985  0.00  0.00    +0.007 C 
ATOM     11  C   LIG A   1      -5.279  -0.388 129.465  0.00  0.00    +0.022 C 
ATOM     12  C   LIG A   1      -3.383  -1.981 130.530  0.00  0.00    +0.015 C 
ATOM     13  C   LIG A   1      -4.766  -2.728 128.696  0.00  0.00    +0.015 C 
ATOM     14  C   LIG A   1      -8.080   2.391 131.828  0.00  0.00    +0.035 C 
ATOM     15  C   LIG A   1      -8.520   3.575 130.852  0.00  0.00    +0.016 C 
ATOM     16  C   LIG A   1      -8.926   3.041 129.460  0.00  0.00    +0.012 C 
ATOM     17  C   LIG A   1      -8.041   1.981 128.850  0.00  0.00    +0.009 C 
ATOM     18  C   LIG A   1      -7.329   4.596 130.806  0.00  0.00    +0.016 C 
ATOM     19  C   LIG A   1      -9.771   4.365 131.424  0.00  0.00    +0.216 C 
ATOM     20  O   LIG A   1      -9.501   4.784 132.782  0.00  0.00    -0.456 OA
ATOM     21  C   LIG A   1      -8.874   3.927 133.622  0.00  0.00    +0.308 C 
ATOM     22  O   LIG A   1      -8.402   4.298 134.690  0.00  0.00    -0.251 OA
ATOM     23  C   LIG A   1      -8.817   2.493 133.162  0.00  0.00    +0.129 C 
ENDROOT
BRANCH  19  24
ATOM     24  C   LIG A   1     -10.208   5.591 130.601  0.00  0.00    +0.031 A 
ATOM     25  C   LIG A   1      -9.517   6.842 130.486  0.00  0.00    +0.048 A 
ATOM     26  C   LIG A   1     -10.254   7.642 129.640  0.00  0.00    +0.195 A 
ATOM     27  O   LIG A   1     -11.360   6.991 129.223  0.00  0.00    -0.471 OA
ATOM     28  C   LIG A   1     -11.324   5.770 129.796  0.00  0.00    +0.202 A 
ENDBRANCH  19  24
BRANCH  11  29
ATOM     29  C   LIG A   1      -4.662   0.778 130.299  0.00  0.00    +0.126 C 
BRANCH  29  30
ATOM     30  C   LIG A   1      -4.343   2.056 129.502  0.00  0.00    +0.307 C 
ATOM     31  O   LIG A   1      -4.364   2.140 128.281  0.00  0.00    -0.251 OA
BRANCH  30  32
ATOM     32  O   LIG A   1      -3.945   3.048 130.356  0.00  0.00    -0.468 OA
ATOM     33  C   LIG A   1      -3.426   4.272 129.797  0.00  0.00    +0.280 C 
ENDBRANCH  30  32
ENDBRANCH  29  30
ENDBRANCH  11  29
BRANCH   9  34
ATOM     34  O   LIG A   1      -6.275  -3.753 131.156  0.00  0.00    -0.457 OA
BRANCH  34  35
ATOM     35  C   LIG A   1      -5.556  -4.841 131.464  0.00  0.00    +0.335 C 
ATOM     36  O   LIG A   1      -5.391  -5.836 130.716  0.00  0.00    -0.245 OA
BRANCH  35  37
ATOM     37  C   LIG A   1      -5.011  -4.731 132.847  0.00  0.00    +0.029 C 
ATOM     38  C   LIG A   1      -3.678  -4.616 133.037  0.00  0.00    -0.020 C 
ATOM     39  C   LIG A   1      -2.978  -4.382 134.339  0.00  0.00    +0.035 C 
ATOM     40  C   LIG A   1      -6.043  -4.739 133.923  0.00  0.00    +0.051 C 
ENDBRANCH  35  37
ENDBRANCH  34  35
ENDBRANCH   9  34
TORSDOF 7
ENDMDL
MODEL 8
REMARK VINA RESULT:      -8.1      3.059      5.016
REMARK  Name = NuBBE_960
REMARK  14 active torsions:
REMARK  status: ('A' for Active; 'I' for Inactive)
REMARK    1  A    between atoms: C_1  and  C_2
REMARK    2  A    between atoms: C_11  and  O_23
REMARK    3  A    between atoms: C_13  and  C_21
REMARK    4  A    between atoms: C_13  and  C_22
REMARK    5  A    between atoms: C_14  and  C_16
REMARK    6  A    between atoms: C_16  and  C_17
REMARK    7  A    between atoms: C_17  and  O_19
REMARK    8  A    between atoms: O_19  and  C_20
REMARK    9  A    between atoms: O_23  and  C_24
REMARK   10  A    between atoms: C_24  and  C_26
REMARK   11  A    between atoms: C_26  and  C_29
REMARK   12  A    between atoms: C_27  and  C_28
REMARK   13  A    between atoms: C_32  and  C_35
REMARK   14  A    between atoms: C_36  and  C_42
REMARK                            x       y       z     vdW  Elec       q    Type
REMARK                         _______ _______ _______ _____ _____    ______ ____
ROOT
ATOM      1  C   LIG A   1      -4.453   1.454 129.073  0.00  0.00    +0.020 C 
ATOM      2  C   LIG A   1      -5.916   1.951 128.972  0.00  0.00    +0.037 C 
ATOM      3  C   LIG A   1      -6.200   3.132 130.001  0.00  0.00    +0.028 C 
ATOM      4  C   LIG A   1      -7.506   3.920 129.794  0.00  0.00    -0.064 C 
ATOM      5  C   LIG A   1      -7.935   4.072 128.497  0.00  0.00    -0.012 C 
ATOM      6  C   LIG A   1      -7.387   3.147 127.360  0.00  0.00    +0.120 C 
ATOM      7  C   LIG A   1      -5.973   2.882 127.798  0.00  0.00    +0.150 C 
ATOM      8  O   LIG A   1      -5.002   3.544 127.477  0.00  0.00    -0.296 OA
ATOM      9  C   LIG A   1      -7.599   1.943 126.345  0.00  0.00    +0.197 C 
ATOM     10  C   LIG A   1      -7.182   0.525 127.050  0.00  0.00    +0.007 C 
ATOM     11  C   LIG A   1      -6.937   0.701 128.660  0.00  0.00    +0.022 C 
ATOM     12  C   LIG A   1      -8.310  -0.450 126.647  0.00  0.00    +0.015 C 
ATOM     13  C   LIG A   1      -5.910  -0.199 126.547  0.00  0.00    +0.015 C 
ATOM     14  C   LIG A   1      -8.281   4.393 131.051  0.00  0.00    +0.035 C 
ATOM     15  C   LIG A   1      -7.583   4.319 132.485  0.00  0.00    +0.016 C 
ATOM     16  C   LIG A   1      -6.086   3.955 132.368  0.00  0.00    +0.012 C 
ATOM     17  C   LIG A   1      -5.724   2.852 131.403  0.00  0.00    +0.009 C 
ATOM     18  C   LIG A   1      -8.409   3.297 133.344  0.00  0.00    +0.016 C 
ATOM     19  C   LIG A   1      -7.660   5.711 133.242  0.00  0.00    +0.216 C 
ATOM     20  O   LIG A   1      -9.031   6.172 133.272  0.00  0.00    -0.456 OA
ATOM     21  C   LIG A   1      -9.797   6.026 132.165  0.00  0.00    +0.308 C 
ATOM     22  O   LIG A   1     -11.014   6.166 132.200  0.00  0.00    -0.251 OA
ATOM     23  C   LIG A   1      -9.052   5.703 130.896  0.00  0.00    +0.129 C 
ENDROOT
BRANCH  19  24
ATOM     24  C   LIG A   1      -7.101   5.712 134.676  0.00  0.00    +0.031 A 
ATOM     25  C   LIG A   1      -5.720   5.719 135.062  0.00  0.00    +0.048 A 
ATOM     26  C   LIG A   1      -5.678   5.733 136.439  0.00  0.00    +0.195 A 
ATOM     27  O   LIG A   1      -6.929   5.726 136.947  0.00  0.00    -0.471 OA
ATOM     28  C   LIG A   1      -7.770   5.717 135.892  0.00  0.00    +0.202 A 
ENDBRANCH  19  24
BRANCH  11  29
ATOM     29  C   LIG A   1      -8.250   0.622 129.501  0.00  0.00    +0.126 C 
BRANCH  29  30
ATOM     30  C   LIG A   1      -8.160  -0.239 130.774  0.00  0.00    +0.307 C 
ATOM     31  O   LIG A   1      -8.685   0.039 131.844  0.00  0.00    -0.251 OA
BRANCH  30  32
ATOM     32  O   LIG A   1      -7.330  -1.305 130.554  0.00  0.00    -0.468 OA
ATOM     33  C   LIG A   1      -7.885  -2.503 129.974  0.00  0.00    +0.280 C 
ENDBRANCH  30  32
ENDBRANCH  29  30
ENDBRANCH  11  29
BRANCH   9  34
ATOM     34  O   LIG A   1      -6.925   2.310 125.112  0.00  0.00    -0.457 OA
BRANCH  34  35
ATOM     35  C   LIG A   1      -7.424   3.160 124.205  0.00  0.00    +0.335 C 
ATOM     36  O   LIG A   1      -8.639   3.454 124.079  0.00  0.00    -0.245 OA
BRANCH  35  37
ATOM     37  C   LIG A   1      -6.340   3.679 123.324  0.00  0.00    +0.029 C 
ATOM     38  C   LIG A   1      -6.387   3.450 121.993  0.00  0.00    -0.020 C 
ATOM     39  C   LIG A   1      -5.451   3.993 120.959  0.00  0.00    +0.035 C 
ATOM     40  C   LIG A   1      -5.279   4.449 124.035  0.00  0.00    +0.051 C 
ENDBRANCH  35  37
ENDBRANCH  34  35
ENDBRANCH   9  34
TORSDOF 7
ENDMDL
MODEL 9
REMARK VINA RESULT:      -8.0      2.367      8.793
REMARK  Name = NuBBE_960
REMARK  14 active torsions:
REMARK  status: ('A' for Active; 'I' for Inactive)
REMARK    1  A    between atoms: C_1  and  C_2
REMARK    2  A    between atoms: C_11  and  O_23
REMARK    3  A    between atoms: C_13  and  C_21
REMARK    4  A    between atoms: C_13  and  C_22
REMARK    5  A    between atoms: C_14  and  C_16
REMARK    6  A    between atoms: C_16  and  C_17
REMARK    7  A    between atoms: C_17  and  O_19
REMARK    8  A    between atoms: O_19  and  C_20
REMARK    9  A    between atoms: O_23  and  C_24
REMARK   10  A    between atoms: C_24  and  C_26
REMARK   11  A    between atoms: C_26  and  C_29
REMARK   12  A    between atoms: C_27  and  C_28
REMARK   13  A    between atoms: C_32  and  C_35
REMARK   14  A    between atoms: C_36  and  C_42
REMARK                            x       y       z     vdW  Elec       q    Type
REMARK                         _______ _______ _______ _____ _____    ______ ____
ROOT
ATOM      1  C   LIG A   1      -7.147   0.448 131.702  0.00  0.00    +0.020 C 
ATOM      2  C   LIG A   1      -7.189   1.498 130.565  0.00  0.00    +0.037 C 
ATOM      3  C   LIG A   1      -7.495   0.819 129.158  0.00  0.00    +0.028 C 
ATOM      4  C   LIG A   1      -7.870   1.769 128.007  0.00  0.00    -0.064 C 
ATOM      5  C   LIG A   1      -8.570   2.903 128.346  0.00  0.00    -0.012 C 
ATOM      6  C   LIG A   1      -8.600   3.411 129.826  0.00  0.00    +0.120 C 
ATOM      7  C   LIG A   1      -8.546   2.134 130.618  0.00  0.00    +0.150 C 
ATOM      8  O   LIG A   1      -9.515   1.507 131.007  0.00  0.00    -0.296 OA
ATOM      9  C   LIG A   1      -8.130   4.450 130.932  0.00  0.00    +0.197 C 
ATOM     10  C   LIG A   1      -6.738   3.946 131.632  0.00  0.00    +0.007 C 
ATOM     11  C   LIG A   1      -6.080   2.683 130.823  0.00  0.00    +0.022 C 
ATOM     12  C   LIG A   1      -5.866   5.217 131.714  0.00  0.00    +0.015 C 
ATOM     13  C   LIG A   1      -6.788   3.471 133.105  0.00  0.00    +0.015 C 
ATOM     14  C   LIG A   1      -7.353   1.433 126.584  0.00  0.00    +0.035 C 
ATOM     15  C   LIG A   1      -6.717  -0.002 126.293  0.00  0.00    +0.016 C 
ATOM     16  C   LIG A   1      -6.906  -0.960 127.490  0.00  0.00    +0.012 C 
ATOM     17  C   LIG A   1      -6.649  -0.394 128.866  0.00  0.00    +0.009 C 
ATOM     18  C   LIG A   1      -5.212   0.235 125.914  0.00  0.00    +0.016 C 
ATOM     19  C   LIG A   1      -7.394  -0.694 125.037  0.00  0.00    +0.216 C 
ATOM     20  O   LIG A   1      -7.364   0.209 123.908  0.00  0.00    -0.456 OA
ATOM     21  C   LIG A   1      -7.630   1.521 124.110  0.00  0.00    +0.308 C 
ATOM     22  O   LIG A   1      -7.384   2.368 123.258  0.00  0.00    -0.251 OA
ATOM     23  C   LIG A   1      -8.265   1.859 125.434  0.00  0.00    +0.129 C 
ENDROOT
BRANCH  19  24
ATOM     24  C   LIG A   1      -6.778  -2.041 124.616  0.00  0.00    +0.031 A 
ATOM     25  C   LIG A   1      -5.460  -2.260 124.096  0.00  0.00    +0.048 A 
ATOM     26  C   LIG A   1      -5.327  -3.613 123.870  0.00  0.00    +0.195 A 
ATOM     27  O   LIG A   1      -6.466  -4.258 124.200  0.00  0.00    -0.471 OA
ATOM     28  C   LIG A   1      -7.323  -3.317 124.646  0.00  0.00    +0.202 A 
ENDBRANCH  19  24
BRANCH  11  29
ATOM     29  C   LIG A   1      -5.198   3.115 129.608  0.00  0.00    +0.126 C 
BRANCH  29  30
ATOM     30  C   LIG A   1      -4.099   2.114 129.210  0.00  0.00    +0.307 C 
ATOM     31  O   LIG A   1      -3.775   1.135 129.867  0.00  0.00    -0.251 OA
BRANCH  30  32
ATOM     32  O   LIG A   1      -3.481   2.537 128.064  0.00  0.00    -0.468 OA
ATOM     33  C   LIG A   1      -2.797   3.806 128.078  0.00  0.00    +0.280 C 
ENDBRANCH  30  32
ENDBRANCH  29  30
ENDBRANCH  11  29
BRANCH   9  34
ATOM     34  O   LIG A   1      -9.274   4.690 131.795  0.00  0.00    -0.457 OA
BRANCH  34  35
ATOM     35  C   LIG A   1      -9.645   5.901 132.233  0.00  0.00    +0.335 C 
ATOM     36  O   LIG A   1      -9.404   6.364 133.376  0.00  0.00    -0.245 OA
BRANCH  35  37
ATOM     37  C   LIG A   1     -10.432   6.615 131.188  0.00  0.00    +0.029 C 
ATOM     38  C   LIG A   1      -9.793   7.225 130.166  0.00  0.00    -0.020 C 
ATOM     39  C   LIG A   1     -10.428   7.882 128.980  0.00  0.00    +0.035 C 
ATOM     40  C   LIG A   1     -11.909   6.560 131.379  0.00  0.00    +0.051 C 
ENDBRANCH  35  37
ENDBRANCH  34  35
ENDBRANCH   9  34
TORSDOF 7
ENDMDL
