MODEL 1
REMARK VINA RESULT:      -9.1      0.000      0.000
REMARK  Name = NuBBE_46
REMARK  17 active torsions:
REMARK  status: ('A' for Active; 'I' for Inactive)
REMARK    1  A    between atoms: O_1  and  C_2
REMARK    2  A    between atoms: C_4  and  O_5
REMARK    3  A    between atoms: C_8  and  O_9
REMARK    4  A    between atoms: O_9  and  C_10
REMARK    5  A    between atoms: C_13  and  C_15
REMARK    6  A    between atoms: C_15  and  O_16
REMARK    7  A    between atoms: O_16  and  C_17
REMARK    8  A    between atoms: C_19  and  O_21
REMARK    9  A    between atoms: C_22  and  O_24
REMARK   10  A    between atoms: C_25  and  O_27
REMARK   11  A    between atoms: C_28  and  C_30
REMARK   12  A    between atoms: C_32  and  O_34
REMARK   13  A    between atoms: C_35  and  O_37
REMARK   14  A    between atoms: C_38  and  O_40
REMARK   15  A    between atoms: C_41  and  C_42
REMARK   16  A    between atoms: C_44  and  O_45
REMARK   17  A    between atoms: C_46  and  O_47
REMARK                            x       y       z     vdW  Elec       q    Type
REMARK                         _______ _______ _______ _____ _____    ______ ____
ROOT
ATOM      1  C   LIG A   1      -7.405   2.236 129.258  0.00  0.00    +0.340 C 
ATOM      2  O   LIG A   1      -6.951   3.573 129.525  0.00  0.00    -0.331 OA
ATOM      3  C   LIG A   1      -7.921   4.300 130.303  0.00  0.00    +0.179 C 
ATOM      4  C   LIG A   1      -7.903   3.727 131.726  0.00  0.00    +0.177 C 
ATOM      5  C   LIG A   1      -8.358   2.270 131.656  0.00  0.00    +0.180 C 
ATOM      6  C   LIG A   1      -7.579   1.462 130.603  0.00  0.00    +0.214 C 
ENDROOT
BRANCH   6   7
ATOM      7  O   LIG A   1      -8.260   0.213 130.406  0.00  0.00    -0.383 OA
ATOM      8  H   LIG A   1      -9.063   0.237 130.960  0.00  0.00    +0.210 HD
ENDBRANCH   6   7
BRANCH   5   9
ATOM      9  O   LIG A   1      -8.224   1.660 132.957  0.00  0.00    -0.386 OA
ATOM     10  H   LIG A   1      -8.984   1.928 133.505  0.00  0.00    +0.210 HD
ENDBRANCH   5   9
BRANCH   4  11
ATOM     11  O   LIG A   1      -8.751   4.455 132.615  0.00  0.00    -0.387 OA
ATOM     12  H   LIG A   1      -9.560   4.687 132.116  0.00  0.00    +0.210 HD
ENDBRANCH   4  11
BRANCH   3  13
ATOM     13  C   LIG A   1      -7.576   5.789 130.313  0.00  0.00    +0.197 C 
BRANCH  13  14
ATOM     14  O   LIG A   1      -8.742   6.591 130.060  0.00  0.00    -0.346 OA
BRANCH  14  15
ATOM     15  C   LIG A   1      -9.773   5.806 129.470  0.00  0.00    +0.282 C 
ATOM     16  C   LIG A   1     -11.074   5.777 130.290  0.00  0.00    +0.201 C 
ATOM     17  C   LIG A   1     -11.686   7.174 130.382  0.00  0.00    +0.179 C 
ATOM     18  C   LIG A   1     -11.809   7.845 129.005  0.00  0.00    +0.174 C 
ATOM     19  C   LIG A   1     -10.584   7.601 128.107  0.00  0.00    +0.149 C 
ATOM     20  C   LIG A   1     -10.924   7.869 126.642  0.00  0.00    +0.040 C 
ATOM     21  O   LIG A   1     -10.119   6.243 128.150  0.00  0.00    -0.343 OA
BRANCH  18  22
ATOM     22  O   LIG A   1     -12.009   9.255 129.180  0.00  0.00    -0.387 OA
ATOM     23  H   LIG A   1     -12.857   9.353 129.657  0.00  0.00    +0.210 HD
ENDBRANCH  18  22
BRANCH  17  24
ATOM     24  O   LIG A   1     -13.013   7.078 130.949  0.00  0.00    -0.386 OA
ATOM     25  H   LIG A   1     -12.894   7.265 131.906  0.00  0.00    +0.210 HD
ENDBRANCH  17  24
BRANCH  16  26
ATOM     26  O   LIG A   1     -12.046   4.921 129.637  0.00  0.00    -0.384 OA
ATOM     27  H   LIG A   1     -12.735   4.729 130.308  0.00  0.00    +0.210 HD
ENDBRANCH  16  26
ENDBRANCH  14  15
ENDBRANCH  13  14
ENDBRANCH   3  13
BRANCH   1  28
ATOM     28  O   LIG A   1      -6.444   1.506 128.468  0.00  0.00    -0.453 OA
BRANCH  28  34
ATOM     29  C   LIG A   1      -9.382  -2.943 124.858  0.00  0.00    +0.124 A 
ATOM     30  C   LIG A   1      -9.241  -3.492 126.129  0.00  0.00    +0.091 A 
ATOM     31  C   LIG A   1      -8.499  -2.802 127.086  0.00  0.00    +0.135 A 
ATOM     32  C   LIG A   1      -7.938  -1.558 126.795  0.00  0.00    +0.109 A 
ATOM     33  C   LIG A   1      -7.045  -0.830 127.713  0.00  0.00    +0.238 A 
ATOM     34  C   LIG A   1      -6.934   0.640 127.503  0.00  0.00    +0.214 A 
ATOM     35  C   LIG A   1      -7.207   1.057 126.249  0.00  0.00    +0.181 A 
ATOM     36  O   LIG A   1      -7.681   0.264 125.222  0.00  0.00    -0.451 OA
ATOM     37  O   LIG A   1      -6.322  -1.429 128.526  0.00  0.00    -0.283 OA
ATOM     38  C   LIG A   1      -8.164  -0.980 125.541  0.00  0.00    +0.146 A 
ATOM     39  C   LIG A   1      -8.861  -1.687 124.558  0.00  0.00    +0.092 A 
BRANCH  35  40
ATOM     40  C   LIG A   1      -6.921   2.438 125.847  0.00  0.00    +0.025 A 
ATOM     41  C   LIG A   1      -7.923   3.417 125.882  0.00  0.00    +0.060 A 
ATOM     42  C   LIG A   1      -7.597   4.729 125.557  0.00  0.00    +0.159 A 
ATOM     43  C   LIG A   1      -6.295   5.068 125.193  0.00  0.00    +0.158 A 
ATOM     44  C   LIG A   1      -5.298   4.107 125.141  0.00  0.00    +0.050 A 
ATOM     45  C   LIG A   1      -5.612   2.787 125.470  0.00  0.00    +0.015 A 
BRANCH  43  46
ATOM     46  O   LIG A   1      -5.985   6.362 124.891  0.00  0.00    -0.503 OA
ATOM     47  H   LIG A   1      -5.076   6.319 124.534  0.00  0.00    +0.292 HD
ENDBRANCH  43  46
BRANCH  42  48
ATOM     48  O   LIG A   1      -8.526   5.734 125.593  0.00  0.00    -0.503 OA
ATOM     49  H   LIG A   1      -9.404   5.335 125.474  0.00  0.00    +0.292 HD
ENDBRANCH  42  48
ENDBRANCH  35  40
BRANCH  29  50
ATOM     50  O   LIG A   1     -10.015  -3.633 123.867  0.00  0.00    -0.506 OA
ATOM     51  H   LIG A   1      -9.486  -3.573 123.053  0.00  0.00    +0.292 HD
ENDBRANCH  29  50
BRANCH  31  52
ATOM     52  O   LIG A   1      -8.342  -3.375 128.315  0.00  0.00    -0.506 OA
ATOM     53  H   LIG A   1      -7.620  -2.911 128.774  0.00  0.00    +0.292 HD
ENDBRANCH  31  52
ENDBRANCH  28  34
ENDBRANCH   1  28
TORSDOF 16
ENDMDL
MODEL 2
REMARK VINA RESULT:      -9.0      2.165      3.139
REMARK  Name = NuBBE_46
REMARK  17 active torsions:
REMARK  status: ('A' for Active; 'I' for Inactive)
REMARK    1  A    between atoms: O_1  and  C_2
REMARK    2  A    between atoms: C_4  and  O_5
REMARK    3  A    between atoms: C_8  and  O_9
REMARK    4  A    between atoms: O_9  and  C_10
REMARK    5  A    between atoms: C_13  and  C_15
REMARK    6  A    between atoms: C_15  and  O_16
REMARK    7  A    between atoms: O_16  and  C_17
REMARK    8  A    between atoms: C_19  and  O_21
REMARK    9  A    between atoms: C_22  and  O_24
REMARK   10  A    between atoms: C_25  and  O_27
REMARK   11  A    between atoms: C_28  and  C_30
REMARK   12  A    between atoms: C_32  and  O_34
REMARK   13  A    between atoms: C_35  and  O_37
REMARK   14  A    between atoms: C_38  and  O_40
REMARK   15  A    between atoms: C_41  and  C_42
REMARK   16  A    between atoms: C_44  and  O_45
REMARK   17  A    between atoms: C_46  and  O_47
REMARK                            x       y       z     vdW  Elec       q    Type
REMARK                         _______ _______ _______ _____ _____    ______ ____
ROOT
ATOM      1  C   LIG A   1      -7.347   2.904 129.480  0.00  0.00    +0.340 C 
ATOM      2  O   LIG A   1      -7.072   4.246 129.916  0.00  0.00    -0.331 OA
ATOM      3  C   LIG A   1      -8.095   4.716 130.812  0.00  0.00    +0.179 C 
ATOM      4  C   LIG A   1      -7.933   3.968 132.142  0.00  0.00    +0.177 C 
ATOM      5  C   LIG A   1      -8.183   2.484 131.885  0.00  0.00    +0.180 C 
ATOM      6  C   LIG A   1      -7.350   1.943 130.710  0.00  0.00    +0.214 C 
ENDROOT
BRANCH   6   7
ATOM      7  O   LIG A   1      -7.859   0.645 130.362  0.00  0.00    -0.383 OA
ATOM      8  H   LIG A   1      -8.829   0.727 130.307  0.00  0.00    +0.210 HD
ENDBRANCH   6   7
BRANCH   5   9
ATOM      9  O   LIG A   1      -7.906   1.733 133.085  0.00  0.00    -0.386 OA
ATOM     10  H   LIG A   1      -8.441   2.100 133.812  0.00  0.00    +0.210 HD
ENDBRANCH   5   9
BRANCH   4  11
ATOM     11  O   LIG A   1      -8.832   4.443 133.146  0.00  0.00    -0.387 OA
ATOM     12  H   LIG A   1      -9.663   4.689 132.694  0.00  0.00    +0.210 HD
ENDBRANCH   4  11
BRANCH   3  13
ATOM     13  C   LIG A   1      -7.961   6.225 131.018  0.00  0.00    +0.197 C 
BRANCH  13  14
ATOM     14  O   LIG A   1      -8.851   6.947 130.149  0.00  0.00    -0.346 OA
BRANCH  14  15
ATOM     15  C   LIG A   1      -9.794   6.064 129.552  0.00  0.00    +0.282 C 
ATOM     16  C   LIG A   1     -11.156   6.040 130.264  0.00  0.00    +0.201 C 
ATOM     17  C   LIG A   1     -11.833   7.407 130.182  0.00  0.00    +0.179 C 
ATOM     18  C   LIG A   1     -11.869   7.951 128.745  0.00  0.00    +0.174 C 
ATOM     19  C   LIG A   1     -10.564   7.692 127.973  0.00  0.00    +0.149 C 
ATOM     20  C   LIG A   1     -10.791   7.818 126.468  0.00  0.00    +0.040 C 
ATOM     21  O   LIG A   1     -10.046   6.368 128.174  0.00  0.00    -0.343 OA
BRANCH  18  22
ATOM     22  O   LIG A   1     -12.143   9.359 128.778  0.00  0.00    -0.387 OA
ATOM     23  H   LIG A   1     -13.062   9.450 129.097  0.00  0.00    +0.210 HD
ENDBRANCH  18  22
BRANCH  17  24
ATOM     24  O   LIG A   1     -13.198   7.293 130.648  0.00  0.00    -0.386 OA
ATOM     25  H   LIG A   1     -13.515   8.219 130.735  0.00  0.00    +0.210 HD
ENDBRANCH  17  24
BRANCH  16  26
ATOM     26  O   LIG A   1     -12.033   5.083 129.614  0.00  0.00    -0.384 OA
ATOM     27  H   LIG A   1     -11.468   4.322 129.362  0.00  0.00    +0.210 HD
ENDBRANCH  16  26
ENDBRANCH  14  15
ENDBRANCH  13  14
ENDBRANCH   3  13
BRANCH   1  28
ATOM     28  O   LIG A   1      -6.331   2.432 128.571  0.00  0.00    -0.453 OA
BRANCH  28  34
ATOM     29  C   LIG A   1      -8.762   2.621 122.612  0.00  0.00    +0.124 A 
ATOM     30  C   LIG A   1      -9.616   1.821 123.364  0.00  0.00    +0.091 A 
ATOM     31  C   LIG A   1      -9.253   1.479 124.666  0.00  0.00    +0.135 A 
ATOM     32  C   LIG A   1      -8.072   1.965 125.229  0.00  0.00    +0.109 A 
ATOM     33  C   LIG A   1      -7.566   1.551 126.549  0.00  0.00    +0.238 A 
ATOM     34  C   LIG A   1      -6.613   2.482 127.215  0.00  0.00    +0.214 A 
ATOM     35  C   LIG A   1      -5.926   3.287 126.377  0.00  0.00    +0.181 A 
ATOM     36  O   LIG A   1      -6.127   3.389 125.014  0.00  0.00    -0.451 OA
ATOM     37  O   LIG A   1      -7.814   0.428 127.017  0.00  0.00    -0.283 OA
ATOM     38  C   LIG A   1      -7.269   2.840 124.489  0.00  0.00    +0.146 A 
ATOM     39  C   LIG A   1      -7.598   3.145 123.167  0.00  0.00    +0.092 A 
BRANCH  35  40
ATOM     40  C   LIG A   1      -4.802   4.087 126.873  0.00  0.00    +0.025 A 
ATOM     41  C   LIG A   1      -4.994   5.408 127.297  0.00  0.00    +0.060 A 
ATOM     42  C   LIG A   1      -3.916   6.113 127.822  0.00  0.00    +0.159 A 
ATOM     43  C   LIG A   1      -2.659   5.519 127.918  0.00  0.00    +0.158 A 
ATOM     44  C   LIG A   1      -2.452   4.217 127.490  0.00  0.00    +0.050 A 
ATOM     45  C   LIG A   1      -3.527   3.498 126.966  0.00  0.00    +0.015 A 
BRANCH  43  46
ATOM     46  O   LIG A   1      -1.613   6.217 128.450  0.00  0.00    -0.503 OA
ATOM     47  H   LIG A   1      -0.833   5.649 128.287  0.00  0.00    +0.292 HD
ENDBRANCH  43  46
BRANCH  42  48
ATOM     48  O   LIG A   1      -4.045   7.399 128.273  0.00  0.00    -0.503 OA
ATOM     49  H   LIG A   1      -4.912   7.732 127.985  0.00  0.00    +0.292 HD
ENDBRANCH  42  48
ENDBRANCH  35  40
BRANCH  29  50
ATOM     50  O   LIG A   1      -9.035   2.894 121.305  0.00  0.00    -0.506 OA
ATOM     51  H   LIG A   1      -9.973   2.704 121.131  0.00  0.00    +0.292 HD
ENDBRANCH  29  50
BRANCH  31  52
ATOM     52  O   LIG A   1     -10.086   0.662 125.374  0.00  0.00    -0.506 OA
ATOM     53  H   LIG A   1     -10.866   1.181 125.636  0.00  0.00    +0.292 HD
ENDBRANCH  31  52
ENDBRANCH  28  34
ENDBRANCH   1  28
TORSDOF 16
ENDMDL
MODEL 3
REMARK VINA RESULT:      -9.0      1.175      1.868
REMARK  Name = NuBBE_46
REMARK  17 active torsions:
REMARK  status: ('A' for Active; 'I' for Inactive)
REMARK    1  A    between atoms: O_1  and  C_2
REMARK    2  A    between atoms: C_4  and  O_5
REMARK    3  A    between atoms: C_8  and  O_9
REMARK    4  A    between atoms: O_9  and  C_10
REMARK    5  A    between atoms: C_13  and  C_15
REMARK    6  A    between atoms: C_15  and  O_16
REMARK    7  A    between atoms: O_16  and  C_17
REMARK    8  A    between atoms: C_19  and  O_21
REMARK    9  A    between atoms: C_22  and  O_24
REMARK   10  A    between atoms: C_25  and  O_27
REMARK   11  A    between atoms: C_28  and  C_30
REMARK   12  A    between atoms: C_32  and  O_34
REMARK   13  A    between atoms: C_35  and  O_37
REMARK   14  A    between atoms: C_38  and  O_40
REMARK   15  A    between atoms: C_41  and  C_42
REMARK   16  A    between atoms: C_44  and  O_45
REMARK   17  A    between atoms: C_46  and  O_47
REMARK                            x       y       z     vdW  Elec       q    Type
REMARK                         _______ _______ _______ _____ _____    ______ ____
ROOT
ATOM      1  C   LIG A   1      -8.020   1.445 129.598  0.00  0.00    +0.340 C 
ATOM      2  O   LIG A   1      -8.861   2.610 129.640  0.00  0.00    -0.331 OA
ATOM      3  C   LIG A   1      -9.722   2.583 130.793  0.00  0.00    +0.179 C 
ATOM      4  C   LIG A   1      -8.853   2.841 132.031  0.00  0.00    +0.177 C 
ATOM      5  C   LIG A   1      -7.860   1.688 132.162  0.00  0.00    +0.180 C 
ATOM      6  C   LIG A   1      -7.094   1.422 130.854  0.00  0.00    +0.214 C 
ENDROOT
BRANCH   6   7
ATOM      7  O   LIG A   1      -6.415   0.162 130.984  0.00  0.00    -0.383 OA
ATOM      8  H   LIG A   1      -5.473   0.327 130.791  0.00  0.00    +0.210 HD
ENDBRANCH   6   7
BRANCH   5   9
ATOM      9  O   LIG A   1      -6.938   1.966 133.237  0.00  0.00    -0.386 OA
ATOM     10  H   LIG A   1      -6.425   1.158 133.422  0.00  0.00    +0.210 HD
ENDBRANCH   5   9
BRANCH   4  11
ATOM     11  O   LIG A   1      -9.629   2.948 133.226  0.00  0.00    -0.387 OA
ATOM     12  H   LIG A   1     -10.424   3.473 133.007  0.00  0.00    +0.210 HD
ENDBRANCH   4  11
BRANCH   3  13
ATOM     13  C   LIG A   1     -10.810   3.648 130.662  0.00  0.00    +0.197 C 
BRANCH  13  14
ATOM     14  O   LIG A   1     -10.537   4.534 129.563  0.00  0.00    -0.346 OA
BRANCH  14  15
ATOM     15  C   LIG A   1     -10.036   5.780 130.037  0.00  0.00    +0.282 C 
ATOM     16  C   LIG A   1      -9.723   6.787 128.917  0.00  0.00    +0.201 C 
ATOM     17  C   LIG A   1     -10.996   7.167 128.162  0.00  0.00    +0.179 C 
ATOM     18  C   LIG A   1     -12.128   7.593 129.110  0.00  0.00    +0.174 C 
ATOM     19  C   LIG A   1     -12.216   6.715 130.370  0.00  0.00    +0.149 C 
ATOM     20  C   LIG A   1     -13.009   7.421 131.468  0.00  0.00    +0.040 C 
ATOM     21  O   LIG A   1     -10.932   6.430 130.947  0.00  0.00    -0.343 OA
BRANCH  18  22
ATOM     22  O   LIG A   1     -13.376   7.557 128.404  0.00  0.00    -0.387 OA
ATOM     23  H   LIG A   1     -13.376   6.724 127.892  0.00  0.00    +0.210 HD
ENDBRANCH  18  22
BRANCH  17  24
ATOM     24  O   LIG A   1     -10.713   8.279 127.281  0.00  0.00    -0.386 OA
ATOM     25  H   LIG A   1     -11.006   9.076 127.775  0.00  0.00    +0.210 HD
ENDBRANCH  17  24
BRANCH  16  26
ATOM     26  O   LIG A   1      -9.179   8.004 129.490  0.00  0.00    -0.384 OA
ATOM     27  H   LIG A   1      -9.903   8.665 129.465  0.00  0.00    +0.210 HD
ENDBRANCH  16  26
ENDBRANCH  14  15
ENDBRANCH  13  14
ENDBRANCH   3  13
BRANCH   1  28
ATOM     28  O   LIG A   1      -7.164   1.461 128.437  0.00  0.00    -0.453 OA
BRANCH  28  34
ATOM     29  C   LIG A   1      -9.381  -3.029 124.390  0.00  0.00    +0.124 A 
ATOM     30  C   LIG A   1      -9.455  -3.575 125.668  0.00  0.00    +0.091 A 
ATOM     31  C   LIG A   1      -8.898  -2.875 126.736  0.00  0.00    +0.135 A 
ATOM     32  C   LIG A   1      -8.310  -1.624 126.542  0.00  0.00    +0.109 A 
ATOM     33  C   LIG A   1      -7.597  -0.884 127.598  0.00  0.00    +0.238 A 
ATOM     34  C   LIG A   1      -7.470   0.587 127.405  0.00  0.00    +0.214 A 
ATOM     35  C   LIG A   1      -7.528   1.000 126.121  0.00  0.00    +0.181 A 
ATOM     36  O   LIG A   1      -7.809   0.199 125.031  0.00  0.00    -0.451 OA
ATOM     37  O   LIG A   1      -7.017  -1.472 128.525  0.00  0.00    -0.283 OA
ATOM     38  C   LIG A   1      -8.323  -1.051 125.266  0.00  0.00    +0.146 A 
ATOM     39  C   LIG A   1      -8.832  -1.767 124.180  0.00  0.00    +0.092 A 
BRANCH  35  40
ATOM     40  C   LIG A   1      -7.194   2.384 125.770  0.00  0.00    +0.025 A 
ATOM     41  C   LIG A   1      -8.160   3.396 125.850  0.00  0.00    +0.060 A 
ATOM     42  C   LIG A   1      -7.788   4.707 125.572  0.00  0.00    +0.159 A 
ATOM     43  C   LIG A   1      -6.476   5.012 125.212  0.00  0.00    +0.158 A 
ATOM     44  C   LIG A   1      -5.515   4.018 125.117  0.00  0.00    +0.050 A 
ATOM     45  C   LIG A   1      -5.875   2.700 125.398  0.00  0.00    +0.015 A 
BRANCH  43  46
ATOM     46  O   LIG A   1      -6.121   6.305 124.957  0.00  0.00    -0.503 OA
ATOM     47  H   LIG A   1      -5.146   6.280 124.881  0.00  0.00    +0.292 HD
ENDBRANCH  43  46
BRANCH  42  48
ATOM     48  O   LIG A   1      -8.679   5.743 125.653  0.00  0.00    -0.503 OA
ATOM     49  H   LIG A   1      -9.319   5.533 126.354  0.00  0.00    +0.292 HD
ENDBRANCH  42  48
ENDBRANCH  35  40
BRANCH  29  50
ATOM     50  O   LIG A   1      -9.826  -3.728 123.307  0.00  0.00    -0.506 OA
ATOM     51  H   LIG A   1      -9.121  -3.754 122.637  0.00  0.00    +0.292 HD
ENDBRANCH  29  50
BRANCH  31  52
ATOM     52  O   LIG A   1      -8.947  -3.444 127.975  0.00  0.00    -0.506 OA
ATOM     53  H   LIG A   1      -8.352  -2.945 128.561  0.00  0.00    +0.292 HD
ENDBRANCH  31  52
ENDBRANCH  28  34
ENDBRANCH   1  28
TORSDOF 16
ENDMDL
MODEL 4
REMARK VINA RESULT:      -8.8      2.338      3.787
REMARK  Name = NuBBE_46
REMARK  17 active torsions:
REMARK  status: ('A' for Active; 'I' for Inactive)
REMARK    1  A    between atoms: O_1  and  C_2
REMARK    2  A    between atoms: C_4  and  O_5
REMARK    3  A    between atoms: C_8  and  O_9
REMARK    4  A    between atoms: O_9  and  C_10
REMARK    5  A    between atoms: C_13  and  C_15
REMARK    6  A    between atoms: C_15  and  O_16
REMARK    7  A    between atoms: O_16  and  C_17
REMARK    8  A    between atoms: C_19  and  O_21
REMARK    9  A    between atoms: C_22  and  O_24
REMARK   10  A    between atoms: C_25  and  O_27
REMARK   11  A    between atoms: C_28  and  C_30
REMARK   12  A    between atoms: C_32  and  O_34
REMARK   13  A    between atoms: C_35  and  O_37
REMARK   14  A    between atoms: C_38  and  O_40
REMARK   15  A    between atoms: C_41  and  C_42
REMARK   16  A    between atoms: C_44  and  O_45
REMARK   17  A    between atoms: C_46  and  O_47
REMARK                            x       y       z     vdW  Elec       q    Type
REMARK                         _______ _______ _______ _____ _____    ______ ____
ROOT
ATOM      1  C   LIG A   1      -7.217   1.733 128.857  0.00  0.00    +0.340 C 
ATOM      2  O   LIG A   1      -6.961   2.750 129.840  0.00  0.00    -0.331 OA
ATOM      3  C   LIG A   1      -8.034   2.823 130.797  0.00  0.00    +0.179 C 
ATOM      4  C   LIG A   1      -7.955   1.573 131.683  0.00  0.00    +0.177 C 
ATOM      5  C   LIG A   1      -8.198   0.350 130.801  0.00  0.00    +0.180 C 
ATOM      6  C   LIG A   1      -7.299   0.339 129.552  0.00  0.00    +0.214 C 
ENDROOT
BRANCH   6   7
ATOM      7  O   LIG A   1      -7.794  -0.668 128.655  0.00  0.00    -0.383 OA
ATOM      8  H   LIG A   1      -7.365  -0.515 127.793  0.00  0.00    +0.210 HD
ENDBRANCH   6   7
BRANCH   5   9
ATOM      9  O   LIG A   1      -7.998  -0.851 131.576  0.00  0.00    -0.386 OA
ATOM     10  H   LIG A   1      -8.700  -1.487 131.349  0.00  0.00    +0.210 HD
ENDBRANCH   5   9
BRANCH   4  11
ATOM     11  O   LIG A   1      -8.910   1.600 132.745  0.00  0.00    -0.387 OA
ATOM     12  H   LIG A   1      -9.145   2.537 132.898  0.00  0.00    +0.210 HD
ENDBRANCH   4  11
BRANCH   3  13
ATOM     13  C   LIG A   1      -7.903   4.093 131.636  0.00  0.00    +0.197 C 
BRANCH  13  14
ATOM     14  O   LIG A   1      -9.183   4.718 131.831  0.00  0.00    -0.346 OA
BRANCH  14  15
ATOM     15  C   LIG A   1      -9.109   6.111 131.550  0.00  0.00    +0.282 C 
ATOM     16  C   LIG A   1      -8.797   6.430 130.078  0.00  0.00    +0.201 C 
ATOM     17  C   LIG A   1      -9.920   5.933 129.169  0.00  0.00    +0.179 C 
ATOM     18  C   LIG A   1     -11.304   6.400 129.648  0.00  0.00    +0.174 C 
ATOM     19  C   LIG A   1     -11.465   6.328 131.176  0.00  0.00    +0.149 C 
ATOM     20  C   LIG A   1     -12.627   7.204 131.640  0.00  0.00    +0.040 C 
ATOM     21  O   LIG A   1     -10.314   6.812 131.885  0.00  0.00    -0.343 OA
BRANCH  18  22
ATOM     22  O   LIG A   1     -12.317   5.606 129.015  0.00  0.00    -0.387 OA
ATOM     23  H   LIG A   1     -13.162   5.851 129.441  0.00  0.00    +0.210 HD
ENDBRANCH  18  22
BRANCH  17  24
ATOM     24  O   LIG A   1      -9.716   6.448 127.833  0.00  0.00    -0.386 OA
ATOM     25  H   LIG A   1      -9.475   7.392 127.958  0.00  0.00    +0.210 HD
ENDBRANCH  17  24
BRANCH  16  26
ATOM     26  O   LIG A   1      -8.697   7.866 129.898  0.00  0.00    -0.384 OA
ATOM     27  H   LIG A   1      -8.233   8.209 130.690  0.00  0.00    +0.210 HD
ENDBRANCH  16  26
ENDBRANCH  14  15
ENDBRANCH  13  14
ENDBRANCH   3  13
BRANCH   1  28
ATOM     28  O   LIG A   1      -6.151   1.664 127.887  0.00  0.00    -0.453 OA
BRANCH  28  34
ATOM     29  C   LIG A   1      -8.698   2.897 122.103  0.00  0.00    +0.124 A 
ATOM     30  C   LIG A   1      -9.464   1.881 122.667  0.00  0.00    +0.091 A 
ATOM     31  C   LIG A   1      -9.048   1.305 123.865  0.00  0.00    +0.135 A 
ATOM     32  C   LIG A   1      -7.905   1.764 124.520  0.00  0.00    +0.109 A 
ATOM     33  C   LIG A   1      -7.340   1.127 125.722  0.00  0.00    +0.238 A 
ATOM     34  C   LIG A   1      -6.461   1.976 126.572  0.00  0.00    +0.214 A 
ATOM     35  C   LIG A   1      -5.863   3.000 125.926  0.00  0.00    +0.181 A 
ATOM     36  O   LIG A   1      -6.097   3.371 124.616  0.00  0.00    -0.451 OA
ATOM     37  O   LIG A   1      -7.480  -0.088 125.939  0.00  0.00    -0.283 OA
ATOM     38  C   LIG A   1      -7.196   2.846 123.985  0.00  0.00    +0.146 A 
ATOM     39  C   LIG A   1      -7.574   3.394 122.758  0.00  0.00    +0.092 A 
BRANCH  35  40
ATOM     40  C   LIG A   1      -4.805   3.775 126.582  0.00  0.00    +0.025 A 
ATOM     41  C   LIG A   1      -5.110   4.934 127.308  0.00  0.00    +0.060 A 
ATOM     42  C   LIG A   1      -4.088   5.605 127.970  0.00  0.00    +0.159 A 
ATOM     43  C   LIG A   1      -2.776   5.137 127.909  0.00  0.00    +0.158 A 
ATOM     44  C   LIG A   1      -2.459   3.999 127.185  0.00  0.00    +0.050 A 
ATOM     45  C   LIG A   1      -3.477   3.315 126.520  0.00  0.00    +0.015 A 
BRANCH  43  46
ATOM     46  O   LIG A   1      -1.784   5.796 128.577  0.00  0.00    -0.503 OA
ATOM     47  H   LIG A   1      -1.616   6.594 128.038  0.00  0.00    +0.292 HD
ENDBRANCH  43  46
BRANCH  42  48
ATOM     48  O   LIG A   1      -4.325   6.730 128.713  0.00  0.00    -0.503 OA
ATOM     49  H   LIG A   1      -3.885   6.620 129.572  0.00  0.00    +0.292 HD
ENDBRANCH  42  48
ENDBRANCH  35  40
BRANCH  29  50
ATOM     50  O   LIG A   1      -9.018   3.416 120.884  0.00  0.00    -0.506 OA
ATOM     51  H   LIG A   1      -9.411   2.716 120.336  0.00  0.00    +0.292 HD
ENDBRANCH  29  50
BRANCH  31  52
ATOM     52  O   LIG A   1      -9.792   0.285 124.382  0.00  0.00    -0.506 OA
ATOM     53  H   LIG A   1      -9.335  -0.053 125.172  0.00  0.00    +0.292 HD
ENDBRANCH  31  52
ENDBRANCH  28  34
ENDBRANCH   1  28
TORSDOF 16
ENDMDL
MODEL 5
REMARK VINA RESULT:      -8.8      2.918      7.331
REMARK  Name = NuBBE_46
REMARK  17 active torsions:
REMARK  status: ('A' for Active; 'I' for Inactive)
REMARK    1  A    between atoms: O_1  and  C_2
REMARK    2  A    between atoms: C_4  and  O_5
REMARK    3  A    between atoms: C_8  and  O_9
REMARK    4  A    between atoms: O_9  and  C_10
REMARK    5  A    between atoms: C_13  and  C_15
REMARK    6  A    between atoms: C_15  and  O_16
REMARK    7  A    between atoms: O_16  and  C_17
REMARK    8  A    between atoms: C_19  and  O_21
REMARK    9  A    between atoms: C_22  and  O_24
REMARK   10  A    between atoms: C_25  and  O_27
REMARK   11  A    between atoms: C_28  and  C_30
REMARK   12  A    between atoms: C_32  and  O_34
REMARK   13  A    between atoms: C_35  and  O_37
REMARK   14  A    between atoms: C_38  and  O_40
REMARK   15  A    between atoms: C_41  and  C_42
REMARK   16  A    between atoms: C_44  and  O_45
REMARK   17  A    between atoms: C_46  and  O_47
REMARK                            x       y       z     vdW  Elec       q    Type
REMARK                         _______ _______ _______ _____ _____    ______ ____
ROOT
ATOM      1  C   LIG A   1      -7.587   2.865 127.534  0.00  0.00    +0.340 C 
ATOM      2  O   LIG A   1      -6.811   2.230 126.504  0.00  0.00    -0.331 OA
ATOM      3  C   LIG A   1      -7.511   2.248 125.246  0.00  0.00    +0.179 C 
ATOM      4  C   LIG A   1      -7.505   3.692 124.729  0.00  0.00    +0.177 C 
ATOM      5  C   LIG A   1      -8.293   4.553 125.715  0.00  0.00    +0.180 C 
ATOM      6  C   LIG A   1      -7.820   4.364 127.167  0.00  0.00    +0.214 C 
ENDROOT
BRANCH   6   7
ATOM      7  O   LIG A   1      -8.789   4.973 128.034  0.00  0.00    -0.383 OA
ATOM      8  H   LIG A   1      -8.529   4.754 128.948  0.00  0.00    +0.210 HD
ENDBRANCH   6   7
BRANCH   5   9
ATOM      9  O   LIG A   1      -8.193   5.940 125.330  0.00  0.00    -0.386 OA
ATOM     10  H   LIG A   1      -8.092   5.987 124.362  0.00  0.00    +0.210 HD
ENDBRANCH   5   9
BRANCH   4  11
ATOM     11  O   LIG A   1      -8.078   3.804 123.425  0.00  0.00    -0.387 OA
ATOM     12  H   LIG A   1      -9.016   4.054 123.544  0.00  0.00    +0.210 HD
ENDBRANCH   4  11
BRANCH   3  13
ATOM     13  C   LIG A   1      -6.828   1.311 124.251  0.00  0.00    +0.197 C 
BRANCH  13  14
ATOM     14  O   LIG A   1      -7.754   0.340 123.734  0.00  0.00    -0.346 OA
BRANCH  14  15
ATOM     15  C   LIG A   1      -7.064  -0.818 123.280  0.00  0.00    +0.282 C 
ATOM     16  C   LIG A   1      -6.001  -1.332 124.266  0.00  0.00    +0.201 C 
ATOM     17  C   LIG A   1      -6.651  -1.783 125.573  0.00  0.00    +0.179 C 
ATOM     18  C   LIG A   1      -7.825  -2.746 125.335  0.00  0.00    +0.174 C 
ATOM     19  C   LIG A   1      -8.705  -2.334 124.143  0.00  0.00    +0.149 C 
ATOM     20  C   LIG A   1      -9.549  -3.513 123.660  0.00  0.00    +0.040 C 
ATOM     21  O   LIG A   1      -7.942  -1.916 123.000  0.00  0.00    -0.343 OA
BRANCH  18  22
ATOM     22  O   LIG A   1      -8.624  -2.822 126.525  0.00  0.00    -0.387 OA
ATOM     23  H   LIG A   1      -9.468  -2.376 126.316  0.00  0.00    +0.210 HD
ENDBRANCH  18  22
BRANCH  17  24
ATOM     24  O   LIG A   1      -5.669  -2.473 126.382  0.00  0.00    -0.386 OA
ATOM     25  H   LIG A   1      -4.868  -1.905 126.348  0.00  0.00    +0.210 HD
ENDBRANCH  17  24
BRANCH  16  26
ATOM     26  O   LIG A   1      -5.323  -2.483 123.700  0.00  0.00    -0.384 OA
ATOM     27  H   LIG A   1      -4.941  -2.184 122.848  0.00  0.00    +0.210 HD
ENDBRANCH  16  26
ENDBRANCH  14  15
ENDBRANCH  13  14
ENDBRANCH   3  13
BRANCH   1  28
ATOM     28  O   LIG A   1      -6.896   2.838 128.800  0.00  0.00    -0.453 OA
BRANCH  28  34
ATOM     29  C   LIG A   1      -4.872  -3.186 129.836  0.00  0.00    +0.124 A 
ATOM     30  C   LIG A   1      -6.254  -3.251 129.688  0.00  0.00    +0.091 A 
ATOM     31  C   LIG A   1      -6.982  -2.066 129.600  0.00  0.00    +0.135 A 
ATOM     32  C   LIG A   1      -6.337  -0.828 129.616  0.00  0.00    +0.109 A 
ATOM     33  C   LIG A   1      -7.047   0.462 129.649  0.00  0.00    +0.238 A 
ATOM     34  C   LIG A   1      -6.286   1.649 129.171  0.00  0.00    +0.214 A 
ATOM     35  C   LIG A   1      -4.944   1.540 129.264  0.00  0.00    +0.181 A 
ATOM     36  O   LIG A   1      -4.254   0.404 129.641  0.00  0.00    -0.451 OA
ATOM     37  O   LIG A   1      -8.168   0.574 130.174  0.00  0.00    -0.283 OA
ATOM     38  C   LIG A   1      -4.940  -0.783 129.677  0.00  0.00    +0.146 A 
ATOM     39  C   LIG A   1      -4.206  -1.963 129.818  0.00  0.00    +0.092 A 
BRANCH  35  40
ATOM     40  C   LIG A   1      -4.087   2.709 129.042  0.00  0.00    +0.025 A 
ATOM     41  C   LIG A   1      -3.315   2.821 127.878  0.00  0.00    +0.060 A 
ATOM     42  C   LIG A   1      -2.565   3.974 127.673  0.00  0.00    +0.159 A 
ATOM     43  C   LIG A   1      -2.573   5.003 128.615  0.00  0.00    +0.158 A 
ATOM     44  C   LIG A   1      -3.322   4.898 129.776  0.00  0.00    +0.050 A 
ATOM     45  C   LIG A   1      -4.082   3.748 129.990  0.00  0.00    +0.015 A 
BRANCH  43  46
ATOM     46  O   LIG A   1      -1.845   6.136 128.394  0.00  0.00    -0.503 OA
ATOM     47  H   LIG A   1      -1.234   6.185 129.155  0.00  0.00    +0.292 HD
ENDBRANCH  43  46
BRANCH  42  48
ATOM     48  O   LIG A   1      -1.808   4.153 126.547  0.00  0.00    -0.503 OA
ATOM     49  H   LIG A   1      -2.209   4.871 126.028  0.00  0.00    +0.292 HD
ENDBRANCH  42  48
ENDBRANCH  35  40
BRANCH  29  50
ATOM     50  O   LIG A   1      -4.137  -4.318 130.024  0.00  0.00    -0.506 OA
ATOM     51  H   LIG A   1      -3.614  -4.223 130.839  0.00  0.00    +0.292 HD
ENDBRANCH  29  50
BRANCH  31  52
ATOM     52  O   LIG A   1      -8.339  -2.150 129.493  0.00  0.00    -0.506 OA
ATOM     53  H   LIG A   1      -8.682  -1.263 129.286  0.00  0.00    +0.292 HD
ENDBRANCH  31  52
ENDBRANCH  28  34
ENDBRANCH   1  28
TORSDOF 16
ENDMDL
MODEL 6
REMARK VINA RESULT:      -8.7      2.582      8.470
REMARK  Name = NuBBE_46
REMARK  17 active torsions:
REMARK  status: ('A' for Active; 'I' for Inactive)
REMARK    1  A    between atoms: O_1  and  C_2
REMARK    2  A    between atoms: C_4  and  O_5
REMARK    3  A    between atoms: C_8  and  O_9
REMARK    4  A    between atoms: O_9  and  C_10
REMARK    5  A    between atoms: C_13  and  C_15
REMARK    6  A    between atoms: C_15  and  O_16
REMARK    7  A    between atoms: O_16  and  C_17
REMARK    8  A    between atoms: C_19  and  O_21
REMARK    9  A    between atoms: C_22  and  O_24
REMARK   10  A    between atoms: C_25  and  O_27
REMARK   11  A    between atoms: C_28  and  C_30
REMARK   12  A    between atoms: C_32  and  O_34
REMARK   13  A    between atoms: C_35  and  O_37
REMARK   14  A    between atoms: C_38  and  O_40
REMARK   15  A    between atoms: C_41  and  C_42
REMARK   16  A    between atoms: C_44  and  O_45
REMARK   17  A    between atoms: C_46  and  O_47
REMARK                            x       y       z     vdW  Elec       q    Type
REMARK                         _______ _______ _______ _____ _____    ______ ____
ROOT
ATOM      1  C   LIG A   1      -5.632   5.028 129.592  0.00  0.00    +0.340 C 
ATOM      2  O   LIG A   1      -5.513   3.667 129.145  0.00  0.00    -0.331 OA
ATOM      3  C   LIG A   1      -5.174   3.612 127.747  0.00  0.00    +0.179 C 
ATOM      4  C   LIG A   1      -3.716   4.066 127.601  0.00  0.00    +0.177 C 
ATOM      5  C   LIG A   1      -3.627   5.524 128.047  0.00  0.00    +0.180 C 
ATOM      6  C   LIG A   1      -4.261   5.756 129.429  0.00  0.00    +0.214 C 
ENDROOT
BRANCH   6   7
ATOM      7  O   LIG A   1      -4.391   7.173 129.629  0.00  0.00    -0.383 OA
ATOM      8  H   LIG A   1      -4.765   7.300 130.521  0.00  0.00    +0.210 HD
ENDBRANCH   6   7
BRANCH   5   9
ATOM      9  O   LIG A   1      -2.245   5.943 128.051  0.00  0.00    -0.386 OA
ATOM     10  H   LIG A   1      -2.124   6.605 128.756  0.00  0.00    +0.210 HD
ENDBRANCH   5   9
BRANCH   4  11
ATOM     11  O   LIG A   1      -3.239   3.940 126.260  0.00  0.00    -0.387 OA
ATOM     12  H   LIG A   1      -2.268   4.050 126.289  0.00  0.00    +0.210 HD
ENDBRANCH   4  11
BRANCH   3  13
ATOM     13  C   LIG A   1      -5.356   2.190 127.218  0.00  0.00    +0.197 C 
BRANCH  13  14
ATOM     14  O   LIG A   1      -6.106   2.186 125.991  0.00  0.00    -0.346 OA
BRANCH  14  15
ATOM     15  C   LIG A   1      -7.299   2.950 126.130  0.00  0.00    +0.282 C 
ATOM     16  C   LIG A   1      -7.636   3.801 124.895  0.00  0.00    +0.201 C 
ATOM     17  C   LIG A   1      -7.912   2.910 123.684  0.00  0.00    +0.179 C 
ATOM     18  C   LIG A   1      -8.930   1.803 123.999  0.00  0.00    +0.174 C 
ATOM     19  C   LIG A   1      -8.719   1.171 125.386  0.00  0.00    +0.149 C 
ATOM     20  C   LIG A   1      -9.978   0.436 125.843  0.00  0.00    +0.040 C 
ATOM     21  O   LIG A   1      -8.449   2.141 126.409  0.00  0.00    -0.343 OA
BRANCH  18  22
ATOM     22  O   LIG A   1      -8.856   0.790 122.987  0.00  0.00    -0.387 OA
ATOM     23  H   LIG A   1      -9.223  -0.023 123.387  0.00  0.00    +0.210 HD
ENDBRANCH  18  22
BRANCH  17  24
ATOM     24  O   LIG A   1      -8.450   3.717 122.611  0.00  0.00    -0.386 OA
ATOM     25  H   LIG A   1      -8.806   4.520 123.050  0.00  0.00    +0.210 HD
ENDBRANCH  17  24
BRANCH  16  26
ATOM     26  O   LIG A   1      -8.837   4.575 125.146  0.00  0.00    -0.384 OA
ATOM     27  H   LIG A   1      -8.537   5.484 125.359  0.00  0.00    +0.210 HD
ENDBRANCH  16  26
ENDBRANCH  14  15
ENDBRANCH  13  14
ENDBRANCH   3  13
BRANCH   1  28
ATOM     28  O   LIG A   1      -5.985   5.090 130.989  0.00  0.00    -0.453 OA
BRANCH  28  34
ATOM     29  C   LIG A   1     -12.137   6.963 131.301  0.00  0.00    +0.124 A 
ATOM     30  C   LIG A   1     -11.571   7.636 130.222  0.00  0.00    +0.091 A 
ATOM     31  C   LIG A   1     -10.198   7.536 130.007  0.00  0.00    +0.135 A 
ATOM     32  C   LIG A   1      -9.402   6.740 130.832  0.00  0.00    +0.109 A 
ATOM     33  C   LIG A   1      -7.932   6.681 130.739  0.00  0.00    +0.238 A 
ATOM     34  C   LIG A   1      -7.281   5.469 131.306  0.00  0.00    +0.214 A 
ATOM     35  C   LIG A   1      -7.987   4.841 132.269  0.00  0.00    +0.181 A 
ATOM     36  O   LIG A   1      -9.273   5.160 132.662  0.00  0.00    -0.451 OA
ATOM     37  O   LIG A   1      -7.268   7.650 130.335  0.00  0.00    -0.283 OA
ATOM     38  C   LIG A   1     -10.001   6.000 131.857  0.00  0.00    +0.146 A 
ATOM     39  C   LIG A   1     -11.367   6.136 132.113  0.00  0.00    +0.092 A 
BRANCH  35  40
ATOM     40  C   LIG A   1      -7.372   3.774 133.065  0.00  0.00    +0.025 A 
ATOM     41  C   LIG A   1      -7.623   2.427 132.774  0.00  0.00    +0.060 A 
ATOM     42  C   LIG A   1      -6.970   1.444 133.510  0.00  0.00    +0.159 A 
ATOM     43  C   LIG A   1      -6.084   1.791 134.529  0.00  0.00    +0.158 A 
ATOM     44  C   LIG A   1      -5.837   3.120 134.835  0.00  0.00    +0.050 A 
ATOM     45  C   LIG A   1      -6.483   4.115 134.101  0.00  0.00    +0.015 A 
BRANCH  43  46
ATOM     46  O   LIG A   1      -5.437   0.816 135.233  0.00  0.00    -0.503 OA
ATOM     47  H   LIG A   1      -4.492   0.949 135.022  0.00  0.00    +0.292 HD
ENDBRANCH  43  46
BRANCH  42  48
ATOM     48  O   LIG A   1      -7.156   0.111 133.259  0.00  0.00    -0.503 OA
ATOM     49  H   LIG A   1      -8.088  -0.021 133.016  0.00  0.00    +0.292 HD
ENDBRANCH  42  48
ENDBRANCH  35  40
BRANCH  29  50
ATOM     50  O   LIG A   1     -13.458   7.116 131.602  0.00  0.00    -0.506 OA
ATOM     51  H   LIG A   1     -13.902   6.255 131.519  0.00  0.00    +0.292 HD
ENDBRANCH  29  50
BRANCH  31  52
ATOM     52  O   LIG A   1      -9.656   8.233 128.967  0.00  0.00    -0.506 OA
ATOM     53  H   LIG A   1      -8.770   7.872 128.790  0.00  0.00    +0.292 HD
ENDBRANCH  31  52
ENDBRANCH  28  34
ENDBRANCH   1  28
TORSDOF 16
ENDMDL
MODEL 7
REMARK VINA RESULT:      -8.7      2.259      3.128
REMARK  Name = NuBBE_46
REMARK  17 active torsions:
REMARK  status: ('A' for Active; 'I' for Inactive)
REMARK    1  A    between atoms: O_1  and  C_2
REMARK    2  A    between atoms: C_4  and  O_5
REMARK    3  A    between atoms: C_8  and  O_9
REMARK    4  A    between atoms: O_9  and  C_10
REMARK    5  A    between atoms: C_13  and  C_15
REMARK    6  A    between atoms: C_15  and  O_16
REMARK    7  A    between atoms: O_16  and  C_17
REMARK    8  A    between atoms: C_19  and  O_21
REMARK    9  A    between atoms: C_22  and  O_24
REMARK   10  A    between atoms: C_25  and  O_27
REMARK   11  A    between atoms: C_28  and  C_30
REMARK   12  A    between atoms: C_32  and  O_34
REMARK   13  A    between atoms: C_35  and  O_37
REMARK   14  A    between atoms: C_38  and  O_40
REMARK   15  A    between atoms: C_41  and  C_42
REMARK   16  A    between atoms: C_44  and  O_45
REMARK   17  A    between atoms: C_46  and  O_47
REMARK                            x       y       z     vdW  Elec       q    Type
REMARK                         _______ _______ _______ _____ _____    ______ ____
ROOT
ATOM      1  C   LIG A   1      -7.164   3.344 131.612  0.00  0.00    +0.340 C 
ATOM      2  O   LIG A   1      -6.899   4.730 131.335  0.00  0.00    -0.331 OA
ATOM      3  C   LIG A   1      -8.107   5.510 131.410  0.00  0.00    +0.179 C 
ATOM      4  C   LIG A   1      -8.509   5.608 132.887  0.00  0.00    +0.177 C 
ATOM      5  C   LIG A   1      -8.830   4.201 133.386  0.00  0.00    +0.180 C 
ATOM      6  C   LIG A   1      -7.711   3.195 133.067  0.00  0.00    +0.214 C 
ENDROOT
BRANCH   6   7
ATOM      7  O   LIG A   1      -8.218   1.872 133.305  0.00  0.00    -0.383 OA
ATOM      8  H   LIG A   1      -9.172   1.964 133.488  0.00  0.00    +0.210 HD
ENDBRANCH   6   7
BRANCH   5   9
ATOM      9  O   LIG A   1      -9.082   4.239 134.807  0.00  0.00    -0.386 OA
ATOM     10  H   LIG A   1      -9.193   3.325 135.127  0.00  0.00    +0.210 HD
ENDBRANCH   5   9
BRANCH   4  11
ATOM     11  O   LIG A   1      -9.638   6.461 133.087  0.00  0.00    -0.387 OA
ATOM     12  H   LIG A   1      -9.695   6.643 134.046  0.00  0.00    +0.210 HD
ENDBRANCH   4  11
BRANCH   3  13
ATOM     13  C   LIG A   1      -7.873   6.898 130.817  0.00  0.00    +0.197 C 
BRANCH  13  14
ATOM     14  O   LIG A   1      -9.079   7.424 130.237  0.00  0.00    -0.346 OA
BRANCH  14  15
ATOM     15  C   LIG A   1      -9.834   6.385 129.624  0.00  0.00    +0.282 C 
ATOM     16  C   LIG A   1     -11.247   6.220 130.208  0.00  0.00    +0.201 C 
ATOM     17  C   LIG A   1     -12.084   7.474 129.961  0.00  0.00    +0.179 C 
ATOM     18  C   LIG A   1     -12.045   7.916 128.490  0.00  0.00    +0.174 C 
ATOM     19  C   LIG A   1     -10.646   7.791 127.863  0.00  0.00    +0.149 C 
ATOM     20  C   LIG A   1     -10.734   7.789 126.338  0.00  0.00    +0.040 C 
ATOM     21  O   LIG A   1      -9.983   6.565 128.210  0.00  0.00    -0.343 OA
BRANCH  18  22
ATOM     22  O   LIG A   1     -12.501   9.273 128.391  0.00  0.00    -0.387 OA
ATOM     23  H   LIG A   1     -13.369   9.237 127.941  0.00  0.00    +0.210 HD
ENDBRANCH  18  22
BRANCH  17  24
ATOM     24  O   LIG A   1     -13.462   7.205 130.307  0.00  0.00    -0.386 OA
ATOM     25  H   LIG A   1     -13.437   6.366 130.818  0.00  0.00    +0.210 HD
ENDBRANCH  17  24
BRANCH  16  26
ATOM     26  O   LIG A   1     -11.922   5.113 129.555  0.00  0.00    -0.384 OA
ATOM     27  H   LIG A   1     -12.720   5.493 129.130  0.00  0.00    +0.210 HD
ENDBRANCH  16  26
ENDBRANCH  14  15
ENDBRANCH  13  14
ENDBRANCH   3  13
BRANCH   1  28
ATOM     28  O   LIG A   1      -5.959   2.555 131.526  0.00  0.00    -0.453 OA
BRANCH  28  34
ATOM     29  C   LIG A   1      -6.588  -1.813 126.838  0.00  0.00    +0.124 A 
ATOM     30  C   LIG A   1      -7.402  -2.234 127.885  0.00  0.00    +0.091 A 
ATOM     31  C   LIG A   1      -7.349  -1.553 129.100  0.00  0.00    +0.135 A 
ATOM     32  C   LIG A   1      -6.526  -0.438 129.258  0.00  0.00    +0.109 A 
ATOM     33  C   LIG A   1      -6.328   0.256 130.543  0.00  0.00    +0.238 A 
ATOM     34  C   LIG A   1      -5.852   1.665 130.469  0.00  0.00    +0.214 A 
ATOM     35  C   LIG A   1      -5.170   1.977 129.347  0.00  0.00    +0.181 A 
ATOM     36  O   LIG A   1      -4.998   1.149 128.254  0.00  0.00    -0.451 OA
ATOM     37  O   LIG A   1      -6.421  -0.344 131.626  0.00  0.00    -0.283 OA
ATOM     38  C   LIG A   1      -5.781   0.026 128.168  0.00  0.00    +0.146 A 
ATOM     39  C   LIG A   1      -5.787  -0.681 126.964  0.00  0.00    +0.092 A 
BRANCH  35  40
ATOM     40  C   LIG A   1      -4.456   3.253 129.242  0.00  0.00    +0.025 A 
ATOM     41  C   LIG A   1      -4.780   4.175 128.238  0.00  0.00    +0.060 A 
ATOM     42  C   LIG A   1      -4.125   5.403 128.212  0.00  0.00    +0.159 A 
ATOM     43  C   LIG A   1      -3.155   5.710 129.165  0.00  0.00    +0.158 A 
ATOM     44  C   LIG A   1      -2.817   4.802 130.155  0.00  0.00    +0.050 A 
ATOM     45  C   LIG A   1      -3.470   3.569 130.194  0.00  0.00    +0.015 A 
BRANCH  43  46
ATOM     46  O   LIG A   1      -2.532   6.924 129.137  0.00  0.00    -0.503 OA
ATOM     47  H   LIG A   1      -3.252   7.565 128.972  0.00  0.00    +0.292 HD
ENDBRANCH  43  46
BRANCH  42  48
ATOM     48  O   LIG A   1      -4.412   6.354 127.270  0.00  0.00    -0.503 OA
ATOM     49  H   LIG A   1      -3.611   6.499 126.737  0.00  0.00    +0.292 HD
ENDBRANCH  42  48
ENDBRANCH  35  40
BRANCH  29  50
ATOM     50  O   LIG A   1      -6.539  -2.512 125.669  0.00  0.00    -0.506 OA
ATOM     51  H   LIG A   1      -7.444  -2.626 125.331  0.00  0.00    +0.292 HD
ENDBRANCH  29  50
BRANCH  31  52
ATOM     52  O   LIG A   1      -8.126  -2.005 130.126  0.00  0.00    -0.506 OA
ATOM     53  H   LIG A   1      -8.944  -2.372 129.747  0.00  0.00    +0.292 HD
ENDBRANCH  31  52
ENDBRANCH  28  34
ENDBRANCH   1  28
TORSDOF 16
ENDMDL
MODEL 8
REMARK VINA RESULT:      -8.6      2.559      4.060
REMARK  Name = NuBBE_46
REMARK  17 active torsions:
REMARK  status: ('A' for Active; 'I' for Inactive)
REMARK    1  A    between atoms: O_1  and  C_2
REMARK    2  A    between atoms: C_4  and  O_5
REMARK    3  A    between atoms: C_8  and  O_9
REMARK    4  A    between atoms: O_9  and  C_10
REMARK    5  A    between atoms: C_13  and  C_15
REMARK    6  A    between atoms: C_15  and  O_16
REMARK    7  A    between atoms: O_16  and  C_17
REMARK    8  A    between atoms: C_19  and  O_21
REMARK    9  A    between atoms: C_22  and  O_24
REMARK   10  A    between atoms: C_25  and  O_27
REMARK   11  A    between atoms: C_28  and  C_30
REMARK   12  A    between atoms: C_32  and  O_34
REMARK   13  A    between atoms: C_35  and  O_37
REMARK   14  A    between atoms: C_38  and  O_40
REMARK   15  A    between atoms: C_41  and  C_42
REMARK   16  A    between atoms: C_44  and  O_45
REMARK   17  A    between atoms: C_46  and  O_47
REMARK                            x       y       z     vdW  Elec       q    Type
REMARK                         _______ _______ _______ _____ _____    ______ ____
ROOT
ATOM      1  C   LIG A   1      -7.374   0.777 128.164  0.00  0.00    +0.340 C 
ATOM      2  O   LIG A   1      -7.714   1.838 129.072  0.00  0.00    -0.331 OA
ATOM      3  C   LIG A   1      -8.821   1.460 129.912  0.00  0.00    +0.179 C 
ATOM      4  C   LIG A   1      -8.314   0.411 130.910  0.00  0.00    +0.177 C 
ATOM      5  C   LIG A   1      -7.884  -0.825 130.121  0.00  0.00    +0.180 C 
ATOM      6  C   LIG A   1      -6.922  -0.480 128.970  0.00  0.00    +0.214 C 
ENDROOT
BRANCH   6   7
ATOM      7  O   LIG A   1      -6.809  -1.636 128.123  0.00  0.00    -0.383 OA
ATOM      8  H   LIG A   1      -6.010  -1.510 127.578  0.00  0.00    +0.210 HD
ENDBRANCH   6   7
BRANCH   5   9
ATOM      9  O   LIG A   1      -7.276  -1.780 131.016  0.00  0.00    -0.386 OA
ATOM     10  H   LIG A   1      -7.889  -1.947 131.754  0.00  0.00    +0.210 HD
ENDBRANCH   5   9
BRANCH   4  11
ATOM     11  O   LIG A   1      -9.309   0.049 131.870  0.00  0.00    -0.387 OA
ATOM     12  H   LIG A   1      -9.930  -0.561 131.424  0.00  0.00    +0.210 HD
ENDBRANCH   4  11
BRANCH   3  13
ATOM     13  C   LIG A   1      -9.367   2.686 130.644  0.00  0.00    +0.197 C 
BRANCH  13  14
ATOM     14  O   LIG A   1      -9.833   3.679 129.714  0.00  0.00    -0.346 OA
BRANCH  14  15
ATOM     15  C   LIG A   1     -10.810   4.516 130.322  0.00  0.00    +0.282 C 
ATOM     16  C   LIG A   1     -10.421   4.999 131.730  0.00  0.00    +0.201 C 
ATOM     17  C   LIG A   1      -9.172   5.877 131.674  0.00  0.00    +0.179 C 
ATOM     18  C   LIG A   1      -9.294   6.992 130.623  0.00  0.00    +0.174 C 
ATOM     19  C   LIG A   1      -9.958   6.517 129.319  0.00  0.00    +0.149 C 
ATOM     20  C   LIG A   1     -10.470   7.706 128.508  0.00  0.00    +0.040 C 
ATOM     21  O   LIG A   1     -11.105   5.683 129.545  0.00  0.00    -0.343 OA
BRANCH  18  22
ATOM     22  O   LIG A   1      -7.990   7.520 130.340  0.00  0.00    -0.387 OA
ATOM     23  H   LIG A   1      -7.358   6.970 130.842  0.00  0.00    +0.210 HD
ENDBRANCH  18  22
BRANCH  17  24
ATOM     24  O   LIG A   1      -8.970   6.502 132.962  0.00  0.00    -0.386 OA
ATOM     25  H   LIG A   1      -8.522   5.819 133.509  0.00  0.00    +0.210 HD
ENDBRANCH  17  24
BRANCH  16  26
ATOM     26  O   LIG A   1     -11.493   5.805 132.285  0.00  0.00    -0.384 OA
ATOM     27  H   LIG A   1     -11.184   6.735 132.244  0.00  0.00    +0.210 HD
ENDBRANCH  16  26
ENDBRANCH  14  15
ENDBRANCH  13  14
ENDBRANCH   3  13
BRANCH   1  28
ATOM     28  O   LIG A   1      -6.273   1.154 127.310  0.00  0.00    -0.453 OA
BRANCH  28  34
ATOM     29  C   LIG A   1      -8.795   2.981 121.675  0.00  0.00    +0.124 A 
ATOM     30  C   LIG A   1      -9.561   1.910 122.124  0.00  0.00    +0.091 A 
ATOM     31  C   LIG A   1      -9.150   1.212 123.258  0.00  0.00    +0.135 A 
ATOM     32  C   LIG A   1      -8.011   1.602 123.963  0.00  0.00    +0.109 A 
ATOM     33  C   LIG A   1      -7.450   0.844 125.095  0.00  0.00    +0.238 A 
ATOM     34  C   LIG A   1      -6.578   1.602 126.034  0.00  0.00    +0.214 A 
ATOM     35  C   LIG A   1      -5.980   2.689 125.503  0.00  0.00    +0.181 A 
ATOM     36  O   LIG A   1      -6.208   3.196 124.238  0.00  0.00    -0.451 OA
ATOM     37  O   LIG A   1      -7.587  -0.388 125.182  0.00  0.00    -0.283 OA
ATOM     38  C   LIG A   1      -7.303   2.736 123.549  0.00  0.00    +0.146 A 
ATOM     39  C   LIG A   1      -7.677   3.409 122.384  0.00  0.00    +0.092 A 
BRANCH  35  40
ATOM     40  C   LIG A   1      -4.927   3.393 126.242  0.00  0.00    +0.025 A 
ATOM     41  C   LIG A   1      -3.595   2.966 126.174  0.00  0.00    +0.060 A 
ATOM     42  C   LIG A   1      -2.616   3.699 126.837  0.00  0.00    +0.159 A 
ATOM     43  C   LIG A   1      -2.954   4.839 127.565  0.00  0.00    +0.158 A 
ATOM     44  C   LIG A   1      -4.270   5.265 127.650  0.00  0.00    +0.050 A 
ATOM     45  C   LIG A   1      -5.260   4.540 126.986  0.00  0.00    +0.015 A 
BRANCH  43  46
ATOM     46  O   LIG A   1      -1.981   5.558 128.198  0.00  0.00    -0.503 OA
ATOM     47  H   LIG A   1      -1.521   4.904 128.760  0.00  0.00    +0.292 HD
ENDBRANCH  43  46
BRANCH  42  48
ATOM     48  O   LIG A   1      -1.294   3.345 126.791  0.00  0.00    -0.503 OA
ATOM     49  H   LIG A   1      -0.828   4.000 126.245  0.00  0.00    +0.292 HD
ENDBRANCH  42  48
ENDBRANCH  35  40
BRANCH  29  50
ATOM     50  O   LIG A   1      -9.111   3.625 120.515  0.00  0.00    -0.506 OA
ATOM     51  H   LIG A   1      -9.039   4.584 120.658  0.00  0.00    +0.292 HD
ENDBRANCH  29  50
BRANCH  31  52
ATOM     52  O   LIG A   1      -9.893   0.141 123.661  0.00  0.00    -0.506 OA
ATOM     53  H   LIG A   1      -9.351  -0.661 123.554  0.00  0.00    +0.292 HD
ENDBRANCH  31  52
ENDBRANCH  28  34
ENDBRANCH   1  28
TORSDOF 16
ENDMDL
MODEL 9
REMARK VINA RESULT:      -8.5      1.984      4.475
REMARK  Name = NuBBE_46
REMARK  17 active torsions:
REMARK  status: ('A' for Active; 'I' for Inactive)
REMARK    1  A    between atoms: O_1  and  C_2
REMARK    2  A    between atoms: C_4  and  O_5
REMARK    3  A    between atoms: C_8  and  O_9
REMARK    4  A    between atoms: O_9  and  C_10
REMARK    5  A    between atoms: C_13  and  C_15
REMARK    6  A    between atoms: C_15  and  O_16
REMARK    7  A    between atoms: O_16  and  C_17
REMARK    8  A    between atoms: C_19  and  O_21
REMARK    9  A    between atoms: C_22  and  O_24
REMARK   10  A    between atoms: C_25  and  O_27
REMARK   11  A    between atoms: C_28  and  C_30
REMARK   12  A    between atoms: C_32  and  O_34
REMARK   13  A    between atoms: C_35  and  O_37
REMARK   14  A    between atoms: C_38  and  O_40
REMARK   15  A    between atoms: C_41  and  C_42
REMARK   16  A    between atoms: C_44  and  O_45
REMARK   17  A    between atoms: C_46  and  O_47
REMARK                            x       y       z     vdW  Elec       q    Type
REMARK                         _______ _______ _______ _____ _____    ______ ____
ROOT
ATOM      1  C   LIG A   1      -7.496   1.873 130.033  0.00  0.00    +0.340 C 
ATOM      2  O   LIG A   1      -6.933   3.194 129.970  0.00  0.00    -0.331 OA
ATOM      3  C   LIG A   1      -7.594   4.081 130.892  0.00  0.00    +0.179 C 
ATOM      4  C   LIG A   1      -7.170   3.681 132.311  0.00  0.00    +0.177 C 
ATOM      5  C   LIG A   1      -7.678   2.265 132.577  0.00  0.00    +0.180 C 
ATOM      6  C   LIG A   1      -7.285   1.281 131.462  0.00  0.00    +0.214 C 
ENDROOT
BRANCH   6   7
ATOM      7  O   LIG A   1      -8.040   0.073 131.647  0.00  0.00    -0.383 OA
ATOM      8  H   LIG A   1      -7.474  -0.541 132.151  0.00  0.00    +0.210 HD
ENDBRANCH   6   7
BRANCH   5   9
ATOM      9  O   LIG A   1      -7.181   1.806 133.851  0.00  0.00    -0.386 OA
ATOM     10  H   LIG A   1      -7.881   1.289 134.290  0.00  0.00    +0.210 HD
ENDBRANCH   5   9
BRANCH   4  11
ATOM     11  O   LIG A   1      -7.682   4.573 133.303  0.00  0.00    -0.387 OA
ATOM     12  H   LIG A   1      -7.807   5.441 132.871  0.00  0.00    +0.210 HD
ENDBRANCH   4  11
BRANCH   3  13
ATOM     13  C   LIG A   1      -7.207   5.529 130.597  0.00  0.00    +0.197 C 
BRANCH  13  14
ATOM     14  O   LIG A   1      -8.358   6.308 130.230  0.00  0.00    -0.346 OA
BRANCH  14  15
ATOM     15  C   LIG A   1      -9.371   5.476 129.676  0.00  0.00    +0.282 C 
ATOM     16  C   LIG A   1     -10.622   5.349 130.561  0.00  0.00    +0.201 C 
ATOM     17  C   LIG A   1     -11.310   6.704 130.721  0.00  0.00    +0.179 C 
ATOM     18  C   LIG A   1     -11.547   7.397 129.369  0.00  0.00    +0.174 C 
ATOM     19  C   LIG A   1     -10.359   7.247 128.403  0.00  0.00    +0.149 C 
ATOM     20  C   LIG A   1     -10.793   7.528 126.965  0.00  0.00    +0.040 C 
ATOM     21  O   LIG A   1      -9.813   5.920 128.386  0.00  0.00    -0.343 OA
BRANCH  18  22
ATOM     22  O   LIG A   1     -11.820   8.788 129.591  0.00  0.00    -0.387 OA
ATOM     23  H   LIG A   1     -11.965   9.182 128.709  0.00  0.00    +0.210 HD
ENDBRANCH  18  22
BRANCH  17  24
ATOM     24  O   LIG A   1     -12.596   6.515 131.354  0.00  0.00    -0.386 OA
ATOM     25  H   LIG A   1     -13.021   5.784 130.855  0.00  0.00    +0.210 HD
ENDBRANCH  17  24
BRANCH  16  26
ATOM     26  O   LIG A   1     -11.575   4.450 129.938  0.00  0.00    -0.384 OA
ATOM     27  H   LIG A   1     -11.978   3.932 130.667  0.00  0.00    +0.210 HD
ENDBRANCH  16  26
ENDBRANCH  14  15
ENDBRANCH  13  14
ENDBRANCH   3  13
BRANCH   1  28
ATOM     28  O   LIG A   1      -6.846   0.984 129.102  0.00  0.00    -0.453 OA
BRANCH  28  34
ATOM     29  C   LIG A   1      -9.669   0.227 123.365  0.00  0.00    +0.124 A 
ATOM     30  C   LIG A   1      -9.587   1.598 123.590  0.00  0.00    +0.091 A 
ATOM     31  C   LIG A   1      -9.152   2.055 124.832  0.00  0.00    +0.135 A 
ATOM     32  C   LIG A   1      -8.759   1.158 125.826  0.00  0.00    +0.109 A 
ATOM     33  C   LIG A   1      -8.404   1.563 127.198  0.00  0.00    +0.238 A 
ATOM     34  C   LIG A   1      -7.555   0.614 127.970  0.00  0.00    +0.214 A 
ATOM     35  C   LIG A   1      -7.640  -0.675 127.577  0.00  0.00    +0.181 A 
ATOM     36  O   LIG A   1      -8.336  -1.135 126.475  0.00  0.00    -0.451 OA
ATOM     37  O   LIG A   1      -8.898   2.573 127.726  0.00  0.00    -0.283 OA
ATOM     38  C   LIG A   1      -8.763  -0.214 125.553  0.00  0.00    +0.146 A 
ATOM     39  C   LIG A   1      -9.248  -0.684 124.330  0.00  0.00    +0.092 A 
BRANCH  35  40
ATOM     40  C   LIG A   1      -7.038  -1.739 128.385  0.00  0.00    +0.025 A 
ATOM     41  C   LIG A   1      -5.675  -2.042 128.270  0.00  0.00    +0.060 A 
ATOM     42  C   LIG A   1      -5.126  -3.014 129.101  0.00  0.00    +0.159 A 
ATOM     43  C   LIG A   1      -5.921  -3.684 130.030  0.00  0.00    +0.158 A 
ATOM     44  C   LIG A   1      -7.273  -3.403 130.144  0.00  0.00    +0.050 A 
ATOM     45  C   LIG A   1      -7.833  -2.427 129.319  0.00  0.00    +0.015 A 
BRANCH  43  46
ATOM     46  O   LIG A   1      -5.367  -4.624 130.850  0.00  0.00    -0.503 OA
ATOM     47  H   LIG A   1      -5.857  -5.445 130.646  0.00  0.00    +0.292 HD
ENDBRANCH  43  46
BRANCH  42  48
ATOM     48  O   LIG A   1      -3.797  -3.339 129.052  0.00  0.00    -0.503 OA
ATOM     49  H   LIG A   1      -3.729  -4.305 128.966  0.00  0.00    +0.292 HD
ENDBRANCH  42  48
ENDBRANCH  35  40
BRANCH  29  50
ATOM     50  O   LIG A   1     -10.183  -0.258 122.200  0.00  0.00    -0.506 OA
ATOM     51  H   LIG A   1     -10.190   0.454 121.537  0.00  0.00    +0.292 HD
ENDBRANCH  29  50
BRANCH  31  52
ATOM     52  O   LIG A   1      -9.115   3.402 125.046  0.00  0.00    -0.506 OA
ATOM     53  H   LIG A   1      -8.251   3.733 124.744  0.00  0.00    +0.292 HD
ENDBRANCH  31  52
ENDBRANCH  28  34
ENDBRANCH   1  28
TORSDOF 16
ENDMDL
