MODEL 1
REMARK VINA RESULT:      -8.0      0.000      0.000
REMARK  Name = NuBBE_679
REMARK  12 active torsions:
REMARK  status: ('A' for Active; 'I' for Inactive)
REMARK    1  A    between atoms: C_1  and  C_2
REMARK    2  A    between atoms: C_2  and  O_4
REMARK    3  A    between atoms: C_2  and  C_5
REMARK    4  A    between atoms: C_5  and  C_7
REMARK    5  A    between atoms: C_5  and  C_8
REMARK    6  A    between atoms: C_8  and  C_9
REMARK    7  A    between atoms: C_14  and  C_15
REMARK    8  A    between atoms: C_16  and  C_17
REMARK    9  A    between atoms: C_17  and  C_19
REMARK   10  A    between atoms: C_17  and  C_20
REMARK   11  A    between atoms: C_20  and  C_21
REMARK   12  A    between atoms: C_26  and  C_30
REMARK                            x       y       z     vdW  Elec       q    Type
REMARK                         _______ _______ _______ _____ _____    ______ ____
ROOT
ATOM      1  C   LIG A   1      -8.066   0.532 125.281  0.00  0.00    +0.110 C 
ATOM      2  C   LIG A   1      -7.793  -0.760 125.480  0.00  0.00    +0.031 C 
ATOM      3  C   LIG A   1      -7.517  -1.555 126.654  0.00  0.00    +0.025 C 
ATOM      4  C   LIG A   1      -6.465  -1.364 127.468  0.00  0.00    +0.204 C 
ATOM      5  O   LIG A   1      -6.188  -2.147 128.577  0.00  0.00    -0.463 OA
ATOM      6  C   LIG A   1      -7.143  -3.084 128.994  0.00  0.00    +0.128 C 
ATOM      7  C   LIG A   1      -8.202  -3.404 128.223  0.00  0.00    +0.055 C 
ATOM      8  C   LIG A   1      -8.301  -2.777 126.909  0.00  0.00    -0.008 C 
ATOM      9  C   LIG A   1      -9.072  -3.284 125.930  0.00  0.00    +0.059 C 
ATOM     10  C   LIG A   1      -8.009  -1.574 124.253  0.00  0.00    +0.199 C 
ATOM     11  O   LIG A   1      -8.461  -0.626 123.296  0.00  0.00    -0.442 OA
ATOM     12  C   LIG A   1      -8.391   0.616 123.841  0.00  0.00    +0.344 C 
ATOM     13  O   LIG A   1      -8.555   1.630 123.205  0.00  0.00    -0.245 OA
ATOM     14  C   LIG A   1      -6.710  -2.186 123.724  0.00  0.00    +0.070 C 
ATOM     15  C   LIG A   1      -9.052  -2.681 124.556  0.00  0.00    +0.204 C 
ATOM     16  O   LIG A   1      -9.834  -3.117 123.714  0.00  0.00    -0.288 OA
ENDROOT
BRANCH   1  17
ATOM     17  C   LIG A   1      -8.133   1.670 126.238  0.00  0.00    +0.176 C 
ATOM     18  O   LIG A   1      -9.121   1.798 126.968  0.00  0.00    -0.291 OA
BRANCH  17  19
ATOM     19  C   LIG A   1      -6.979   2.683 126.302  0.00  0.00    +0.085 C 
ATOM     20  C   LIG A   1      -5.691   2.069 125.735  0.00  0.00    +0.018 C 
BRANCH  19  22
ATOM     21  C   LIG A   1      -6.494   4.247 124.314  0.00  0.00    +0.038 C 
ATOM     22  C   LIG A   1      -7.326   3.991 125.567  0.00  0.00    +0.122 C 
BRANCH  22  23
ATOM     23  O   LIG A   1      -8.700   3.927 125.168  0.00  0.00    -0.391 OA
ATOM     24  H   LIG A   1      -8.765   4.262 124.258  0.00  0.00    +0.210 HD
ENDBRANCH  22  23
ENDBRANCH  19  22
ENDBRANCH  17  19
ENDBRANCH   1  17
BRANCH   6  25
ATOM     25  C   LIG A   1      -6.916  -3.621 130.325  0.00  0.00    +0.042 C 
ATOM     26  C   LIG A   1      -5.773  -4.216 130.724  0.00  0.00    -0.020 C 
BRANCH  26  27
ATOM     27  C   LIG A   1      -5.511  -4.714 132.131  0.00  0.00    +0.008 C 
ATOM     28  C   LIG A   1      -4.048  -4.506 132.546  0.00  0.00    +0.012 C 
BRANCH  27  29
ATOM     29  C   LIG A   1      -6.424  -4.032 133.172  0.00  0.00    +0.004 C 
ATOM     30  C   LIG A   1      -6.685  -4.879 134.410  0.00  0.00    +0.004 C 
ENDBRANCH  27  29
ENDBRANCH  26  27
ENDBRANCH   6  25
TORSDOF 7
ENDMDL
MODEL 2
REMARK VINA RESULT:      -7.6      1.695      2.279
REMARK  Name = NuBBE_679
REMARK  12 active torsions:
REMARK  status: ('A' for Active; 'I' for Inactive)
REMARK    1  A    between atoms: C_1  and  C_2
REMARK    2  A    between atoms: C_2  and  O_4
REMARK    3  A    between atoms: C_2  and  C_5
REMARK    4  A    between atoms: C_5  and  C_7
REMARK    5  A    between atoms: C_5  and  C_8
REMARK    6  A    between atoms: C_8  and  C_9
REMARK    7  A    between atoms: C_14  and  C_15
REMARK    8  A    between atoms: C_16  and  C_17
REMARK    9  A    between atoms: C_17  and  C_19
REMARK   10  A    between atoms: C_17  and  C_20
REMARK   11  A    between atoms: C_20  and  C_21
REMARK   12  A    between atoms: C_26  and  C_30
REMARK                            x       y       z     vdW  Elec       q    Type
REMARK                         _______ _______ _______ _____ _____    ______ ____
ROOT
ATOM      1  C   LIG A   1      -6.655  -0.137 125.465  0.00  0.00    +0.110 C 
ATOM      2  C   LIG A   1      -6.832  -1.408 125.832  0.00  0.00    +0.031 C 
ATOM      3  C   LIG A   1      -6.677  -2.121 127.079  0.00  0.00    +0.025 C 
ATOM      4  C   LIG A   1      -5.512  -2.252 127.736  0.00  0.00    +0.204 C 
ATOM      5  O   LIG A   1      -5.363  -2.961 128.918  0.00  0.00    -0.463 OA
ATOM      6  C   LIG A   1      -6.511  -3.424 129.574  0.00  0.00    +0.128 C 
ATOM      7  C   LIG A   1      -7.721  -3.404 128.979  0.00  0.00    +0.055 C 
ATOM      8  C   LIG A   1      -7.794  -2.927 127.602  0.00  0.00    -0.008 C 
ATOM      9  C   LIG A   1      -8.838  -3.210 126.801  0.00  0.00    +0.059 C 
ATOM     10  C   LIG A   1      -7.511  -2.207 124.776  0.00  0.00    +0.199 C 
ATOM     11  O   LIG A   1      -7.740  -1.264 123.737  0.00  0.00    -0.442 OA
ATOM     12  C   LIG A   1      -7.149  -0.089 124.072  0.00  0.00    +0.344 C 
ATOM     13  O   LIG A   1      -7.038   0.840 123.308  0.00  0.00    -0.245 OA
ATOM     14  C   LIG A   1      -6.614  -3.312 124.213  0.00  0.00    +0.070 C 
ATOM     15  C   LIG A   1      -8.820  -2.805 125.356  0.00  0.00    +0.204 C 
ATOM     16  O   LIG A   1      -9.826  -3.003 124.680  0.00  0.00    -0.288 OA
ENDROOT
BRANCH   1  17
ATOM     17  C   LIG A   1      -6.162   1.038 126.235  0.00  0.00    +0.176 C 
ATOM     18  O   LIG A   1      -4.997   1.421 126.087  0.00  0.00    -0.291 OA
BRANCH  17  19
ATOM     19  C   LIG A   1      -7.101   1.756 127.217  0.00  0.00    +0.085 C 
ATOM     20  C   LIG A   1      -8.562   1.372 126.945  0.00  0.00    +0.018 C 
BRANCH  19  22
ATOM     21  C   LIG A   1      -7.619   0.431 129.363  0.00  0.00    +0.038 C 
ATOM     22  C   LIG A   1      -6.727   1.463 128.682  0.00  0.00    +0.122 C 
BRANCH  22  23
ATOM     23  O   LIG A   1      -5.386   0.961 128.709  0.00  0.00    -0.391 OA
ATOM     24  H   LIG A   1      -4.789   1.705 128.896  0.00  0.00    +0.210 HD
ENDBRANCH  22  23
ENDBRANCH  19  22
ENDBRANCH  17  19
ENDBRANCH   1  17
BRANCH   6  25
ATOM     25  C   LIG A   1      -6.286  -3.864 130.940  0.00  0.00    +0.042 C 
ATOM     26  C   LIG A   1      -5.409  -4.824 131.298  0.00  0.00    -0.020 C 
BRANCH  26  27
ATOM     27  C   LIG A   1      -5.124  -5.236 132.730  0.00  0.00    +0.008 C 
ATOM     28  C   LIG A   1      -3.729  -4.784 133.185  0.00  0.00    +0.012 C 
BRANCH  27  29
ATOM     29  C   LIG A   1      -6.172  -4.680 133.717  0.00  0.00    +0.004 C 
ATOM     30  C   LIG A   1      -6.536  -5.647 134.835  0.00  0.00    +0.004 C 
ENDBRANCH  27  29
ENDBRANCH  26  27
ENDBRANCH   6  25
TORSDOF 7
ENDMDL
MODEL 3
REMARK VINA RESULT:      -7.4      1.887      4.188
REMARK  Name = NuBBE_679
REMARK  12 active torsions:
REMARK  status: ('A' for Active; 'I' for Inactive)
REMARK    1  A    between atoms: C_1  and  C_2
REMARK    2  A    between atoms: C_2  and  O_4
REMARK    3  A    between atoms: C_2  and  C_5
REMARK    4  A    between atoms: C_5  and  C_7
REMARK    5  A    between atoms: C_5  and  C_8
REMARK    6  A    between atoms: C_8  and  C_9
REMARK    7  A    between atoms: C_14  and  C_15
REMARK    8  A    between atoms: C_16  and  C_17
REMARK    9  A    between atoms: C_17  and  C_19
REMARK   10  A    between atoms: C_17  and  C_20
REMARK   11  A    between atoms: C_20  and  C_21
REMARK   12  A    between atoms: C_26  and  C_30
REMARK                            x       y       z     vdW  Elec       q    Type
REMARK                         _______ _______ _______ _____ _____    ______ ____
ROOT
ATOM      1  C   LIG A   1      -8.770  -1.283 126.039  0.00  0.00    +0.110 C 
ATOM      2  C   LIG A   1      -8.037  -0.997 127.118  0.00  0.00    +0.031 C 
ATOM      3  C   LIG A   1      -7.393  -1.799 128.132  0.00  0.00    +0.025 C 
ATOM      4  C   LIG A   1      -8.043  -2.615 128.978  0.00  0.00    +0.204 C 
ATOM      5  O   LIG A   1      -7.423  -3.361 129.968  0.00  0.00    -0.463 OA
ATOM      6  C   LIG A   1      -6.024  -3.419 129.990  0.00  0.00    +0.128 C 
ATOM      7  C   LIG A   1      -5.271  -2.595 129.232  0.00  0.00    +0.055 C 
ATOM      8  C   LIG A   1      -5.960  -1.601 128.418  0.00  0.00    -0.008 C 
ATOM      9  C   LIG A   1      -5.334  -0.512 127.935  0.00  0.00    +0.059 C 
ATOM     10  C   LIG A   1      -7.652   0.440 127.169  0.00  0.00    +0.199 C 
ATOM     11  O   LIG A   1      -8.222   0.982 125.985  0.00  0.00    -0.442 OA
ATOM     12  C   LIG A   1      -8.969   0.025 125.378  0.00  0.00    +0.344 C 
ATOM     13  O   LIG A   1      -9.702   0.246 124.443  0.00  0.00    -0.245 OA
ATOM     14  C   LIG A   1      -8.275   1.169 128.361  0.00  0.00    +0.070 C 
ATOM     15  C   LIG A   1      -6.105   0.550 127.206  0.00  0.00    +0.204 C 
ATOM     16  O   LIG A   1      -5.485   1.485 126.705  0.00  0.00    -0.288 OA
ENDROOT
BRANCH   1  17
ATOM     17  C   LIG A   1      -9.247  -2.589 125.507  0.00  0.00    +0.176 C 
ATOM     18  O   LIG A   1     -10.194  -3.163 126.054  0.00  0.00    -0.291 OA
BRANCH  17  19
ATOM     19  C   LIG A   1      -8.551  -3.218 124.290  0.00  0.00    +0.085 C 
ATOM     20  C   LIG A   1      -9.473  -3.182 123.063  0.00  0.00    +0.018 C 
BRANCH  19  22
ATOM     21  C   LIG A   1      -5.988  -3.426 124.154  0.00  0.00    +0.038 C 
ATOM     22  C   LIG A   1      -7.209  -2.529 123.980  0.00  0.00    +0.122 C 
BRANCH  22  23
ATOM     23  O   LIG A   1      -7.235  -2.094 122.616  0.00  0.00    -0.391 OA
ATOM     24  H   LIG A   1      -7.577  -1.185 122.596  0.00  0.00    +0.210 HD
ENDBRANCH  22  23
ENDBRANCH  19  22
ENDBRANCH  17  19
ENDBRANCH   1  17
BRANCH   6  25
ATOM     25  C   LIG A   1      -5.479  -4.461 130.843  0.00  0.00    +0.042 C 
ATOM     26  C   LIG A   1      -5.338  -4.358 132.180  0.00  0.00    -0.020 C 
BRANCH  26  27
ATOM     27  C   LIG A   1      -4.834  -5.470 133.079  0.00  0.00    +0.008 C 
ATOM     28  C   LIG A   1      -3.397  -5.212 133.554  0.00  0.00    +0.012 C 
BRANCH  27  29
ATOM     29  C   LIG A   1      -5.735  -5.675 134.315  0.00  0.00    +0.004 C 
ATOM     30  C   LIG A   1      -6.847  -4.643 134.443  0.00  0.00    +0.004 C 
ENDBRANCH  27  29
ENDBRANCH  26  27
ENDBRANCH   6  25
TORSDOF 7
ENDMDL
MODEL 4
REMARK VINA RESULT:      -7.3      3.533      6.902
REMARK  Name = NuBBE_679
REMARK  12 active torsions:
REMARK  status: ('A' for Active; 'I' for Inactive)
REMARK    1  A    between atoms: C_1  and  C_2
REMARK    2  A    between atoms: C_2  and  O_4
REMARK    3  A    between atoms: C_2  and  C_5
REMARK    4  A    between atoms: C_5  and  C_7
REMARK    5  A    between atoms: C_5  and  C_8
REMARK    6  A    between atoms: C_8  and  C_9
REMARK    7  A    between atoms: C_14  and  C_15
REMARK    8  A    between atoms: C_16  and  C_17
REMARK    9  A    between atoms: C_17  and  C_19
REMARK   10  A    between atoms: C_17  and  C_20
REMARK   11  A    between atoms: C_20  and  C_21
REMARK   12  A    between atoms: C_26  and  C_30
REMARK                            x       y       z     vdW  Elec       q    Type
REMARK                         _______ _______ _______ _____ _____    ______ ____
ROOT
ATOM      1  C   LIG A   1      -7.725  -0.323 124.076  0.00  0.00    +0.110 C 
ATOM      2  C   LIG A   1      -7.677   0.992 124.297  0.00  0.00    +0.031 C 
ATOM      3  C   LIG A   1      -6.718   1.867 124.932  0.00  0.00    +0.025 C 
ATOM      4  C   LIG A   1      -6.366   1.791 126.227  0.00  0.00    +0.204 C 
ATOM      5  O   LIG A   1      -5.466   2.650 126.839  0.00  0.00    -0.463 OA
ATOM      6  C   LIG A   1      -4.739   3.541 126.040  0.00  0.00    +0.128 C 
ATOM      7  C   LIG A   1      -5.052   3.748 124.745  0.00  0.00    +0.055 C 
ATOM      8  C   LIG A   1      -6.211   3.045 124.206  0.00  0.00    -0.008 C 
ATOM      9  C   LIG A   1      -6.833   3.446 123.081  0.00  0.00    +0.059 C 
ATOM     10  C   LIG A   1      -8.747   1.723 123.564  0.00  0.00    +0.199 C 
ATOM     11  O   LIG A   1      -9.434   0.696 122.862  0.00  0.00    -0.442 OA
ATOM     12  C   LIG A   1      -8.928  -0.507 123.237  0.00  0.00    +0.344 C 
ATOM     13  O   LIG A   1      -9.427  -1.563 122.928  0.00  0.00    -0.245 OA
ATOM     14  C   LIG A   1      -9.748   2.390 124.509  0.00  0.00    +0.070 C 
ATOM     15  C   LIG A   1      -8.094   2.772 122.627  0.00  0.00    +0.204 C 
ATOM     16  O   LIG A   1      -8.583   3.108 121.550  0.00  0.00    -0.288 OA
ENDROOT
BRANCH   1  17
ATOM     17  C   LIG A   1      -6.788  -1.410 124.473  0.00  0.00    +0.176 C 
ATOM     18  O   LIG A   1      -5.822  -1.679 123.751  0.00  0.00    -0.291 OA
BRANCH  17  19
ATOM     19  C   LIG A   1      -7.035  -2.196 125.770  0.00  0.00    +0.085 C 
ATOM     20  C   LIG A   1      -7.618  -1.278 126.854  0.00  0.00    +0.018 C 
BRANCH  19  22
ATOM     21  C   LIG A   1      -9.406  -3.187 125.941  0.00  0.00    +0.038 C 
ATOM     22  C   LIG A   1      -7.952  -3.411 125.536  0.00  0.00    +0.122 C 
BRANCH  22  23
ATOM     23  O   LIG A   1      -7.935  -3.719 124.138  0.00  0.00    -0.391 OA
ATOM     24  H   LIG A   1      -7.459  -4.558 124.020  0.00  0.00    +0.210 HD
ENDBRANCH  22  23
ENDBRANCH  19  22
ENDBRANCH  17  19
ENDBRANCH   1  17
BRANCH   6  25
ATOM     25  C   LIG A   1      -3.610   4.164 126.711  0.00  0.00    +0.042 C 
ATOM     26  C   LIG A   1      -3.698   4.876 127.853  0.00  0.00    -0.020 C 
BRANCH  26  27
ATOM     27  C   LIG A   1      -2.512   5.467 128.589  0.00  0.00    +0.008 C 
ATOM     28  C   LIG A   1      -2.236   6.914 128.157  0.00  0.00    +0.012 C 
BRANCH  27  29
ATOM     29  C   LIG A   1      -2.701   5.435 130.121  0.00  0.00    +0.004 C 
ATOM     30  C   LIG A   1      -3.441   4.203 130.623  0.00  0.00    +0.004 C 
ENDBRANCH  27  29
ENDBRANCH  26  27
ENDBRANCH   6  25
TORSDOF 7
ENDMDL
MODEL 5
REMARK VINA RESULT:      -7.2      4.034      7.274
REMARK  Name = NuBBE_679
REMARK  12 active torsions:
REMARK  status: ('A' for Active; 'I' for Inactive)
REMARK    1  A    between atoms: C_1  and  C_2
REMARK    2  A    between atoms: C_2  and  O_4
REMARK    3  A    between atoms: C_2  and  C_5
REMARK    4  A    between atoms: C_5  and  C_7
REMARK    5  A    between atoms: C_5  and  C_8
REMARK    6  A    between atoms: C_8  and  C_9
REMARK    7  A    between atoms: C_14  and  C_15
REMARK    8  A    between atoms: C_16  and  C_17
REMARK    9  A    between atoms: C_17  and  C_19
REMARK   10  A    between atoms: C_17  and  C_20
REMARK   11  A    between atoms: C_20  and  C_21
REMARK   12  A    between atoms: C_26  and  C_30
REMARK                            x       y       z     vdW  Elec       q    Type
REMARK                         _______ _______ _______ _____ _____    ______ ____
ROOT
ATOM      1  C   LIG A   1      -7.232   3.667 129.832  0.00  0.00    +0.110 C 
ATOM      2  C   LIG A   1      -6.180   3.326 129.084  0.00  0.00    +0.031 C 
ATOM      3  C   LIG A   1      -5.892   2.212 128.210  0.00  0.00    +0.025 C 
ATOM      4  C   LIG A   1      -5.828   0.932 128.613  0.00  0.00    +0.204 C 
ATOM      5  O   LIG A   1      -5.522  -0.131 127.777  0.00  0.00    -0.463 OA
ATOM      6  C   LIG A   1      -5.449   0.099 126.397  0.00  0.00    +0.128 C 
ATOM      7  C   LIG A   1      -5.435   1.348 125.888  0.00  0.00    +0.055 C 
ATOM      8  C   LIG A   1      -5.450   2.464 126.827  0.00  0.00    -0.008 C 
ATOM      9  C   LIG A   1      -5.063   3.703 126.472  0.00  0.00    +0.059 C 
ATOM     10  C   LIG A   1      -5.180   4.425 128.988  0.00  0.00    +0.199 C 
ATOM     11  O   LIG A   1      -5.761   5.474 129.751  0.00  0.00    -0.442 OA
ATOM     12  C   LIG A   1      -6.894   5.013 130.342  0.00  0.00    +0.344 C 
ATOM     13  O   LIG A   1      -7.506   5.633 131.179  0.00  0.00    -0.245 OA
ATOM     14  C   LIG A   1      -3.846   4.057 129.642  0.00  0.00    +0.070 C 
ATOM     15  C   LIG A   1      -4.976   4.797 127.496  0.00  0.00    +0.204 C 
ATOM     16  O   LIG A   1      -4.705   5.934 127.118  0.00  0.00    -0.288 OA
ENDROOT
BRANCH   1  17
ATOM     17  C   LIG A   1      -8.516   2.958 130.083  0.00  0.00    +0.176 C 
ATOM     18  O   LIG A   1      -9.432   3.040 129.258  0.00  0.00    -0.291 OA
BRANCH  17  19
ATOM     19  C   LIG A   1      -8.698   2.140 131.372  0.00  0.00    +0.085 C 
ATOM     20  C   LIG A   1      -7.335   1.748 131.958  0.00  0.00    +0.018 C 
BRANCH  19  22
ATOM     21  C   LIG A   1      -8.754   3.368 133.634  0.00  0.00    +0.038 C 
ATOM     22  C   LIG A   1      -9.540   2.898 132.415  0.00  0.00    +0.122 C 
BRANCH  22  23
ATOM     23  O   LIG A   1     -10.093   4.059 131.784  0.00  0.00    -0.391 OA
ATOM     24  H   LIG A   1      -9.568   4.249 130.989  0.00  0.00    +0.210 HD
ENDBRANCH  22  23
ENDBRANCH  19  22
ENDBRANCH  17  19
ENDBRANCH   1  17
BRANCH   6  25
ATOM     25  C   LIG A   1      -5.445  -1.108 125.587  0.00  0.00    +0.042 C 
ATOM     26  C   LIG A   1      -6.486  -1.529 124.840  0.00  0.00    -0.020 C 
BRANCH  26  27
ATOM     27  C   LIG A   1      -6.458  -2.749 123.941  0.00  0.00    +0.008 C 
ATOM     28  C   LIG A   1      -5.083  -3.432 123.948  0.00  0.00    +0.012 C 
BRANCH  27  29
ATOM     29  C   LIG A   1      -7.529  -3.788 124.333  0.00  0.00    +0.004 C 
ATOM     30  C   LIG A   1      -8.946  -3.389 123.942  0.00  0.00    +0.004 C 
ENDBRANCH  27  29
ENDBRANCH  26  27
ENDBRANCH   6  25
TORSDOF 7
ENDMDL
MODEL 6
REMARK VINA RESULT:      -7.1      3.333      7.539
REMARK  Name = NuBBE_679
REMARK  12 active torsions:
REMARK  status: ('A' for Active; 'I' for Inactive)
REMARK    1  A    between atoms: C_1  and  C_2
REMARK    2  A    between atoms: C_2  and  O_4
REMARK    3  A    between atoms: C_2  and  C_5
REMARK    4  A    between atoms: C_5  and  C_7
REMARK    5  A    between atoms: C_5  and  C_8
REMARK    6  A    between atoms: C_8  and  C_9
REMARK    7  A    between atoms: C_14  and  C_15
REMARK    8  A    between atoms: C_16  and  C_17
REMARK    9  A    between atoms: C_17  and  C_19
REMARK   10  A    between atoms: C_17  and  C_20
REMARK   11  A    between atoms: C_20  and  C_21
REMARK   12  A    between atoms: C_26  and  C_30
REMARK                            x       y       z     vdW  Elec       q    Type
REMARK                         _______ _______ _______ _____ _____    ______ ____
ROOT
ATOM      1  C   LIG A   1      -7.163  -1.173 131.920  0.00  0.00    +0.110 C 
ATOM      2  C   LIG A   1      -6.535  -2.004 131.086  0.00  0.00    +0.031 C 
ATOM      3  C   LIG A   1      -6.505  -2.146 129.648  0.00  0.00    +0.025 C 
ATOM      4  C   LIG A   1      -7.577  -2.442 128.894  0.00  0.00    +0.204 C 
ATOM      5  O   LIG A   1      -7.537  -2.605 127.518  0.00  0.00    -0.463 OA
ATOM      6  C   LIG A   1      -6.361  -2.272 126.835  0.00  0.00    +0.128 C 
ATOM      7  C   LIG A   1      -5.208  -2.025 127.492  0.00  0.00    +0.055 C 
ATOM      8  C   LIG A   1      -5.210  -2.163 128.944  0.00  0.00    -0.008 C 
ATOM      9  C   LIG A   1      -4.075  -2.315 129.650  0.00  0.00    +0.059 C 
ATOM     10  C   LIG A   1      -5.510  -2.829 131.782  0.00  0.00    +0.199 C 
ATOM     11  O   LIG A   1      -5.580  -2.383 133.130  0.00  0.00    -0.442 OA
ATOM     12  C   LIG A   1      -6.611  -1.507 133.250  0.00  0.00    +0.344 C 
ATOM     13  O   LIG A   1      -7.010  -1.093 134.313  0.00  0.00    -0.245 OA
ATOM     14  C   LIG A   1      -5.852  -4.320 131.766  0.00  0.00    +0.070 C 
ATOM     15  C   LIG A   1      -4.127  -2.576 131.127  0.00  0.00    +0.204 C 
ATOM     16  O   LIG A   1      -3.069  -2.622 131.751  0.00  0.00    -0.288 OA
ENDROOT
BRANCH   1  17
ATOM     17  C   LIG A   1      -8.140  -0.082 131.652  0.00  0.00    +0.176 C 
ATOM     18  O   LIG A   1      -9.341  -0.269 131.871  0.00  0.00    -0.291 OA
BRANCH  17  19
ATOM     19  C   LIG A   1      -7.649   1.263 131.095  0.00  0.00    +0.085 C 
ATOM     20  C   LIG A   1      -8.445   1.650 129.840  0.00  0.00    +0.018 C 
BRANCH  19  22
ATOM     21  C   LIG A   1      -8.826   3.407 131.902  0.00  0.00    +0.038 C 
ATOM     22  C   LIG A   1      -7.725   2.382 132.151  0.00  0.00    +0.122 C 
BRANCH  22  23
ATOM     23  O   LIG A   1      -7.978   1.776 133.424  0.00  0.00    -0.391 OA
ATOM     24  H   LIG A   1      -8.877   1.408 133.409  0.00  0.00    +0.210 HD
ENDBRANCH  22  23
ENDBRANCH  19  22
ENDBRANCH  17  19
ENDBRANCH   1  17
BRANCH   6  25
ATOM     25  C   LIG A   1      -6.511  -2.168 125.394  0.00  0.00    +0.042 C 
ATOM     26  C   LIG A   1      -7.426  -1.395 124.775  0.00  0.00    -0.020 C 
BRANCH  26  27
ATOM     27  C   LIG A   1      -7.539  -1.233 123.272  0.00  0.00    +0.008 C 
ATOM     28  C   LIG A   1      -6.404  -1.958 122.534  0.00  0.00    +0.012 C 
BRANCH  27  29
ATOM     29  C   LIG A   1      -8.890  -1.744 122.729  0.00  0.00    +0.004 C 
ATOM     30  C   LIG A   1      -9.339  -3.063 123.342  0.00  0.00    +0.004 C 
ENDBRANCH  27  29
ENDBRANCH  26  27
ENDBRANCH   6  25
TORSDOF 7
ENDMDL
MODEL 7
REMARK VINA RESULT:      -7.1      7.129      9.573
REMARK  Name = NuBBE_679
REMARK  12 active torsions:
REMARK  status: ('A' for Active; 'I' for Inactive)
REMARK    1  A    between atoms: C_1  and  C_2
REMARK    2  A    between atoms: C_2  and  O_4
REMARK    3  A    between atoms: C_2  and  C_5
REMARK    4  A    between atoms: C_5  and  C_7
REMARK    5  A    between atoms: C_5  and  C_8
REMARK    6  A    between atoms: C_8  and  C_9
REMARK    7  A    between atoms: C_14  and  C_15
REMARK    8  A    between atoms: C_16  and  C_17
REMARK    9  A    between atoms: C_17  and  C_19
REMARK   10  A    between atoms: C_17  and  C_20
REMARK   11  A    between atoms: C_20  and  C_21
REMARK   12  A    between atoms: C_26  and  C_30
REMARK                            x       y       z     vdW  Elec       q    Type
REMARK                         _______ _______ _______ _____ _____    ______ ____
ROOT
ATOM      1  C   LIG A   1      -9.663   5.013 130.967  0.00  0.00    +0.110 C 
ATOM      2  C   LIG A   1      -8.395   4.594 130.970  0.00  0.00    +0.031 C 
ATOM      3  C   LIG A   1      -7.153   5.166 131.435  0.00  0.00    +0.025 C 
ATOM      4  C   LIG A   1      -6.617   6.302 130.958  0.00  0.00    +0.204 C 
ATOM      5  O   LIG A   1      -5.410   6.832 131.388  0.00  0.00    -0.463 OA
ATOM      6  C   LIG A   1      -4.786   6.263 132.505  0.00  0.00    +0.128 C 
ATOM      7  C   LIG A   1      -5.199   5.088 133.024  0.00  0.00    +0.055 C 
ATOM      8  C   LIG A   1      -6.293   4.396 132.352  0.00  0.00    -0.008 C 
ATOM      9  C   LIG A   1      -6.530   3.084 132.535  0.00  0.00    +0.059 C 
ATOM     10  C   LIG A   1      -8.278   3.161 130.584  0.00  0.00    +0.199 C 
ATOM     11  O   LIG A   1      -9.624   2.760 130.367  0.00  0.00    -0.442 OA
ATOM     12  C   LIG A   1     -10.429   3.849 130.472  0.00  0.00    +0.344 C 
ATOM     13  O   LIG A   1     -11.600   3.840 130.175  0.00  0.00    -0.245 OA
ATOM     14  C   LIG A   1      -7.518   2.972 129.269  0.00  0.00    +0.070 C 
ATOM     15  C   LIG A   1      -7.587   2.382 131.733  0.00  0.00    +0.204 C 
ATOM     16  O   LIG A   1      -7.833   1.205 131.991  0.00  0.00    -0.288 OA
ENDROOT
BRANCH   1  17
ATOM     17  C   LIG A   1     -10.262   6.299 131.416  0.00  0.00    +0.176 C 
ATOM     18  O   LIG A   1     -10.354   6.542 132.624  0.00  0.00    -0.291 OA
BRANCH  17  19
ATOM     19  C   LIG A   1     -10.772   7.309 130.376  0.00  0.00    +0.085 C 
ATOM     20  C   LIG A   1     -10.213   6.978 128.985  0.00  0.00    +0.018 C 
BRANCH  19  22
ATOM     21  C   LIG A   1     -12.930   6.867 129.043  0.00  0.00    +0.038 C 
ATOM     22  C   LIG A   1     -12.310   7.368 130.343  0.00  0.00    +0.122 C 
BRANCH  22  23
ATOM     23  O   LIG A   1     -12.811   6.547 131.405  0.00  0.00    -0.391 OA
ATOM     24  H   LIG A   1     -12.194   5.807 131.530  0.00  0.00    +0.210 HD
ENDBRANCH  22  23
ENDBRANCH  19  22
ENDBRANCH  17  19
ENDBRANCH   1  17
BRANCH   6  25
ATOM     25  C   LIG A   1      -3.715   7.067 133.070  0.00  0.00    +0.042 C 
ATOM     26  C   LIG A   1      -2.928   7.897 132.358  0.00  0.00    -0.020 C 
BRANCH  26  27
ATOM     27  C   LIG A   1      -1.857   8.788 132.956  0.00  0.00    +0.008 C 
ATOM     28  C   LIG A   1      -2.291   9.373 134.308  0.00  0.00    +0.012 C 
BRANCH  27  29
ATOM     29  C   LIG A   1      -0.518   8.045 133.145  0.00  0.00    +0.004 C 
ATOM     30  C   LIG A   1      -0.379   6.799 132.281  0.00  0.00    +0.004 C 
ENDBRANCH  27  29
ENDBRANCH  26  27
ENDBRANCH   6  25
TORSDOF 7
ENDMDL
MODEL 8
REMARK VINA RESULT:      -7.0      3.539      5.549
REMARK  Name = NuBBE_679
REMARK  12 active torsions:
REMARK  status: ('A' for Active; 'I' for Inactive)
REMARK    1  A    between atoms: C_1  and  C_2
REMARK    2  A    between atoms: C_2  and  O_4
REMARK    3  A    between atoms: C_2  and  C_5
REMARK    4  A    between atoms: C_5  and  C_7
REMARK    5  A    between atoms: C_5  and  C_8
REMARK    6  A    between atoms: C_8  and  C_9
REMARK    7  A    between atoms: C_14  and  C_15
REMARK    8  A    between atoms: C_16  and  C_17
REMARK    9  A    between atoms: C_17  and  C_19
REMARK   10  A    between atoms: C_17  and  C_20
REMARK   11  A    between atoms: C_20  and  C_21
REMARK   12  A    between atoms: C_26  and  C_30
REMARK                            x       y       z     vdW  Elec       q    Type
REMARK                         _______ _______ _______ _____ _____    ______ ____
ROOT
ATOM      1  C   LIG A   1      -8.437  -0.739 125.761  0.00  0.00    +0.110 C 
ATOM      2  C   LIG A   1      -7.736  -0.528 126.878  0.00  0.00    +0.031 C 
ATOM      3  C   LIG A   1      -7.647   0.569 127.813  0.00  0.00    +0.025 C 
ATOM      4  C   LIG A   1      -7.221   1.803 127.494  0.00  0.00    +0.204 C 
ATOM      5  O   LIG A   1      -7.111   2.846 128.401  0.00  0.00    -0.463 OA
ATOM      6  C   LIG A   1      -7.637   2.675 129.688  0.00  0.00    +0.128 C 
ATOM      7  C   LIG A   1      -8.030   1.465 130.136  0.00  0.00    +0.055 C 
ATOM      8  C   LIG A   1      -7.846   0.320 129.252  0.00  0.00    -0.008 C 
ATOM      9  C   LIG A   1      -7.840  -0.945 129.711  0.00  0.00    +0.059 C 
ATOM     10  C   LIG A   1      -7.050  -1.762 127.349  0.00  0.00    +0.199 C 
ATOM     11  O   LIG A   1      -7.435  -2.745 126.398  0.00  0.00    -0.442 OA
ATOM     12  C   LIG A   1      -8.145  -2.144 125.408  0.00  0.00    +0.344 C 
ATOM     13  O   LIG A   1      -8.459  -2.702 124.384  0.00  0.00    -0.245 OA
ATOM     14  C   LIG A   1      -5.526  -1.638 127.299  0.00  0.00    +0.070 C 
ATOM     15  C   LIG A   1      -7.526  -2.088 128.790  0.00  0.00    +0.204 C 
ATOM     16  O   LIG A   1      -7.617  -3.233 129.225  0.00  0.00    -0.288 OA
ENDROOT
BRANCH   1  17
ATOM     17  C   LIG A   1      -9.380   0.147 125.025  0.00  0.00    +0.176 C 
ATOM     18  O   LIG A   1     -10.500   0.372 125.493  0.00  0.00    -0.291 OA
BRANCH  17  19
ATOM     19  C   LIG A   1      -8.957   0.765 123.683  0.00  0.00    +0.085 C 
ATOM     20  C   LIG A   1     -10.091   0.647 122.654  0.00  0.00    +0.018 C 
BRANCH  19  22
ATOM     21  C   LIG A   1      -8.432   3.007 122.531  0.00  0.00    +0.038 C 
ATOM     22  C   LIG A   1      -8.519   2.233 123.842  0.00  0.00    +0.122 C 
BRANCH  22  23
ATOM     23  O   LIG A   1      -9.478   2.896 124.673  0.00  0.00    -0.391 OA
ATOM     24  H   LIG A   1     -10.233   3.153 124.117  0.00  0.00    +0.210 HD
ENDBRANCH  22  23
ENDBRANCH  19  22
ENDBRANCH  17  19
ENDBRANCH   1  17
BRANCH   6  25
ATOM     25  C   LIG A   1      -7.765   3.904 130.452  0.00  0.00    +0.042 C 
ATOM     26  C   LIG A   1      -7.274   4.086 131.694  0.00  0.00    -0.020 C 
BRANCH  26  27
ATOM     27  C   LIG A   1      -7.347   5.390 132.465  0.00  0.00    +0.008 C 
ATOM     28  C   LIG A   1      -7.547   6.592 131.532  0.00  0.00    +0.012 C 
BRANCH  27  29
ATOM     29  C   LIG A   1      -8.476   5.384 133.516  0.00  0.00    +0.004 C 
ATOM     30  C   LIG A   1      -8.764   4.008 134.101  0.00  0.00    +0.004 C 
ENDBRANCH  27  29
ENDBRANCH  26  27
ENDBRANCH   6  25
TORSDOF 7
ENDMDL
MODEL 9
REMARK VINA RESULT:      -7.0      3.939      6.877
REMARK  Name = NuBBE_679
REMARK  12 active torsions:
REMARK  status: ('A' for Active; 'I' for Inactive)
REMARK    1  A    between atoms: C_1  and  C_2
REMARK    2  A    between atoms: C_2  and  O_4
REMARK    3  A    between atoms: C_2  and  C_5
REMARK    4  A    between atoms: C_5  and  C_7
REMARK    5  A    between atoms: C_5  and  C_8
REMARK    6  A    between atoms: C_8  and  C_9
REMARK    7  A    between atoms: C_14  and  C_15
REMARK    8  A    between atoms: C_16  and  C_17
REMARK    9  A    between atoms: C_17  and  C_19
REMARK   10  A    between atoms: C_17  and  C_20
REMARK   11  A    between atoms: C_20  and  C_21
REMARK   12  A    between atoms: C_26  and  C_30
REMARK                            x       y       z     vdW  Elec       q    Type
REMARK                         _______ _______ _______ _____ _____    ______ ____
ROOT
ATOM      1  C   LIG A   1      -6.787   4.086 129.708  0.00  0.00    +0.110 C 
ATOM      2  C   LIG A   1      -7.647   3.065 129.698  0.00  0.00    +0.031 C 
ATOM      3  C   LIG A   1      -7.814   1.905 128.852  0.00  0.00    +0.025 C 
ATOM      4  C   LIG A   1      -8.098   1.960 127.540  0.00  0.00    +0.204 C 
ATOM      5  O   LIG A   1      -8.286   0.844 126.739  0.00  0.00    -0.463 OA
ATOM      6  C   LIG A   1      -7.991  -0.419 127.267  0.00  0.00    +0.128 C 
ATOM      7  C   LIG A   1      -7.758  -0.599 128.583  0.00  0.00    +0.055 C 
ATOM      8  C   LIG A   1      -7.871   0.563 129.458  0.00  0.00    -0.008 C 
ATOM      9  C   LIG A   1      -8.036   0.444 130.788  0.00  0.00    +0.059 C 
ATOM     10  C   LIG A   1      -8.481   3.022 130.930  0.00  0.00    +0.199 C 
ATOM     11  O   LIG A   1      -8.011   4.126 131.692  0.00  0.00    -0.442 OA
ATOM     12  C   LIG A   1      -7.111   4.821 130.950  0.00  0.00    +0.344 C 
ATOM     13  O   LIG A   1      -6.670   5.897 131.277  0.00  0.00    -0.245 OA
ATOM     14  C   LIG A   1      -9.965   3.257 130.637  0.00  0.00    +0.070 C 
ATOM     15  C   LIG A   1      -8.271   1.658 131.638  0.00  0.00    +0.204 C 
ATOM     16  O   LIG A   1      -8.329   1.518 132.857  0.00  0.00    -0.288 OA
ENDROOT
BRANCH   1  17
ATOM     17  C   LIG A   1      -5.679   4.433 128.776  0.00  0.00    +0.176 C 
ATOM     18  O   LIG A   1      -5.939   4.777 127.618  0.00  0.00    -0.291 OA
BRANCH  17  19
ATOM     19  C   LIG A   1      -4.222   4.350 129.257  0.00  0.00    +0.085 C 
ATOM     20  C   LIG A   1      -3.374   3.539 128.267  0.00  0.00    +0.018 C 
BRANCH  19  22
ATOM     21  C   LIG A   1      -2.403   6.049 128.598  0.00  0.00    +0.038 C 
ATOM     22  C   LIG A   1      -3.612   5.747 129.476  0.00  0.00    +0.122 C 
BRANCH  22  23
ATOM     23  O   LIG A   1      -4.617   6.724 129.179  0.00  0.00    -0.391 OA
ATOM     24  H   LIG A   1      -4.494   7.476 129.783  0.00  0.00    +0.210 HD
ENDBRANCH  22  23
ENDBRANCH  19  22
ENDBRANCH  17  19
ENDBRANCH   1  17
BRANCH   6  25
ATOM     25  C   LIG A   1      -7.908  -1.479 126.276  0.00  0.00    +0.042 C 
ATOM     26  C   LIG A   1      -7.172  -1.415 125.148  0.00  0.00    -0.020 C 
BRANCH  26  27
ATOM     27  C   LIG A   1      -7.030  -2.547 124.150  0.00  0.00    +0.008 C 
ATOM     28  C   LIG A   1      -5.673  -3.253 124.277  0.00  0.00    +0.012 C 
BRANCH  27  29
ATOM     29  C   LIG A   1      -8.151  -3.597 124.295  0.00  0.00    +0.004 C 
ATOM     30  C   LIG A   1      -9.392  -3.290 123.467  0.00  0.00    +0.004 C 
ENDBRANCH  27  29
ENDBRANCH  26  27
ENDBRANCH   6  25
TORSDOF 7
ENDMDL
