MODEL 1
REMARK VINA RESULT:      -6.6      0.000      0.000
REMARK  Name = NuBBE_1352
REMARK  6 active torsions:
REMARK  status: ('A' for Active; 'I' for Inactive)
REMARK    1  A    between atoms: C_1  and  C_2
REMARK    2  A    between atoms: C_5  and  C_7
REMARK    3  A    between atoms: C_7  and  C_8
REMARK    4  A    between atoms: C_7  and  O_9
REMARK    5  A    between atoms: C_7  and  C_10
REMARK    6  A    between atoms: C_13  and  C_14
REMARK                            x       y       z     vdW  Elec       q    Type
REMARK                         _______ _______ _______ _____ _____    ______ ____
ROOT
ATOM      1  C   LIG A   1      -7.807  -0.270 126.787  0.00  0.00    +0.016 C 
ATOM      2  C   LIG A   1      -8.565  -0.730 125.520  0.00  0.00    -0.011 C 
ATOM      3  C   LIG A   1      -7.605  -0.752 124.320  0.00  0.00    -0.064 C 
ATOM      4  C   LIG A   1      -7.177   0.632 123.851  0.00  0.00    +0.037 C 
ATOM      5  C   LIG A   1      -8.377   1.542 123.506  0.00  0.00    +0.024 C 
ATOM      6  C   LIG A   1      -9.308   1.623 124.735  0.00  0.00    +0.007 C 
ATOM      7  C   LIG A   1      -9.737   0.238 125.222  0.00  0.00    +0.011 C 
ATOM      8  C   LIG A   1      -7.179  -1.909 123.755  0.00  0.00    -0.073 C 
ATOM      9  C   LIG A   1      -6.298  -2.012 122.534  0.00  0.00    +0.039 C 
ATOM     10  C   LIG A   1      -7.550  -3.271 124.311  0.00  0.00    +0.030 C 
ATOM     11  C   LIG A   1      -8.161  -3.239 125.704  0.00  0.00    +0.005 C 
ATOM     12  C   LIG A   1      -9.189  -2.124 125.799  0.00  0.00    +0.011 C 
ENDROOT
BRANCH   5  13
ATOM     13  C   LIG A   1      -7.932   2.953 123.004  0.00  0.00    +0.064 C 
ATOM     14  C   LIG A   1      -8.592   3.319 121.666  0.00  0.00    +0.041 C 
ATOM     15  C   LIG A   1      -6.408   3.050 122.837  0.00  0.00    +0.041 C 
BRANCH  13  16
ATOM     16  O   LIG A   1      -8.327   3.934 123.967  0.00  0.00    -0.389 OA
ATOM     17  H   LIG A   1      -7.555   4.490 124.167  0.00  0.00    +0.210 HD
ENDBRANCH  13  16
ENDBRANCH   5  13
TORSDOF 2
ENDMDL
MODEL 2
REMARK VINA RESULT:      -6.6      2.650      4.489
REMARK  Name = NuBBE_1352
REMARK  6 active torsions:
REMARK  status: ('A' for Active; 'I' for Inactive)
REMARK    1  A    between atoms: C_1  and  C_2
REMARK    2  A    between atoms: C_5  and  C_7
REMARK    3  A    between atoms: C_7  and  C_8
REMARK    4  A    between atoms: C_7  and  O_9
REMARK    5  A    between atoms: C_7  and  C_10
REMARK    6  A    between atoms: C_13  and  C_14
REMARK                            x       y       z     vdW  Elec       q    Type
REMARK                         _______ _______ _______ _____ _____    ______ ____
ROOT
ATOM      1  C   LIG A   1      -5.776  -0.937 127.127  0.00  0.00    +0.016 C 
ATOM      2  C   LIG A   1      -7.276  -0.854 127.495  0.00  0.00    -0.011 C 
ATOM      3  C   LIG A   1      -7.941  -2.221 127.269  0.00  0.00    -0.064 C 
ATOM      4  C   LIG A   1      -8.078  -2.601 125.800  0.00  0.00    +0.037 C 
ATOM      5  C   LIG A   1      -8.841  -1.538 124.979  0.00  0.00    +0.024 C 
ATOM      6  C   LIG A   1      -8.133  -0.177 125.148  0.00  0.00    +0.007 C 
ATOM      7  C   LIG A   1      -7.980   0.211 126.620  0.00  0.00    +0.011 C 
ATOM      8  C   LIG A   1      -8.348  -3.007 128.296  0.00  0.00    -0.073 C 
ATOM      9  C   LIG A   1      -9.073  -4.323 128.154  0.00  0.00    +0.039 C 
ATOM     10  C   LIG A   1      -8.108  -2.639 129.748  0.00  0.00    +0.030 C 
ATOM     11  C   LIG A   1      -7.117  -1.503 129.955  0.00  0.00    +0.005 C 
ATOM     12  C   LIG A   1      -7.395  -0.380 128.969  0.00  0.00    +0.011 C 
ENDROOT
BRANCH   5  13
ATOM     13  C   LIG A   1      -8.998  -1.943 123.478  0.00  0.00    +0.064 C 
ATOM     14  C   LIG A   1      -9.598  -3.349 123.324  0.00  0.00    +0.041 C 
ATOM     15  C   LIG A   1      -7.658  -1.902 122.728  0.00  0.00    +0.041 C 
BRANCH  13  16
ATOM     16  O   LIG A   1      -9.883  -1.020 122.837  0.00  0.00    -0.389 OA
ATOM     17  H   LIG A   1     -10.735  -1.044 123.305  0.00  0.00    +0.210 HD
ENDBRANCH  13  16
ENDBRANCH   5  13
TORSDOF 2
ENDMDL
MODEL 3
REMARK VINA RESULT:      -6.5      8.413     10.168
REMARK  Name = NuBBE_1352
REMARK  6 active torsions:
REMARK  status: ('A' for Active; 'I' for Inactive)
REMARK    1  A    between atoms: C_1  and  C_2
REMARK    2  A    between atoms: C_5  and  C_7
REMARK    3  A    between atoms: C_7  and  C_8
REMARK    4  A    between atoms: C_7  and  O_9
REMARK    5  A    between atoms: C_7  and  C_10
REMARK    6  A    between atoms: C_13  and  C_14
REMARK                            x       y       z     vdW  Elec       q    Type
REMARK                         _______ _______ _______ _____ _____    ______ ____
ROOT
ATOM      1  C   LIG A   1     -11.155   4.720 130.764  0.00  0.00    +0.016 C 
ATOM      2  C   LIG A   1     -10.985   6.191 131.211  0.00  0.00    -0.011 C 
ATOM      3  C   LIG A   1     -10.278   6.990 130.105  0.00  0.00    -0.064 C 
ATOM      4  C   LIG A   1      -8.810   6.626 129.926  0.00  0.00    +0.037 C 
ATOM      5  C   LIG A   1      -7.998   6.767 131.232  0.00  0.00    +0.024 C 
ATOM      6  C   LIG A   1      -8.666   5.908 132.327  0.00  0.00    +0.007 C 
ATOM      7  C   LIG A   1     -10.143   6.258 132.510  0.00  0.00    +0.011 C 
ATOM      8  C   LIG A   1     -10.924   7.920 129.358  0.00  0.00    -0.073 C 
ATOM      9  C   LIG A   1     -10.285   8.795 128.308  0.00  0.00    +0.039 C 
ATOM     10  C   LIG A   1     -12.410   8.188 129.500  0.00  0.00    +0.030 C 
ATOM     11  C   LIG A   1     -13.168   7.137 130.299  0.00  0.00    +0.005 C 
ATOM     12  C   LIG A   1     -12.386   6.768 131.549  0.00  0.00    +0.011 C 
ENDROOT
BRANCH   5  13
ATOM     13  C   LIG A   1      -6.488   6.413 131.038  0.00  0.00    +0.064 C 
ATOM     14  C   LIG A   1      -6.301   5.168 130.158  0.00  0.00    +0.041 C 
ATOM     15  C   LIG A   1      -5.777   6.173 132.379  0.00  0.00    +0.041 C 
BRANCH  13  16
ATOM     16  O   LIG A   1      -5.834   7.507 130.389  0.00  0.00    -0.389 OA
ATOM     17  H   LIG A   1      -5.289   7.148 129.668  0.00  0.00    +0.210 HD
ENDBRANCH  13  16
ENDBRANCH   5  13
TORSDOF 2
ENDMDL
MODEL 4
REMARK VINA RESULT:      -6.3      3.012      5.527
REMARK  Name = NuBBE_1352
REMARK  6 active torsions:
REMARK  status: ('A' for Active; 'I' for Inactive)
REMARK    1  A    between atoms: C_1  and  C_2
REMARK    2  A    between atoms: C_5  and  C_7
REMARK    3  A    between atoms: C_7  and  C_8
REMARK    4  A    between atoms: C_7  and  O_9
REMARK    5  A    between atoms: C_7  and  C_10
REMARK    6  A    between atoms: C_13  and  C_14
REMARK                            x       y       z     vdW  Elec       q    Type
REMARK                         _______ _______ _______ _____ _____    ______ ____
ROOT
ATOM      1  C   LIG A   1      -7.512  -4.263 124.730  0.00  0.00    +0.016 C 
ATOM      2  C   LIG A   1      -8.400  -3.028 125.005  0.00  0.00    -0.011 C 
ATOM      3  C   LIG A   1      -7.515  -1.822 125.362  0.00  0.00    -0.064 C 
ATOM      4  C   LIG A   1      -6.841  -1.937 126.722  0.00  0.00    +0.037 C 
ATOM      5  C   LIG A   1      -7.850  -2.166 127.870  0.00  0.00    +0.024 C 
ATOM      6  C   LIG A   1      -8.693  -3.418 127.548  0.00  0.00    +0.007 C 
ATOM      7  C   LIG A   1      -9.368  -3.319 126.179  0.00  0.00    +0.011 C 
ATOM      8  C   LIG A   1      -7.352  -0.770 124.522  0.00  0.00    -0.073 C 
ATOM      9  C   LIG A   1      -6.563   0.478 124.830  0.00  0.00    +0.039 C 
ATOM     10  C   LIG A   1      -7.963  -0.734 123.134  0.00  0.00    +0.030 C 
ATOM     11  C   LIG A   1      -8.495  -2.073 122.644  0.00  0.00    +0.005 C 
ATOM     12  C   LIG A   1      -9.276  -2.762 123.751  0.00  0.00    +0.011 C 
ENDROOT
BRANCH   5  13
ATOM     13  C   LIG A   1      -7.154  -2.261 129.266  0.00  0.00    +0.064 C 
ATOM     14  C   LIG A   1      -7.022  -3.717 129.741  0.00  0.00    +0.041 C 
ATOM     15  C   LIG A   1      -7.911  -1.466 130.341  0.00  0.00    +0.041 C 
BRANCH  13  16
ATOM     16  O   LIG A   1      -5.836  -1.715 129.168  0.00  0.00    -0.389 OA
ATOM     17  H   LIG A   1      -5.395  -1.833 130.026  0.00  0.00    +0.210 HD
ENDBRANCH  13  16
ENDBRANCH   5  13
TORSDOF 2
ENDMDL
MODEL 5
REMARK VINA RESULT:      -6.2      1.868      2.931
REMARK  Name = NuBBE_1352
REMARK  6 active torsions:
REMARK  status: ('A' for Active; 'I' for Inactive)
REMARK    1  A    between atoms: C_1  and  C_2
REMARK    2  A    between atoms: C_5  and  C_7
REMARK    3  A    between atoms: C_7  and  C_8
REMARK    4  A    between atoms: C_7  and  O_9
REMARK    5  A    between atoms: C_7  and  C_10
REMARK    6  A    between atoms: C_13  and  C_14
REMARK                            x       y       z     vdW  Elec       q    Type
REMARK                         _______ _______ _______ _____ _____    ______ ____
ROOT
ATOM      1  C   LIG A   1      -5.937  -0.600 127.701  0.00  0.00    +0.016 C 
ATOM      2  C   LIG A   1      -7.458  -0.689 127.964  0.00  0.00    -0.011 C 
ATOM      3  C   LIG A   1      -8.167  -1.253 126.722  0.00  0.00    -0.064 C 
ATOM      4  C   LIG A   1      -8.187  -0.295 125.539  0.00  0.00    +0.037 C 
ATOM      5  C   LIG A   1      -8.817   1.072 125.889  0.00  0.00    +0.024 C 
ATOM      6  C   LIG A   1      -8.060   1.674 127.092  0.00  0.00    +0.007 C 
ATOM      7  C   LIG A   1      -8.025   0.717 128.285  0.00  0.00    +0.011 C 
ATOM      8  C   LIG A   1      -8.706  -2.497 126.700  0.00  0.00    -0.073 C 
ATOM      9  C   LIG A   1      -9.480  -3.092 125.548  0.00  0.00    +0.039 C 
ATOM     10  C   LIG A   1      -8.583  -3.459 127.865  0.00  0.00    +0.030 C 
ATOM     11  C   LIG A   1      -7.560  -3.051 128.915  0.00  0.00    +0.005 C 
ATOM     12  C   LIG A   1      -7.690  -1.569 129.223  0.00  0.00    +0.011 C 
ENDROOT
BRANCH   5  13
ATOM     13  C   LIG A   1      -8.854   2.043 124.665  0.00  0.00    +0.064 C 
ATOM     14  C   LIG A   1      -9.869   1.589 123.605  0.00  0.00    +0.041 C 
ATOM     15  C   LIG A   1      -7.478   2.178 123.996  0.00  0.00    +0.041 C 
BRANCH  13  16
ATOM     16  O   LIG A   1      -9.248   3.342 125.115  0.00  0.00    -0.389 OA
ATOM     17  H   LIG A   1      -9.627   3.822 124.359  0.00  0.00    +0.210 HD
ENDBRANCH  13  16
ENDBRANCH   5  13
TORSDOF 2
ENDMDL
MODEL 6
REMARK VINA RESULT:      -6.0      4.832      7.561
REMARK  Name = NuBBE_1352
REMARK  6 active torsions:
REMARK  status: ('A' for Active; 'I' for Inactive)
REMARK    1  A    between atoms: C_1  and  C_2
REMARK    2  A    between atoms: C_5  and  C_7
REMARK    3  A    between atoms: C_7  and  C_8
REMARK    4  A    between atoms: C_7  and  O_9
REMARK    5  A    between atoms: C_7  and  C_10
REMARK    6  A    between atoms: C_13  and  C_14
REMARK                            x       y       z     vdW  Elec       q    Type
REMARK                         _______ _______ _______ _____ _____    ______ ____
ROOT
ATOM      1  C   LIG A   1      -6.752  -0.519 128.032  0.00  0.00    +0.016 C 
ATOM      2  C   LIG A   1      -6.571  -1.998 127.617  0.00  0.00    -0.011 C 
ATOM      3  C   LIG A   1      -7.606  -2.871 128.346  0.00  0.00    -0.064 C 
ATOM      4  C   LIG A   1      -7.347  -3.011 129.840  0.00  0.00    +0.037 C 
ATOM      5  C   LIG A   1      -5.935  -3.554 130.152  0.00  0.00    +0.024 C 
ATOM      6  C   LIG A   1      -4.891  -2.638 129.480  0.00  0.00    +0.007 C 
ATOM      7  C   LIG A   1      -5.145  -2.482 127.980  0.00  0.00    +0.011 C 
ATOM      8  C   LIG A   1      -8.653  -3.443 127.701  0.00  0.00    -0.073 C 
ATOM      9  C   LIG A   1      -9.665  -4.369 128.330  0.00  0.00    +0.039 C 
ATOM     10  C   LIG A   1      -8.933  -3.202 126.230  0.00  0.00    +0.030 C 
ATOM     11  C   LIG A   1      -8.154  -2.046 125.620  0.00  0.00    +0.005 C 
ATOM     12  C   LIG A   1      -6.704  -2.096 126.073  0.00  0.00    +0.011 C 
ENDROOT
BRANCH   5  13
ATOM     13  C   LIG A   1      -5.683  -3.717 131.686  0.00  0.00    +0.064 C 
ATOM     14  C   LIG A   1      -5.312  -5.161 132.055  0.00  0.00    +0.041 C 
ATOM     15  C   LIG A   1      -6.907  -3.302 132.517  0.00  0.00    +0.041 C 
BRANCH  13  16
ATOM     16  O   LIG A   1      -4.592  -2.876 132.069  0.00  0.00    -0.389 OA
ATOM     17  H   LIG A   1      -4.101  -2.632 131.266  0.00  0.00    +0.210 HD
ENDBRANCH  13  16
ENDBRANCH   5  13
TORSDOF 2
ENDMDL
MODEL 7
REMARK VINA RESULT:      -5.7      2.363      3.711
REMARK  Name = NuBBE_1352
REMARK  6 active torsions:
REMARK  status: ('A' for Active; 'I' for Inactive)
REMARK    1  A    between atoms: C_1  and  C_2
REMARK    2  A    between atoms: C_5  and  C_7
REMARK    3  A    between atoms: C_7  and  C_8
REMARK    4  A    between atoms: C_7  and  O_9
REMARK    5  A    between atoms: C_7  and  C_10
REMARK    6  A    between atoms: C_13  and  C_14
REMARK                            x       y       z     vdW  Elec       q    Type
REMARK                         _______ _______ _______ _____ _____    ______ ____
ROOT
ATOM      1  C   LIG A   1      -9.385   0.063 123.458  0.00  0.00    +0.016 C 
ATOM      2  C   LIG A   1      -8.259  -0.967 123.708  0.00  0.00    -0.011 C 
ATOM      3  C   LIG A   1      -8.270  -1.400 125.183  0.00  0.00    -0.064 C 
ATOM      4  C   LIG A   1      -7.813  -0.312 126.145  0.00  0.00    +0.037 C 
ATOM      5  C   LIG A   1      -6.410   0.236 125.802  0.00  0.00    +0.024 C 
ATOM      6  C   LIG A   1      -6.416   0.737 124.343  0.00  0.00    +0.007 C 
ATOM      7  C   LIG A   1      -6.883  -0.344 123.366  0.00  0.00    +0.011 C 
ATOM      8  C   LIG A   1      -8.668  -2.637 125.571  0.00  0.00    -0.073 C 
ATOM      9  C   LIG A   1      -8.637  -3.159 126.986  0.00  0.00    +0.039 C 
ATOM     10  C   LIG A   1      -9.208  -3.662 124.593  0.00  0.00    +0.030 C 
ATOM     11  C   LIG A   1      -9.561  -3.103 123.222  0.00  0.00    +0.005 C 
ATOM     12  C   LIG A   1      -8.466  -2.166 122.743  0.00  0.00    +0.011 C 
ENDROOT
BRANCH   5  13
ATOM     13  C   LIG A   1      -5.937   1.337 126.806  0.00  0.00    +0.064 C 
ATOM     14  C   LIG A   1      -7.071   1.784 127.741  0.00  0.00    +0.041 C 
ATOM     15  C   LIG A   1      -5.387   2.576 126.083  0.00  0.00    +0.041 C 
BRANCH  13  16
ATOM     16  O   LIG A   1      -4.888   0.805 127.619  0.00  0.00    -0.389 OA
ATOM     17  H   LIG A   1      -4.046   1.181 127.310  0.00  0.00    +0.210 HD
ENDBRANCH  13  16
ENDBRANCH   5  13
TORSDOF 2
ENDMDL
MODEL 8
REMARK VINA RESULT:      -5.7     16.527     18.646
REMARK  Name = NuBBE_1352
REMARK  6 active torsions:
REMARK  status: ('A' for Active; 'I' for Inactive)
REMARK    1  A    between atoms: C_1  and  C_2
REMARK    2  A    between atoms: C_5  and  C_7
REMARK    3  A    between atoms: C_7  and  C_8
REMARK    4  A    between atoms: C_7  and  O_9
REMARK    5  A    between atoms: C_7  and  C_10
REMARK    6  A    between atoms: C_13  and  C_14
REMARK                            x       y       z     vdW  Elec       q    Type
REMARK                         _______ _______ _______ _____ _____    ______ ____
ROOT
ATOM      1  C   LIG A   1      -5.133  10.074 140.158  0.00  0.00    +0.016 C 
ATOM      2  C   LIG A   1      -5.556  11.020 139.011  0.00  0.00    -0.011 C 
ATOM      3  C   LIG A   1      -6.949  11.601 139.304  0.00  0.00    -0.064 C 
ATOM      4  C   LIG A   1      -8.074  10.581 139.196  0.00  0.00    +0.037 C 
ATOM      5  C   LIG A   1      -8.112   9.878 137.821  0.00  0.00    +0.024 C 
ATOM      6  C   LIG A   1      -6.735   9.233 137.555  0.00  0.00    +0.007 C 
ATOM      7  C   LIG A   1      -5.595  10.246 137.670  0.00  0.00    +0.011 C 
ATOM      8  C   LIG A   1      -7.135  12.901 139.640  0.00  0.00    -0.073 C 
ATOM      9  C   LIG A   1      -8.472  13.561 139.869  0.00  0.00    +0.039 C 
ATOM     10  C   LIG A   1      -5.980  13.866 139.832  0.00  0.00    +0.030 C 
ATOM     11  C   LIG A   1      -4.614  13.203 139.929  0.00  0.00    +0.005 C 
ATOM     12  C   LIG A   1      -4.478  12.128 138.863  0.00  0.00    +0.011 C 
ENDROOT
BRANCH   5  13
ATOM     13  C   LIG A   1      -9.282   8.848 137.708  0.00  0.00    +0.064 C 
ATOM     14  C   LIG A   1     -10.483   9.248 138.579  0.00  0.00    +0.041 C 
ATOM     15  C   LIG A   1      -8.841   7.432 138.109  0.00  0.00    +0.041 C 
BRANCH  13  16
ATOM     16  O   LIG A   1      -9.727   8.797 136.350  0.00  0.00    -0.389 OA
ATOM     17  H   LIG A   1      -9.404   9.593 135.896  0.00  0.00    +0.210 HD
ENDBRANCH  13  16
ENDBRANCH   5  13
TORSDOF 2
ENDMDL
MODEL 9
REMARK VINA RESULT:      -5.7      2.335      5.135
REMARK  Name = NuBBE_1352
REMARK  6 active torsions:
REMARK  status: ('A' for Active; 'I' for Inactive)
REMARK    1  A    between atoms: C_1  and  C_2
REMARK    2  A    between atoms: C_5  and  C_7
REMARK    3  A    between atoms: C_7  and  C_8
REMARK    4  A    between atoms: C_7  and  O_9
REMARK    5  A    between atoms: C_7  and  C_10
REMARK    6  A    between atoms: C_13  and  C_14
REMARK                            x       y       z     vdW  Elec       q    Type
REMARK                         _______ _______ _______ _____ _____    ______ ____
ROOT
ATOM      1  C   LIG A   1      -6.938   2.125 126.992  0.00  0.00    +0.016 C 
ATOM      2  C   LIG A   1      -5.945   1.829 125.844  0.00  0.00    -0.011 C 
ATOM      3  C   LIG A   1      -6.672   1.931 124.493  0.00  0.00    -0.064 C 
ATOM      4  C   LIG A   1      -7.665   0.804 124.243  0.00  0.00    +0.037 C 
ATOM      5  C   LIG A   1      -7.019  -0.595 124.352  0.00  0.00    +0.024 C 
ATOM      6  C   LIG A   1      -6.349  -0.726 125.737  0.00  0.00    +0.007 C 
ATOM      7  C   LIG A   1      -5.355   0.406 126.003  0.00  0.00    +0.011 C 
ATOM      8  C   LIG A   1      -6.444   2.947 123.623  0.00  0.00    -0.073 C 
ATOM      9  C   LIG A   1      -7.060   3.077 122.252  0.00  0.00    +0.039 C 
ATOM     10  C   LIG A   1      -5.518   4.104 123.947  0.00  0.00    +0.030 C 
ATOM     11  C   LIG A   1      -5.120   4.201 125.413  0.00  0.00    +0.005 C 
ATOM     12  C   LIG A   1      -4.759   2.826 125.949  0.00  0.00    +0.011 C 
ENDROOT
BRANCH   5  13
ATOM     13  C   LIG A   1      -8.037  -1.747 124.074  0.00  0.00    +0.064 C 
ATOM     14  C   LIG A   1      -7.586  -3.074 124.704  0.00  0.00    +0.041 C 
ATOM     15  C   LIG A   1      -8.255  -1.971 122.570  0.00  0.00    +0.041 C 
BRANCH  13  16
ATOM     16  O   LIG A   1      -9.300  -1.400 124.649  0.00  0.00    -0.389 OA
ATOM     17  H   LIG A   1      -9.696  -2.207 125.019  0.00  0.00    +0.210 HD
ENDBRANCH  13  16
ENDBRANCH   5  13
TORSDOF 2
ENDMDL
