MODEL 1
REMARK VINA RESULT:      -9.1      0.000      0.000
REMARK  Name = NuBBE_2426
REMARK  9 active torsions:
REMARK  status: ('A' for Active; 'I' for Inactive)
REMARK    1  A    between atoms: O_1  and  C_2
REMARK    2  A    between atoms: C_4  and  C_36
REMARK    3  A    between atoms: C_6  and  C_35
REMARK    4  A    between atoms: C_9  and  C_32
REMARK    5  A    between atoms: C_12  and  C_29
REMARK    6  A    between atoms: C_13  and  C_28
REMARK    7  A    between atoms: C_16  and  C_25
REMARK    8  A    between atoms: C_21  and  C_23
REMARK    9  A    between atoms: C_21  and  C_24
REMARK                            x       y       z     vdW  Elec       q    Type
REMARK                         _______ _______ _______ _____ _____    ______ ____
ROOT
ATOM      1  C   LIG A   1      -7.365  -2.087 123.781  0.00  0.00    +0.118 C 
ATOM      2  C   LIG A   1      -8.139  -3.152 124.600  0.00  0.00    +0.021 C 
ATOM      3  C   LIG A   1      -8.031  -2.668 126.076  0.00  0.00    -0.024 C 
ATOM      4  C   LIG A   1      -6.344  -2.729 126.343  0.00  0.00    +0.002 C 
ATOM      5  C   LIG A   1      -5.812  -2.246 127.728  0.00  0.00    -0.025 C 
ATOM      6  C   LIG A   1      -7.220  -2.854 128.959  0.00  0.00    +0.002 C 
ATOM      7  C   LIG A   1      -7.218  -2.172 130.854  0.00  0.00    -0.023 C 
ATOM      8  C   LIG A   1      -5.153  -1.572 131.378  0.00  0.00    -0.023 C 
ATOM      9  C   LIG A   1      -5.583  -1.021 132.580  0.00  0.00    +0.002 C 
ATOM     10  C   LIG A   1      -5.862  -2.829 132.384  0.00  0.00    -0.029 C 
ATOM     11  C   LIG A   1      -7.226  -2.900 133.043  0.00  0.00    +0.007 C 
ATOM     12  C   LIG A   1      -7.890  -3.322 131.809  0.00  0.00    +0.008 C 
ATOM     13  C   LIG A   1      -5.604  -3.099 130.434  0.00  0.00    +0.007 C 
ATOM     14  C   LIG A   1      -6.010  -1.159 129.637  0.00  0.00    +0.007 C 
ATOM     15  C   LIG A   1      -6.468   0.341 130.062  0.00  0.00    -0.035 C 
ATOM     16  C   LIG A   1      -6.121   0.372 131.671  0.00  0.00    +0.011 C 
ATOM     17  C   LIG A   1      -7.822   0.523 128.955  0.00  0.00    +0.011 C 
ATOM     18  C   LIG A   1      -5.939   1.708 129.425  0.00  0.00    +0.011 C 
ATOM     19  C   LIG A   1      -5.293  -4.249 132.865  0.00  0.00    +0.011 C 
ATOM     20  C   LIG A   1      -3.880  -1.473 129.973  0.00  0.00    +0.008 C 
ATOM     21  C   LIG A   1      -4.225  -2.522 128.474  0.00  0.00    +0.008 C 
ATOM     22  C   LIG A   1      -3.659  -2.373 132.104  0.00  0.00    +0.012 C 
ATOM     23  C   LIG A   1      -8.495  -1.173 131.105  0.00  0.00    +0.012 C 
ATOM     24  C   LIG A   1      -8.665  -2.987 128.483  0.00  0.00    +0.005 C 
ATOM     25  C   LIG A   1      -8.680  -3.629 127.101  0.00  0.00    +0.007 C 
ATOM     26  C   LIG A   1      -5.067  -0.685 127.187  0.00  0.00    +0.012 C 
ATOM     27  C   LIG A   1      -5.472  -2.165 125.162  0.00  0.00    +0.007 C 
ATOM     28  C   LIG A   1      -5.924  -2.522 123.781  0.00  0.00    +0.032 C 
ATOM     29  C   LIG A   1      -9.008  -1.413 126.107  0.00  0.00    +0.012 C 
ATOM     30  C   LIG A   1      -9.504  -3.426 123.994  0.00  0.00    +0.010 C 
ENDROOT
BRANCH   1  31
ATOM     31  O   LIG A   1      -7.869  -1.796 122.502  0.00  0.00    -0.392 OA
ATOM     32  H   LIG A   1      -8.839  -1.757 122.623  0.00  0.00    +0.210 HD
ENDBRANCH   1  31
TORSDOF 1
ENDMDL
MODEL 2
REMARK VINA RESULT:      -8.9      7.003      9.895
REMARK  Name = NuBBE_2426
REMARK  9 active torsions:
REMARK  status: ('A' for Active; 'I' for Inactive)
REMARK    1  A    between atoms: O_1  and  C_2
REMARK    2  A    between atoms: C_4  and  C_36
REMARK    3  A    between atoms: C_6  and  C_35
REMARK    4  A    between atoms: C_9  and  C_32
REMARK    5  A    between atoms: C_12  and  C_29
REMARK    6  A    between atoms: C_13  and  C_28
REMARK    7  A    between atoms: C_16  and  C_25
REMARK    8  A    between atoms: C_21  and  C_23
REMARK    9  A    between atoms: C_21  and  C_24
REMARK                            x       y       z     vdW  Elec       q    Type
REMARK                         _______ _______ _______ _____ _____    ______ ____
ROOT
ATOM      1  C   LIG A   1      -9.513   3.385 132.213  0.00  0.00    +0.118 C 
ATOM      2  C   LIG A   1      -9.359   4.811 131.628  0.00  0.00    +0.021 C 
ATOM      3  C   LIG A   1      -7.823   5.073 131.627  0.00  0.00    -0.024 C 
ATOM      4  C   LIG A   1      -7.454   5.002 133.295  0.00  0.00    +0.002 C 
ATOM      5  C   LIG A   1      -5.960   5.157 133.713  0.00  0.00    -0.025 C 
ATOM      6  C   LIG A   1      -5.292   6.477 132.416  0.00  0.00    +0.002 C 
ATOM      7  C   LIG A   1      -3.306   6.780 132.271  0.00  0.00    -0.023 C 
ATOM      8  C   LIG A   1      -2.368   6.200 134.190  0.00  0.00    -0.023 C 
ATOM      9  C   LIG A   1      -1.095   6.354 133.652  0.00  0.00    +0.002 C 
ATOM     10  C   LIG A   1      -2.133   7.873 133.699  0.00  0.00    -0.029 C 
ATOM     11  C   LIG A   1      -1.715   8.448 132.360  0.00  0.00    +0.007 C 
ATOM     12  C   LIG A   1      -3.061   8.330 131.799  0.00  0.00    +0.008 C 
ATOM     13  C   LIG A   1      -3.950   7.147 134.029  0.00  0.00    +0.007 C 
ATOM     14  C   LIG A   1      -3.793   5.145 133.300  0.00  0.00    +0.007 C 
ATOM     15  C   LIG A   1      -2.768   4.111 132.578  0.00  0.00    -0.035 C 
ATOM     16  C   LIG A   1      -1.303   4.794 132.891  0.00  0.00    +0.011 C 
ATOM     17  C   LIG A   1      -3.788   3.631 131.229  0.00  0.00    +0.011 C 
ATOM     18  C   LIG A   1      -2.645   2.544 132.866  0.00  0.00    +0.011 C 
ATOM     19  C   LIG A   1      -2.312   9.249 134.503  0.00  0.00    +0.011 C 
ATOM     20  C   LIG A   1      -3.439   5.261 135.446  0.00  0.00    +0.008 C 
ATOM     21  C   LIG A   1      -5.278   5.514 135.313  0.00  0.00    +0.008 C 
ATOM     22  C   LIG A   1      -1.956   7.016 135.791  0.00  0.00    +0.012 C 
ATOM     23  C   LIG A   1      -2.745   6.221 130.834  0.00  0.00    +0.012 C 
ATOM     24  C   LIG A   1      -5.911   6.582 131.025  0.00  0.00    +0.005 C 
ATOM     25  C   LIG A   1      -7.428   6.488 131.144  0.00  0.00    +0.007 C 
ATOM     26  C   LIG A   1      -5.642   3.435 134.179  0.00  0.00    +0.012 C 
ATOM     27  C   LIG A   1      -8.151   3.824 134.070  0.00  0.00    +0.007 C 
ATOM     28  C   LIG A   1      -9.576   3.548 133.708  0.00  0.00    +0.032 C 
ATOM     29  C   LIG A   1      -7.308   4.143 130.444  0.00  0.00    +0.012 C 
ATOM     30  C   LIG A   1     -10.150   4.966 130.341  0.00  0.00    +0.010 C 
ENDROOT
BRANCH   1  31
ATOM     31  O   LIG A   1     -10.553   2.602 131.685  0.00  0.00    -0.392 OA
ATOM     32  H   LIG A   1     -10.188   2.238 130.852  0.00  0.00    +0.210 HD
ENDBRANCH   1  31
TORSDOF 1
ENDMDL
MODEL 3
REMARK VINA RESULT:      -8.7      6.387      9.375
REMARK  Name = NuBBE_2426
REMARK  9 active torsions:
REMARK  status: ('A' for Active; 'I' for Inactive)
REMARK    1  A    between atoms: O_1  and  C_2
REMARK    2  A    between atoms: C_4  and  C_36
REMARK    3  A    between atoms: C_6  and  C_35
REMARK    4  A    between atoms: C_9  and  C_32
REMARK    5  A    between atoms: C_12  and  C_29
REMARK    6  A    between atoms: C_13  and  C_28
REMARK    7  A    between atoms: C_16  and  C_25
REMARK    8  A    between atoms: C_21  and  C_23
REMARK    9  A    between atoms: C_21  and  C_24
REMARK                            x       y       z     vdW  Elec       q    Type
REMARK                         _______ _______ _______ _____ _____    ______ ____
ROOT
ATOM      1  C   LIG A   1     -11.179   6.082 130.378  0.00  0.00    +0.118 C 
ATOM      2  C   LIG A   1     -10.046   7.094 130.072  0.00  0.00    +0.021 C 
ATOM      3  C   LIG A   1      -8.753   6.410 130.607  0.00  0.00    -0.024 C 
ATOM      4  C   LIG A   1      -9.089   6.283 132.278  0.00  0.00    +0.002 C 
ATOM      5  C   LIG A   1      -8.030   5.574 133.178  0.00  0.00    -0.025 C 
ATOM      6  C   LIG A   1      -6.332   6.139 132.359  0.00  0.00    +0.002 C 
ATOM      7  C   LIG A   1      -4.631   5.213 132.911  0.00  0.00    -0.023 C 
ATOM      8  C   LIG A   1      -4.921   4.365 134.935  0.00  0.00    -0.023 C 
ATOM      9  C   LIG A   1      -3.702   3.701 134.867  0.00  0.00    +0.002 C 
ATOM     10  C   LIG A   1      -3.618   5.537 134.777  0.00  0.00    -0.029 C 
ATOM     11  C   LIG A   1      -2.520   5.641 133.737  0.00  0.00    +0.007 C 
ATOM     12  C   LIG A   1      -3.398   6.282 132.757  0.00  0.00    +0.008 C 
ATOM     13  C   LIG A   1      -5.500   6.038 134.395  0.00  0.00    +0.007 C 
ATOM     14  C   LIG A   1      -6.283   4.266 133.495  0.00  0.00    +0.007 C 
ATOM     15  C   LIG A   1      -5.866   2.770 133.015  0.00  0.00    -0.035 C 
ATOM     16  C   LIG A   1      -4.491   2.495 133.877  0.00  0.00    +0.011 C 
ATOM     17  C   LIG A   1      -6.441   2.859 131.356  0.00  0.00    +0.011 C 
ATOM     18  C   LIG A   1      -6.772   1.457 133.115  0.00  0.00    +0.011 C 
ATOM     19  C   LIG A   1      -3.236   6.823 135.655  0.00  0.00    +0.011 C 
ATOM     20  C   LIG A   1      -6.686   4.339 135.635  0.00  0.00    +0.008 C 
ATOM     21  C   LIG A   1      -7.864   5.604 134.944  0.00  0.00    +0.008 C 
ATOM     22  C   LIG A   1      -4.693   4.924 136.677  0.00  0.00    +0.012 C 
ATOM     23  C   LIG A   1      -4.043   4.309 131.674  0.00  0.00    +0.012 C 
ATOM     24  C   LIG A   1      -6.258   6.463 130.869  0.00  0.00    +0.005 C 
ATOM     25  C   LIG A   1      -7.481   7.281 130.473  0.00  0.00    +0.007 C 
ATOM     26  C   LIG A   1      -8.941   4.039 133.486  0.00  0.00    +0.012 C 
ATOM     27  C   LIG A   1     -10.548   5.805 132.618  0.00  0.00    +0.007 C 
ATOM     28  C   LIG A   1     -11.643   6.381 131.779  0.00  0.00    +0.032 C 
ATOM     29  C   LIG A   1      -8.499   5.256 129.542  0.00  0.00    +0.012 C 
ATOM     30  C   LIG A   1     -10.107   7.568 128.631  0.00  0.00    +0.010 C 
ENDROOT
BRANCH   1  31
ATOM     31  O   LIG A   1     -12.222   6.010 129.439  0.00  0.00    -0.392 OA
ATOM     32  H   LIG A   1     -11.922   6.571 128.695  0.00  0.00    +0.210 HD
ENDBRANCH   1  31
TORSDOF 1
ENDMDL
MODEL 4
REMARK VINA RESULT:      -8.5      4.896      8.628
REMARK  Name = NuBBE_2426
REMARK  9 active torsions:
REMARK  status: ('A' for Active; 'I' for Inactive)
REMARK    1  A    between atoms: O_1  and  C_2
REMARK    2  A    between atoms: C_4  and  C_36
REMARK    3  A    between atoms: C_6  and  C_35
REMARK    4  A    between atoms: C_9  and  C_32
REMARK    5  A    between atoms: C_12  and  C_29
REMARK    6  A    between atoms: C_13  and  C_28
REMARK    7  A    between atoms: C_16  and  C_25
REMARK    8  A    between atoms: C_21  and  C_23
REMARK    9  A    between atoms: C_21  and  C_24
REMARK                            x       y       z     vdW  Elec       q    Type
REMARK                         _______ _______ _______ _____ _____    ______ ____
ROOT
ATOM      1  C   LIG A   1      -1.366   6.313 131.586  0.00  0.00    +0.118 C 
ATOM      2  C   LIG A   1      -2.541   6.806 132.469  0.00  0.00    +0.021 C 
ATOM      3  C   LIG A   1      -3.538   5.609 132.502  0.00  0.00    -0.024 C 
ATOM      4  C   LIG A   1      -3.968   5.466 130.854  0.00  0.00    +0.002 C 
ATOM      5  C   LIG A   1      -4.931   4.306 130.455  0.00  0.00    -0.025 C 
ATOM      6  C   LIG A   1      -6.146   4.214 132.000  0.00  0.00    +0.002 C 
ATOM      7  C   LIG A   1      -7.379   2.631 132.176  0.00  0.00    -0.023 C 
ATOM      8  C   LIG A   1      -7.714   1.779 130.160  0.00  0.00    -0.023 C 
ATOM      9  C   LIG A   1      -8.389   0.689 130.697  0.00  0.00    +0.002 C 
ATOM     10  C   LIG A   1      -9.154   2.334 131.004  0.00  0.00    -0.029 C 
ATOM     11  C   LIG A   1      -9.606   2.087 132.430  0.00  0.00    +0.007 C 
ATOM     12  C   LIG A   1      -8.723   3.120 132.974  0.00  0.00    +0.008 C 
ATOM     13  C   LIG A   1      -7.683   3.587 130.553  0.00  0.00    +0.007 C 
ATOM     14  C   LIG A   1      -5.942   2.379 130.820  0.00  0.00    +0.007 C 
ATOM     15  C   LIG A   1      -5.457   0.897 131.278  0.00  0.00    -0.035 C 
ATOM     16  C   LIG A   1      -6.830   0.008 131.099  0.00  0.00    +0.011 C 
ATOM     17  C   LIG A   1      -4.290   1.373 132.504  0.00  0.00    +0.011 C 
ATOM     18  C   LIG A   1      -4.250   0.060 130.649  0.00  0.00    +0.011 C 
ATOM     19  C   LIG A   1     -10.370   3.264 130.527  0.00  0.00    +0.011 C 
ATOM     20  C   LIG A   1      -6.609   2.400 128.746  0.00  0.00    +0.008 C 
ATOM     21  C   LIG A   1      -5.868   4.094 128.963  0.00  0.00    +0.008 C 
ATOM     22  C   LIG A   1      -8.902   2.025 128.773  0.00  0.00    +0.012 C 
ATOM     23  C   LIG A   1      -6.929   1.692 133.444  0.00  0.00    +0.012 C 
ATOM     24  C   LIG A   1      -5.667   4.624 133.391  0.00  0.00    +0.005 C 
ATOM     25  C   LIG A   1      -4.843   5.901 133.279  0.00  0.00    +0.007 C 
ATOM     26  C   LIG A   1      -3.725   3.247 129.615  0.00  0.00    +0.012 C 
ATOM     27  C   LIG A   1      -2.764   5.587 129.849  0.00  0.00    +0.007 C 
ATOM     28  C   LIG A   1      -1.745   6.636 130.165  0.00  0.00    +0.032 C 
ATOM     29  C   LIG A   1      -2.798   4.560 133.442  0.00  0.00    +0.012 C 
ATOM     30  C   LIG A   1      -2.036   7.403 133.771  0.00  0.00    +0.010 C 
ENDROOT
BRANCH   1  31
ATOM     31  O   LIG A   1      -0.084   6.761 131.946  0.00  0.00    -0.392 OA
ATOM     32  H   LIG A   1       0.524   6.098 131.560  0.00  0.00    +0.210 HD
ENDBRANCH   1  31
TORSDOF 1
ENDMDL
MODEL 5
REMARK VINA RESULT:      -8.3      3.385      6.135
REMARK  Name = NuBBE_2426
REMARK  9 active torsions:
REMARK  status: ('A' for Active; 'I' for Inactive)
REMARK    1  A    between atoms: O_1  and  C_2
REMARK    2  A    between atoms: C_4  and  C_36
REMARK    3  A    between atoms: C_6  and  C_35
REMARK    4  A    between atoms: C_9  and  C_32
REMARK    5  A    between atoms: C_12  and  C_29
REMARK    6  A    between atoms: C_13  and  C_28
REMARK    7  A    between atoms: C_16  and  C_25
REMARK    8  A    between atoms: C_21  and  C_23
REMARK    9  A    between atoms: C_21  and  C_24
REMARK                            x       y       z     vdW  Elec       q    Type
REMARK                         _______ _______ _______ _____ _____    ______ ____
ROOT
ATOM      1  C   LIG A   1      -7.123  -1.767 127.656  0.00  0.00    +0.118 C 
ATOM      2  C   LIG A   1      -7.948  -0.589 127.082  0.00  0.00    +0.021 C 
ATOM      3  C   LIG A   1      -7.504   0.648 127.919  0.00  0.00    -0.024 C 
ATOM      4  C   LIG A   1      -7.999   0.203 129.493  0.00  0.00    +0.002 C 
ATOM      5  C   LIG A   1      -7.665   1.181 130.661  0.00  0.00    -0.025 C 
ATOM      6  C   LIG A   1      -7.885   2.943 129.813  0.00  0.00    +0.002 C 
ATOM      7  C   LIG A   1      -7.220   4.579 130.782  0.00  0.00    -0.023 C 
ATOM      8  C   LIG A   1      -7.173   4.136 132.950  0.00  0.00    -0.023 C 
ATOM      9  C   LIG A   1      -6.526   5.338 133.215  0.00  0.00    +0.002 C 
ATOM     10  C   LIG A   1      -8.201   5.479 132.467  0.00  0.00    -0.029 C 
ATOM     11  C   LIG A   1      -7.914   6.644 131.540  0.00  0.00    +0.007 C 
ATOM     12  C   LIG A   1      -8.153   5.849 130.335  0.00  0.00    +0.008 C 
ATOM     13  C   LIG A   1      -8.534   3.640 131.798  0.00  0.00    +0.007 C 
ATOM     14  C   LIG A   1      -6.558   2.867 131.555  0.00  0.00    +0.007 C 
ATOM     15  C   LIG A   1      -4.989   3.270 131.685  0.00  0.00    -0.035 C 
ATOM     16  C   LIG A   1      -5.044   4.578 132.681  0.00  0.00    +0.011 C 
ATOM     17  C   LIG A   1      -4.466   2.805 130.071  0.00  0.00    +0.011 C 
ATOM     18  C   LIG A   1      -3.807   2.322 132.193  0.00  0.00    +0.011 C 
ATOM     19  C   LIG A   1      -9.718   5.841 132.839  0.00  0.00    +0.011 C 
ATOM     20  C   LIG A   1      -7.411   2.330 133.486  0.00  0.00    +0.008 C 
ATOM     21  C   LIG A   1      -8.339   1.235 132.301  0.00  0.00    +0.008 C 
ATOM     22  C   LIG A   1      -8.330   4.269 134.379  0.00  0.00    +0.012 C 
ATOM     23  C   LIG A   1      -5.923   5.218 130.005  0.00  0.00    +0.012 C 
ATOM     24  C   LIG A   1      -7.640   3.121 128.317  0.00  0.00    +0.005 C 
ATOM     25  C   LIG A   1      -8.261   1.950 127.565  0.00  0.00    +0.007 C 
ATOM     26  C   LIG A   1      -6.352   0.209 131.444  0.00  0.00    +0.012 C 
ATOM     27  C   LIG A   1      -7.683  -1.288 129.882  0.00  0.00    +0.007 C 
ATOM     28  C   LIG A   1      -7.915  -2.311 128.815  0.00  0.00    +0.032 C 
ATOM     29  C   LIG A   1      -6.039   0.936 127.370  0.00  0.00    +0.012 C 
ATOM     30  C   LIG A   1      -7.862  -0.544 125.567  0.00  0.00    +0.010 C 
ENDROOT
BRANCH   1  31
ATOM     31  O   LIG A   1      -6.716  -2.750 126.739  0.00  0.00    -0.392 OA
ATOM     32  H   LIG A   1      -7.550  -3.082 126.349  0.00  0.00    +0.210 HD
ENDBRANCH   1  31
TORSDOF 1
ENDMDL
MODEL 6
REMARK VINA RESULT:      -8.3      5.494      9.379
REMARK  Name = NuBBE_2426
REMARK  9 active torsions:
REMARK  status: ('A' for Active; 'I' for Inactive)
REMARK    1  A    between atoms: O_1  and  C_2
REMARK    2  A    between atoms: C_4  and  C_36
REMARK    3  A    between atoms: C_6  and  C_35
REMARK    4  A    between atoms: C_9  and  C_32
REMARK    5  A    between atoms: C_12  and  C_29
REMARK    6  A    between atoms: C_13  and  C_28
REMARK    7  A    between atoms: C_16  and  C_25
REMARK    8  A    between atoms: C_21  and  C_23
REMARK    9  A    between atoms: C_21  and  C_24
REMARK                            x       y       z     vdW  Elec       q    Type
REMARK                         _______ _______ _______ _____ _____    ______ ____
ROOT
ATOM      1  C   LIG A   1      -3.198   7.228 134.148  0.00  0.00    +0.118 C 
ATOM      2  C   LIG A   1      -2.644   6.355 132.994  0.00  0.00    +0.021 C 
ATOM      3  C   LIG A   1      -3.908   5.880 132.217  0.00  0.00    -0.024 C 
ATOM      4  C   LIG A   1      -4.723   4.960 133.405  0.00  0.00    +0.002 C 
ATOM      5  C   LIG A   1      -6.107   4.349 133.023  0.00  0.00    -0.025 C 
ATOM      6  C   LIG A   1      -5.850   3.867 131.133  0.00  0.00    +0.002 C 
ATOM      7  C   LIG A   1      -7.458   3.361 130.031  0.00  0.00    -0.023 C 
ATOM      8  C   LIG A   1      -9.036   2.622 131.395  0.00  0.00    -0.023 C 
ATOM      9  C   LIG A   1      -9.959   2.575 130.356  0.00  0.00    +0.002 C 
ATOM     10  C   LIG A   1      -8.489   1.483 130.172  0.00  0.00    -0.029 C 
ATOM     11  C   LIG A   1      -8.275   1.676 128.684  0.00  0.00    +0.007 C 
ATOM     12  C   LIG A   1      -6.970   2.310 128.872  0.00  0.00    +0.008 C 
ATOM     13  C   LIG A   1      -7.239   2.206 131.533  0.00  0.00    +0.007 C 
ATOM     14  C   LIG A   1      -7.917   4.217 131.770  0.00  0.00    +0.007 C 
ATOM     15  C   LIG A   1      -9.009   5.284 131.214  0.00  0.00    -0.035 C 
ATOM     16  C   LIG A   1     -10.141   4.305 130.531  0.00  0.00    +0.011 C 
ATOM     17  C   LIG A   1      -7.908   6.592 130.801  0.00  0.00    +0.011 C 
ATOM     18  C   LIG A   1      -9.778   6.388 132.077  0.00  0.00    +0.011 C 
ATOM     19  C   LIG A   1      -8.044  -0.054 130.278  0.00  0.00    +0.011 C 
ATOM     20  C   LIG A   1      -8.784   2.884 133.259  0.00  0.00    +0.008 C 
ATOM     21  C   LIG A   1      -7.022   3.063 133.834  0.00  0.00    +0.008 C 
ATOM     22  C   LIG A   1      -9.543   1.005 132.122  0.00  0.00    +0.012 C 
ATOM     23  C   LIG A   1      -7.764   4.512 128.902  0.00  0.00    +0.012 C 
ATOM     24  C   LIG A   1      -4.876   4.651 130.257  0.00  0.00    +0.005 C 
ATOM     25  C   LIG A   1      -3.600   4.920 131.044  0.00  0.00    +0.007 C 
ATOM     26  C   LIG A   1      -7.155   5.448 134.010  0.00  0.00    +0.012 C 
ATOM     27  C   LIG A   1      -4.757   5.617 134.834  0.00  0.00    +0.007 C 
ATOM     28  C   LIG A   1      -3.496   6.284 135.282  0.00  0.00    +0.032 C 
ATOM     29  C   LIG A   1      -4.381   7.203 131.471  0.00  0.00    +0.012 C 
ATOM     30  C   LIG A   1      -1.528   7.070 132.252  0.00  0.00    +0.010 C 
ENDROOT
BRANCH   1  31
ATOM     31  O   LIG A   1      -2.419   8.335 134.523  0.00  0.00    -0.392 OA
ATOM     32  H   LIG A   1      -3.070   9.044 134.702  0.00  0.00    +0.210 HD
ENDBRANCH   1  31
TORSDOF 1
ENDMDL
MODEL 7
REMARK VINA RESULT:      -8.3      3.690      6.538
REMARK  Name = NuBBE_2426
REMARK  9 active torsions:
REMARK  status: ('A' for Active; 'I' for Inactive)
REMARK    1  A    between atoms: O_1  and  C_2
REMARK    2  A    between atoms: C_4  and  C_36
REMARK    3  A    between atoms: C_6  and  C_35
REMARK    4  A    between atoms: C_9  and  C_32
REMARK    5  A    between atoms: C_12  and  C_29
REMARK    6  A    between atoms: C_13  and  C_28
REMARK    7  A    between atoms: C_16  and  C_25
REMARK    8  A    between atoms: C_21  and  C_23
REMARK    9  A    between atoms: C_21  and  C_24
REMARK                            x       y       z     vdW  Elec       q    Type
REMARK                         _______ _______ _______ _____ _____    ______ ____
ROOT
ATOM      1  C   LIG A   1      -7.572  -2.185 129.148  0.00  0.00    +0.118 C 
ATOM      2  C   LIG A   1      -6.698  -2.066 130.422  0.00  0.00    +0.021 C 
ATOM      3  C   LIG A   1      -7.127  -0.716 131.069  0.00  0.00    -0.024 C 
ATOM      4  C   LIG A   1      -6.685   0.409 129.860  0.00  0.00    +0.002 C 
ATOM      5  C   LIG A   1      -7.019   1.911 130.112  0.00  0.00    -0.025 C 
ATOM      6  C   LIG A   1      -6.727   2.092 132.049  0.00  0.00    +0.002 C 
ATOM      7  C   LIG A   1      -7.367   3.759 132.979  0.00  0.00    -0.023 C 
ATOM      8  C   LIG A   1      -7.482   5.391 131.488  0.00  0.00    -0.023 C 
ATOM      9  C   LIG A   1      -8.100   6.231 132.407  0.00  0.00    +0.002 C 
ATOM     10  C   LIG A   1      -6.403   5.673 132.848  0.00  0.00    -0.029 C 
ATOM     11  C   LIG A   1      -6.633   5.475 134.334  0.00  0.00    +0.007 C 
ATOM     12  C   LIG A   1      -6.386   4.035 134.262  0.00  0.00    +0.008 C 
ATOM     13  C   LIG A   1      -6.108   4.157 131.603  0.00  0.00    +0.007 C 
ATOM     14  C   LIG A   1      -8.099   3.538 131.139  0.00  0.00    +0.007 C 
ATOM     15  C   LIG A   1      -9.658   3.846 131.478  0.00  0.00    -0.035 C 
ATOM     16  C   LIG A   1      -9.590   5.374 132.086  0.00  0.00    +0.011 C 
ATOM     17  C   LIG A   1     -10.153   2.219 131.928  0.00  0.00    +0.011 C 
ATOM     18  C   LIG A   1     -10.879   3.787 130.450  0.00  0.00    +0.011 C 
ATOM     19  C   LIG A   1      -4.886   6.189 132.909  0.00  0.00    +0.011 C 
ATOM     20  C   LIG A   1      -7.310   4.924 129.655  0.00  0.00    +0.008 C 
ATOM     21  C   LIG A   1      -6.385   3.350 129.290  0.00  0.00    +0.008 C 
ATOM     22  C   LIG A   1      -6.358   6.692 130.824  0.00  0.00    +0.012 C 
ATOM     23  C   LIG A   1      -8.624   3.413 133.975  0.00  0.00    +0.012 C 
ATOM     24  C   LIG A   1      -6.928   0.898 132.980  0.00  0.00    +0.005 C 
ATOM     25  C   LIG A   1      -6.323  -0.345 132.338  0.00  0.00    +0.007 C 
ATOM     26  C   LIG A   1      -8.379   2.075 128.926  0.00  0.00    +0.012 C 
ATOM     27  C   LIG A   1      -7.054  -0.027 128.394  0.00  0.00    +0.007 C 
ATOM     28  C   LIG A   1      -6.825  -1.465 128.057  0.00  0.00    +0.032 C 
ATOM     29  C   LIG A   1      -8.568  -1.048 131.654  0.00  0.00    +0.012 C 
ATOM     30  C   LIG A   1      -6.744  -3.344 131.241  0.00  0.00    +0.010 C 
ENDROOT
BRANCH   1  31
ATOM     31  O   LIG A   1      -7.984  -3.480 128.792  0.00  0.00    -0.392 OA
ATOM     32  H   LIG A   1      -7.525  -3.661 127.947  0.00  0.00    +0.210 HD
ENDBRANCH   1  31
TORSDOF 1
ENDMDL
MODEL 8
REMARK VINA RESULT:      -8.3      3.080      5.060
REMARK  Name = NuBBE_2426
REMARK  9 active torsions:
REMARK  status: ('A' for Active; 'I' for Inactive)
REMARK    1  A    between atoms: O_1  and  C_2
REMARK    2  A    between atoms: C_4  and  C_36
REMARK    3  A    between atoms: C_6  and  C_35
REMARK    4  A    between atoms: C_9  and  C_32
REMARK    5  A    between atoms: C_12  and  C_29
REMARK    6  A    between atoms: C_13  and  C_28
REMARK    7  A    between atoms: C_16  and  C_25
REMARK    8  A    between atoms: C_21  and  C_23
REMARK    9  A    between atoms: C_21  and  C_24
REMARK                            x       y       z     vdW  Elec       q    Type
REMARK                         _______ _______ _______ _____ _____    ______ ____
ROOT
ATOM      1  C   LIG A   1      -4.403   4.877 127.930  0.00  0.00    +0.118 C 
ATOM      2  C   LIG A   1      -4.210   3.635 127.024  0.00  0.00    +0.021 C 
ATOM      3  C   LIG A   1      -4.993   2.497 127.744  0.00  0.00    -0.024 C 
ATOM      4  C   LIG A   1      -4.146   2.370 129.223  0.00  0.00    +0.002 C 
ATOM      5  C   LIG A   1      -4.679   1.351 130.277  0.00  0.00    -0.025 C 
ATOM      6  C   LIG A   1      -5.308  -0.135 129.151  0.00  0.00    +0.002 C 
ATOM      7  C   LIG A   1      -6.432  -1.582 129.987  0.00  0.00    -0.023 C 
ATOM      8  C   LIG A   1      -5.993  -1.642 132.155  0.00  0.00    -0.023 C 
ATOM      9  C   LIG A   1      -7.025  -2.548 132.372  0.00  0.00    +0.002 C 
ATOM     10  C   LIG A   1      -5.671  -3.127 131.269  0.00  0.00    -0.029 C 
ATOM     11  C   LIG A   1      -6.530  -3.870 130.263  0.00  0.00    +0.007 C 
ATOM     12  C   LIG A   1      -6.161  -2.973 129.166  0.00  0.00    +0.008 C 
ATOM     13  C   LIG A   1      -4.724  -1.441 130.824  0.00  0.00    +0.007 C 
ATOM     14  C   LIG A   1      -6.234   0.038 131.129  0.00  0.00    +0.007 C 
ATOM     15  C   LIG A   1      -7.797   0.222 131.532  0.00  0.00    -0.035 C 
ATOM     16  C   LIG A   1      -8.135  -1.200 132.288  0.00  0.00    +0.011 C 
ATOM     17  C   LIG A   1      -8.309   1.191 130.155  0.00  0.00    +0.011 C 
ATOM     18  C   LIG A   1      -8.414   1.401 132.417  0.00  0.00    +0.011 C 
ATOM     19  C   LIG A   1      -4.392  -4.094 131.248  0.00  0.00    +0.011 C 
ATOM     20  C   LIG A   1      -4.976  -0.217 132.889  0.00  0.00    +0.008 C 
ATOM     21  C   LIG A   1      -3.861   0.692 131.708  0.00  0.00    +0.008 C 
ATOM     22  C   LIG A   1      -4.800  -2.503 133.266  0.00  0.00    +0.012 C 
ATOM     23  C   LIG A   1      -7.971  -1.511 129.420  0.00  0.00    +0.012 C 
ATOM     24  C   LIG A   1      -5.809   0.124 127.732  0.00  0.00    +0.005 C 
ATOM     25  C   LIG A   1      -4.881   1.120 127.047  0.00  0.00    +0.007 C 
ATOM     26  C   LIG A   1      -5.366   2.539 131.459  0.00  0.00    +0.012 C 
ATOM     27  C   LIG A   1      -3.777   3.747 129.887  0.00  0.00    +0.007 C 
ATOM     28  C   LIG A   1      -3.305   4.820 128.959  0.00  0.00    +0.032 C 
ATOM     29  C   LIG A   1      -6.511   2.896 127.486  0.00  0.00    +0.012 C 
ATOM     30  C   LIG A   1      -4.518   3.961 125.573  0.00  0.00    +0.010 C 
ENDROOT
BRANCH   1  31
ATOM     31  O   LIG A   1      -4.504   6.116 127.277  0.00  0.00    -0.392 OA
ATOM     32  H   LIG A   1      -4.725   6.751 127.989  0.00  0.00    +0.210 HD
ENDBRANCH   1  31
TORSDOF 1
ENDMDL
MODEL 9
REMARK VINA RESULT:      -8.2      3.642      6.842
REMARK  Name = NuBBE_2426
REMARK  9 active torsions:
REMARK  status: ('A' for Active; 'I' for Inactive)
REMARK    1  A    between atoms: O_1  and  C_2
REMARK    2  A    between atoms: C_4  and  C_36
REMARK    3  A    between atoms: C_6  and  C_35
REMARK    4  A    between atoms: C_9  and  C_32
REMARK    5  A    between atoms: C_12  and  C_29
REMARK    6  A    between atoms: C_13  and  C_28
REMARK    7  A    between atoms: C_16  and  C_25
REMARK    8  A    between atoms: C_21  and  C_23
REMARK    9  A    between atoms: C_21  and  C_24
REMARK                            x       y       z     vdW  Elec       q    Type
REMARK                         _______ _______ _______ _____ _____    ______ ____
ROOT
ATOM      1  C   LIG A   1      -3.136   5.996 131.060  0.00  0.00    +0.118 C 
ATOM      2  C   LIG A   1      -2.750   5.328 129.716  0.00  0.00    +0.021 C 
ATOM      3  C   LIG A   1      -3.762   4.155 129.555  0.00  0.00    -0.024 C 
ATOM      4  C   LIG A   1      -3.388   3.179 130.907  0.00  0.00    +0.002 C 
ATOM      5  C   LIG A   1      -4.252   1.902 131.139  0.00  0.00    -0.025 C 
ATOM      6  C   LIG A   1      -4.599   1.285 129.304  0.00  0.00    +0.002 C 
ATOM      7  C   LIG A   1      -5.986  -0.144 129.003  0.00  0.00    -0.023 C 
ATOM      8  C   LIG A   1      -6.198  -1.316 130.868  0.00  0.00    -0.023 C 
ATOM      9  C   LIG A   1      -7.292  -2.002 130.352  0.00  0.00    +0.002 C 
ATOM     10  C   LIG A   1      -5.706  -2.226 129.446  0.00  0.00    -0.029 C 
ATOM     11  C   LIG A   1      -6.271  -2.220 128.039  0.00  0.00    +0.007 C 
ATOM     12  C   LIG A   1      -5.557  -0.996 127.671  0.00  0.00    +0.008 C 
ATOM     13  C   LIG A   1      -4.589  -0.746 130.154  0.00  0.00    +0.007 C 
ATOM     14  C   LIG A   1      -6.049   0.662 130.823  0.00  0.00    +0.007 C 
ATOM     15  C   LIG A   1      -7.651   0.922 130.900  0.00  0.00    -0.035 C 
ATOM     16  C   LIG A   1      -8.262  -0.595 130.722  0.00  0.00    +0.011 C 
ATOM     17  C   LIG A   1      -7.694   2.507 130.139  0.00  0.00    +0.011 C 
ATOM     18  C   LIG A   1      -8.440   1.627 132.097  0.00  0.00    +0.011 C 
ATOM     19  C   LIG A   1      -4.525  -3.287 129.222  0.00  0.00    +0.011 C 
ATOM     20  C   LIG A   1      -5.369  -0.636 132.436  0.00  0.00    +0.008 C 
ATOM     21  C   LIG A   1      -3.917   0.498 132.173  0.00  0.00    +0.008 C 
ATOM     22  C   LIG A   1      -5.422  -2.810 131.618  0.00  0.00    +0.012 C 
ATOM     23  C   LIG A   1      -7.289   0.478 128.223  0.00  0.00    +0.012 C 
ATOM     24  C   LIG A   1      -4.654   2.280 128.147  0.00  0.00    +0.005 C 
ATOM     25  C   LIG A   1      -3.520   3.286 128.297  0.00  0.00    +0.007 C 
ATOM     26  C   LIG A   1      -5.194   2.485 132.573  0.00  0.00    +0.012 C 
ATOM     27  C   LIG A   1      -3.160   3.973 132.245  0.00  0.00    +0.007 C 
ATOM     28  C   LIG A   1      -2.387   5.249 132.132  0.00  0.00    +0.032 C 
ATOM     29  C   LIG A   1      -5.119   4.908 129.204  0.00  0.00    +0.012 C 
ATOM     30  C   LIG A   1      -2.607   6.359 128.611  0.00  0.00    +0.010 C 
ENDROOT
BRANCH   1  31
ATOM     31  O   LIG A   1      -2.983   7.391 131.131  0.00  0.00    -0.392 OA
ATOM     32  H   LIG A   1      -2.303   7.597 130.457  0.00  0.00    +0.210 HD
ENDBRANCH   1  31
TORSDOF 1
ENDMDL
