MODEL 1
REMARK VINA RESULT:      -6.8      0.000      0.000
REMARK  Name = NuBBE_1219
REMARK  15 active torsions:
REMARK  status: ('A' for Active; 'I' for Inactive)
REMARK    1  A    between atoms: C_3  and  O_4
REMARK    2  A    between atoms: O_4  and  C_5
REMARK    3  A    between atoms: C_6  and  C_7
REMARK    4  A    between atoms: C_10  and  O_11
REMARK    5  A    between atoms: O_11  and  C_12
REMARK    6  A    between atoms: C_13  and  O_14
REMARK    7  A    between atoms: O_14  and  C_15
REMARK    8  A    between atoms: C_20  and  O_21
REMARK    9  A    between atoms: O_21  and  C_22
REMARK   10  A    between atoms: C_23  and  O_24
REMARK   11  A    between atoms: O_24  and  C_25
REMARK   12  A    between atoms: C_26  and  O_27
REMARK   13  A    between atoms: O_27  and  C_28
REMARK   14  A    between atoms: C_29  and  O_30
REMARK   15  A    between atoms: O_30  and  C_31
REMARK                            x       y       z     vdW  Elec       q    Type
REMARK                         _______ _______ _______ _____ _____    ______ ____
ROOT
ATOM      1  O   LIG A   1      -8.895   2.443 132.471  0.00  0.00    -0.283 OA
ATOM      2  C   LIG A   1      -8.729   3.437 131.705  0.00  0.00    +0.238 A 
ATOM      3  C   LIG A   1      -9.564   4.622 131.756  0.00  0.00    +0.211 A 
ATOM      4  C   LIG A   1     -10.029   4.863 130.500  0.00  0.00    +0.181 A 
ATOM      5  O   LIG A   1      -9.668   4.057 129.389  0.00  0.00    -0.447 OA
ATOM      6  C   LIG A   1      -7.736   3.452 130.639  0.00  0.00    +0.117 A 
ATOM      7  C   LIG A   1      -8.345   3.632 129.398  0.00  0.00    +0.188 A 
ATOM      8  C   LIG A   1      -7.595   3.526 128.221  0.00  0.00    +0.209 A 
ATOM      9  C   LIG A   1      -6.174   3.579 128.318  0.00  0.00    +0.211 A 
ATOM     10  C   LIG A   1      -5.591   3.716 129.610  0.00  0.00    +0.208 A 
ATOM     11  C   LIG A   1      -6.359   3.554 130.768  0.00  0.00    +0.180 A 
ENDROOT
BRANCH   4  12
ATOM     12  C   LIG A   1     -10.809   6.034 130.125  0.00  0.00    +0.025 A 
ATOM     13  C   LIG A   1     -11.829   6.445 130.967  0.00  0.00    +0.015 A 
ATOM     14  C   LIG A   1     -12.594   7.549 130.624  0.00  0.00    +0.050 A 
ATOM     15  C   LIG A   1     -12.358   8.308 129.454  0.00  0.00    +0.162 A 
ATOM     16  C   LIG A   1     -11.274   7.944 128.636  0.00  0.00    +0.162 A 
ATOM     17  C   LIG A   1     -10.535   6.789 128.981  0.00  0.00    +0.061 A 
BRANCH  15  18
ATOM     18  O   LIG A   1     -13.191   9.360 129.143  0.00  0.00    -0.491 OA
ATOM     19  C   LIG A   1     -13.216  10.398 130.141  0.00  0.00    +0.277 C 
ENDBRANCH  15  18
BRANCH  16  20
ATOM     20  O   LIG A   1     -10.789   8.454 127.467  0.00  0.00    -0.491 OA
ATOM     21  C   LIG A   1     -10.880   7.819 126.209  0.00  0.00    +0.277 C 
ENDBRANCH  16  20
ENDBRANCH   4  12
BRANCH   3  22
ATOM     22  O   LIG A   1      -9.728   5.423 132.872  0.00  0.00    -0.488 OA
ATOM     23  C   LIG A   1      -8.567   5.814 133.624  0.00  0.00    +0.277 C 
ENDBRANCH   3  22
BRANCH   8  24
ATOM     24  O   LIG A   1      -8.357   3.539 127.079  0.00  0.00    -0.488 OA
ATOM     25  C   LIG A   1      -8.250   4.666 126.216  0.00  0.00    +0.277 C 
ENDBRANCH   8  24
BRANCH   9  26
ATOM     26  O   LIG A   1      -5.426   3.529 127.159  0.00  0.00    -0.488 OA
ATOM     27  C   LIG A   1      -4.871   2.266 126.756  0.00  0.00    +0.277 C 
ENDBRANCH   9  26
BRANCH  10  28
ATOM     28  O   LIG A   1      -4.328   4.273 129.731  0.00  0.00    -0.488 OA
ATOM     29  C   LIG A   1      -4.161   5.683 129.527  0.00  0.00    +0.277 C 
ENDBRANCH  10  28
BRANCH  11  30
ATOM     30  O   LIG A   1      -5.620   3.628 131.910  0.00  0.00    -0.490 OA
ATOM     31  C   LIG A   1      -5.266   2.437 132.532  0.00  0.00    +0.277 C 
ENDBRANCH  11  30
TORSDOF 8
ENDMDL
MODEL 2
REMARK VINA RESULT:      -6.6      5.504      9.808
REMARK  Name = NuBBE_1219
REMARK  15 active torsions:
REMARK  status: ('A' for Active; 'I' for Inactive)
REMARK    1  A    between atoms: C_3  and  O_4
REMARK    2  A    between atoms: O_4  and  C_5
REMARK    3  A    between atoms: C_6  and  C_7
REMARK    4  A    between atoms: C_10  and  O_11
REMARK    5  A    between atoms: O_11  and  C_12
REMARK    6  A    between atoms: C_13  and  O_14
REMARK    7  A    between atoms: O_14  and  C_15
REMARK    8  A    between atoms: C_20  and  O_21
REMARK    9  A    between atoms: O_21  and  C_22
REMARK   10  A    between atoms: C_23  and  O_24
REMARK   11  A    between atoms: O_24  and  C_25
REMARK   12  A    between atoms: C_26  and  O_27
REMARK   13  A    between atoms: O_27  and  C_28
REMARK   14  A    between atoms: C_29  and  O_30
REMARK   15  A    between atoms: O_30  and  C_31
REMARK                            x       y       z     vdW  Elec       q    Type
REMARK                         _______ _______ _______ _____ _____    ______ ____
ROOT
ATOM      1  O   LIG A   1      -4.936   2.010 126.024  0.00  0.00    -0.283 OA
ATOM      2  C   LIG A   1      -5.653   1.019 126.351  0.00  0.00    +0.238 A 
ATOM      3  C   LIG A   1      -5.642   0.442 127.681  0.00  0.00    +0.211 A 
ATOM      4  C   LIG A   1      -5.419  -0.895 127.558  0.00  0.00    +0.181 A 
ATOM      5  O   LIG A   1      -5.274  -1.528 126.296  0.00  0.00    -0.447 OA
ATOM      6  C   LIG A   1      -6.494   0.307 125.398  0.00  0.00    +0.117 A 
ATOM      7  C   LIG A   1      -6.117  -1.032 125.309  0.00  0.00    +0.188 A 
ATOM      8  C   LIG A   1      -6.693  -1.865 124.342  0.00  0.00    +0.209 A 
ATOM      9  C   LIG A   1      -7.887  -1.429 123.699  0.00  0.00    +0.211 A 
ATOM     10  C   LIG A   1      -8.424  -0.160 124.060  0.00  0.00    +0.208 A 
ATOM     11  C   LIG A   1      -7.681   0.744 124.828  0.00  0.00    +0.180 A 
ENDROOT
BRANCH   4  12
ATOM     12  C   LIG A   1      -5.453  -1.838 128.667  0.00  0.00    +0.025 A 
ATOM     13  C   LIG A   1      -6.537  -2.694 128.773  0.00  0.00    +0.015 A 
ATOM     14  C   LIG A   1      -6.598  -3.590 129.829  0.00  0.00    +0.050 A 
ATOM     15  C   LIG A   1      -5.575  -3.698 130.799  0.00  0.00    +0.162 A 
ATOM     16  C   LIG A   1      -4.435  -2.889 130.652  0.00  0.00    +0.162 A 
ATOM     17  C   LIG A   1      -4.414  -1.951 129.594  0.00  0.00    +0.061 A 
BRANCH  15  18
ATOM     18  O   LIG A   1      -5.724  -4.571 131.854  0.00  0.00    -0.491 OA
ATOM     19  C   LIG A   1      -6.262  -3.960 133.043  0.00  0.00    +0.277 C 
ENDBRANCH  15  18
BRANCH  16  20
ATOM     20  O   LIG A   1      -3.299  -2.753 131.396  0.00  0.00    -0.491 OA
ATOM     21  C   LIG A   1      -3.114  -1.798 132.421  0.00  0.00    +0.277 C 
ENDBRANCH  16  20
ENDBRANCH   4  12
BRANCH   3  22
ATOM     22  O   LIG A   1      -5.946   1.131 128.842  0.00  0.00    -0.488 OA
ATOM     23  C   LIG A   1      -7.309   1.515 129.086  0.00  0.00    +0.277 C 
ENDBRANCH   3  22
BRANCH   8  24
ATOM     24  O   LIG A   1      -6.094  -3.096 124.249  0.00  0.00    -0.488 OA
ATOM     25  C   LIG A   1      -4.985  -3.237 123.368  0.00  0.00    +0.277 C 
ENDBRANCH   8  24
BRANCH   9  26
ATOM     26  O   LIG A   1      -8.493  -2.266 122.783  0.00  0.00    -0.488 OA
ATOM     27  C   LIG A   1      -9.449  -3.226 123.260  0.00  0.00    +0.277 C 
ENDBRANCH   9  26
BRANCH  10  28
ATOM     28  O   LIG A   1      -9.776   0.084 123.884  0.00  0.00    -0.488 OA
ATOM     29  C   LIG A   1     -10.241   0.573 122.618  0.00  0.00    +0.277 C 
ENDBRANCH  10  28
BRANCH  11  30
ATOM     30  O   LIG A   1      -8.310   1.940 124.998  0.00  0.00    -0.490 OA
ATOM     31  C   LIG A   1      -7.896   3.009 124.214  0.00  0.00    +0.277 C 
ENDBRANCH  11  30
TORSDOF 8
ENDMDL
MODEL 3
REMARK VINA RESULT:      -6.6      2.776      6.559
REMARK  Name = NuBBE_1219
REMARK  15 active torsions:
REMARK  status: ('A' for Active; 'I' for Inactive)
REMARK    1  A    between atoms: C_3  and  O_4
REMARK    2  A    between atoms: O_4  and  C_5
REMARK    3  A    between atoms: C_6  and  C_7
REMARK    4  A    between atoms: C_10  and  O_11
REMARK    5  A    between atoms: O_11  and  C_12
REMARK    6  A    between atoms: C_13  and  O_14
REMARK    7  A    between atoms: O_14  and  C_15
REMARK    8  A    between atoms: C_20  and  O_21
REMARK    9  A    between atoms: O_21  and  C_22
REMARK   10  A    between atoms: C_23  and  O_24
REMARK   11  A    between atoms: O_24  and  C_25
REMARK   12  A    between atoms: C_26  and  O_27
REMARK   13  A    between atoms: O_27  and  C_28
REMARK   14  A    between atoms: C_29  and  O_30
REMARK   15  A    between atoms: O_30  and  C_31
REMARK                            x       y       z     vdW  Elec       q    Type
REMARK                         _______ _______ _______ _____ _____    ______ ____
ROOT
ATOM      1  O   LIG A   1      -5.186   5.347 128.113  0.00  0.00    -0.283 OA
ATOM      2  C   LIG A   1      -5.900   4.302 128.093  0.00  0.00    +0.238 A 
ATOM      3  C   LIG A   1      -6.192   3.568 126.877  0.00  0.00    +0.211 A 
ATOM      4  C   LIG A   1      -7.542   3.416 126.792  0.00  0.00    +0.181 A 
ATOM      5  O   LIG A   1      -8.425   3.894 127.794  0.00  0.00    -0.447 OA
ATOM      6  C   LIG A   1      -6.569   3.782 129.279  0.00  0.00    +0.117 A 
ATOM      7  C   LIG A   1      -7.950   3.745 129.091  0.00  0.00    +0.188 A 
ATOM      8  C   LIG A   1      -8.799   3.423 130.157  0.00  0.00    +0.209 A 
ATOM      9  C   LIG A   1      -8.231   2.809 131.311  0.00  0.00    +0.211 A 
ATOM     10  C   LIG A   1      -6.827   2.573 131.329  0.00  0.00    +0.208 A 
ATOM     11  C   LIG A   1      -5.988   3.144 130.365  0.00  0.00    +0.180 A 
ENDROOT
BRANCH   4  12
ATOM     12  C   LIG A   1      -8.215   2.630 125.766  0.00  0.00    +0.025 A 
ATOM     13  C   LIG A   1      -8.757   1.406 126.122  0.00  0.00    +0.015 A 
ATOM     14  C   LIG A   1      -9.390   0.634 125.160  0.00  0.00    +0.050 A 
ATOM     15  C   LIG A   1      -9.542   1.059 123.819  0.00  0.00    +0.162 A 
ATOM     16  C   LIG A   1      -9.066   2.335 123.471  0.00  0.00    +0.162 A 
ATOM     17  C   LIG A   1      -8.384   3.086 124.456  0.00  0.00    +0.061 A 
BRANCH  15  18
ATOM     18  O   LIG A   1     -10.132   0.220 122.900  0.00  0.00    -0.491 OA
ATOM     19  C   LIG A   1      -9.451  -1.039 122.739  0.00  0.00    +0.277 C 
ENDBRANCH  15  18
BRANCH  16  20
ATOM     20  O   LIG A   1      -9.056   3.025 122.294  0.00  0.00    -0.491 OA
ATOM     21  C   LIG A   1      -7.891   3.412 121.594  0.00  0.00    +0.277 C 
ENDBRANCH  16  20
ENDBRANCH   4  12
BRANCH   3  22
ATOM     22  O   LIG A   1      -5.237   3.014 126.041  0.00  0.00    -0.488 OA
ATOM     23  C   LIG A   1      -4.125   2.316 126.624  0.00  0.00    +0.277 C 
ENDBRANCH   3  22
BRANCH   8  24
ATOM     24  O   LIG A   1     -10.129   3.609 129.877  0.00  0.00    -0.488 OA
ATOM     25  C   LIG A   1     -10.772   4.761 130.412  0.00  0.00    +0.277 C 
ENDBRANCH   8  24
BRANCH   9  26
ATOM     26  O   LIG A   1      -9.067   2.439 132.346  0.00  0.00    -0.488 OA
ATOM     27  C   LIG A   1      -9.144   3.289 133.501  0.00  0.00    +0.277 C 
ENDBRANCH   9  26
BRANCH  10  28
ATOM     28  O   LIG A   1      -6.315   1.567 132.132  0.00  0.00    -0.488 OA
ATOM     29  C   LIG A   1      -6.510   0.198 131.750  0.00  0.00    +0.277 C 
ENDBRANCH  10  28
BRANCH  11  30
ATOM     30  O   LIG A   1      -4.670   2.889 130.589  0.00  0.00    -0.490 OA
ATOM     31  C   LIG A   1      -3.902   3.895 131.162  0.00  0.00    +0.277 C 
ENDBRANCH  11  30
TORSDOF 8
ENDMDL
MODEL 4
REMARK VINA RESULT:      -6.3      4.628      9.066
REMARK  Name = NuBBE_1219
REMARK  15 active torsions:
REMARK  status: ('A' for Active; 'I' for Inactive)
REMARK    1  A    between atoms: C_3  and  O_4
REMARK    2  A    between atoms: O_4  and  C_5
REMARK    3  A    between atoms: C_6  and  C_7
REMARK    4  A    between atoms: C_10  and  O_11
REMARK    5  A    between atoms: O_11  and  C_12
REMARK    6  A    between atoms: C_13  and  O_14
REMARK    7  A    between atoms: O_14  and  C_15
REMARK    8  A    between atoms: C_20  and  O_21
REMARK    9  A    between atoms: O_21  and  C_22
REMARK   10  A    between atoms: C_23  and  O_24
REMARK   11  A    between atoms: O_24  and  C_25
REMARK   12  A    between atoms: C_26  and  O_27
REMARK   13  A    between atoms: O_27  and  C_28
REMARK   14  A    between atoms: C_29  and  O_30
REMARK   15  A    between atoms: O_30  and  C_31
REMARK                            x       y       z     vdW  Elec       q    Type
REMARK                         _______ _______ _______ _____ _____    ______ ____
ROOT
ATOM      1  O   LIG A   1     -10.077   0.195 125.114  0.00  0.00    -0.283 OA
ATOM      2  C   LIG A   1      -8.941   0.134 125.669  0.00  0.00    +0.238 A 
ATOM      3  C   LIG A   1      -8.392  -1.093 126.212  0.00  0.00    +0.211 A 
ATOM      4  C   LIG A   1      -8.016  -0.852 127.498  0.00  0.00    +0.181 A 
ATOM      5  O   LIG A   1      -8.144   0.426 128.100  0.00  0.00    -0.447 OA
ATOM      6  C   LIG A   1      -8.110   1.310 125.892  0.00  0.00    +0.117 A 
ATOM      7  C   LIG A   1      -7.858   1.488 127.251  0.00  0.00    +0.188 A 
ATOM      8  C   LIG A   1      -7.207   2.642 127.704  0.00  0.00    +0.209 A 
ATOM      9  C   LIG A   1      -6.512   3.443 126.752  0.00  0.00    +0.211 A 
ATOM     10  C   LIG A   1      -6.533   3.039 125.387  0.00  0.00    +0.208 A 
ATOM     11  C   LIG A   1      -7.406   2.039 124.944  0.00  0.00    +0.180 A 
ENDROOT
BRANCH   4  12
ATOM     12  C   LIG A   1      -7.315  -1.811 128.341  0.00  0.00    +0.025 A 
ATOM     13  C   LIG A   1      -8.063  -2.719 129.072  0.00  0.00    +0.015 A 
ATOM     14  C   LIG A   1      -7.418  -3.632 129.892  0.00  0.00    +0.050 A 
ATOM     15  C   LIG A   1      -6.010  -3.705 129.993  0.00  0.00    +0.162 A 
ATOM     16  C   LIG A   1      -5.243  -2.841 129.193  0.00  0.00    +0.162 A 
ATOM     17  C   LIG A   1      -5.921  -1.888 128.398  0.00  0.00    +0.061 A 
BRANCH  15  18
ATOM     18  O   LIG A   1      -5.434  -4.598 130.869  0.00  0.00    -0.491 OA
ATOM     19  C   LIG A   1      -5.224  -4.065 132.191  0.00  0.00    +0.277 C 
ENDBRANCH  15  18
BRANCH  16  20
ATOM     20  O   LIG A   1      -3.897  -2.661 129.058  0.00  0.00    -0.491 OA
ATOM     21  C   LIG A   1      -2.942  -3.701 129.019  0.00  0.00    +0.277 C 
ENDBRANCH  16  20
ENDBRANCH   4  12
BRANCH   3  22
ATOM     22  O   LIG A   1      -8.174  -2.250 125.484  0.00  0.00    -0.488 OA
ATOM     23  C   LIG A   1      -7.272  -2.208 124.366  0.00  0.00    +0.277 C 
ENDBRANCH   3  22
BRANCH   8  24
ATOM     24  O   LIG A   1      -7.197   2.768 129.071  0.00  0.00    -0.488 OA
ATOM     25  C   LIG A   1      -8.174   3.609 129.673  0.00  0.00    +0.277 C 
ENDBRANCH   8  24
BRANCH   9  26
ATOM     26  O   LIG A   1      -5.822   4.553 127.196  0.00  0.00    -0.488 OA
ATOM     27  C   LIG A   1      -4.479   4.377 127.678  0.00  0.00    +0.277 C 
ENDBRANCH   9  26
BRANCH  10  28
ATOM     28  O   LIG A   1      -5.511   3.440 124.542  0.00  0.00    -0.488 OA
ATOM     29  C   LIG A   1      -5.627   4.687 123.844  0.00  0.00    +0.277 C 
ENDBRANCH  10  28
BRANCH  11  30
ATOM     30  O   LIG A   1      -7.356   1.848 123.597  0.00  0.00    -0.490 OA
ATOM     31  C   LIG A   1      -8.373   2.397 122.825  0.00  0.00    +0.277 C 
ENDBRANCH  11  30
TORSDOF 8
ENDMDL
MODEL 5
REMARK VINA RESULT:      -6.2      2.897      6.553
REMARK  Name = NuBBE_1219
REMARK  15 active torsions:
REMARK  status: ('A' for Active; 'I' for Inactive)
REMARK    1  A    between atoms: C_3  and  O_4
REMARK    2  A    between atoms: O_4  and  C_5
REMARK    3  A    between atoms: C_6  and  C_7
REMARK    4  A    between atoms: C_10  and  O_11
REMARK    5  A    between atoms: O_11  and  C_12
REMARK    6  A    between atoms: C_13  and  O_14
REMARK    7  A    between atoms: O_14  and  C_15
REMARK    8  A    between atoms: C_20  and  O_21
REMARK    9  A    between atoms: O_21  and  C_22
REMARK   10  A    between atoms: C_23  and  O_24
REMARK   11  A    between atoms: O_24  and  C_25
REMARK   12  A    between atoms: C_26  and  O_27
REMARK   13  A    between atoms: O_27  and  C_28
REMARK   14  A    between atoms: C_29  and  O_30
REMARK   15  A    between atoms: O_30  and  C_31
REMARK                            x       y       z     vdW  Elec       q    Type
REMARK                         _______ _______ _______ _____ _____    ______ ____
ROOT
ATOM      1  O   LIG A   1      -3.358   3.812 125.696  0.00  0.00    -0.283 OA
ATOM      2  C   LIG A   1      -4.599   3.816 125.945  0.00  0.00    +0.238 A 
ATOM      3  C   LIG A   1      -5.157   4.352 127.172  0.00  0.00    +0.211 A 
ATOM      4  C   LIG A   1      -5.956   3.398 127.723  0.00  0.00    +0.181 A 
ATOM      5  O   LIG A   1      -6.174   2.139 127.105  0.00  0.00    -0.447 OA
ATOM      6  C   LIG A   1      -5.582   3.203 125.061  0.00  0.00    +0.117 A 
ATOM      7  C   LIG A   1      -6.281   2.195 125.721  0.00  0.00    +0.188 A 
ATOM      8  C   LIG A   1      -7.168   1.372 125.016  0.00  0.00    +0.209 A 
ATOM      9  C   LIG A   1      -7.597   1.793 123.724  0.00  0.00    +0.211 A 
ATOM     10  C   LIG A   1      -7.088   3.019 123.209  0.00  0.00    +0.208 A 
ATOM     11  C   LIG A   1      -6.014   3.668 123.827  0.00  0.00    +0.180 A 
ENDROOT
BRANCH   4  12
ATOM     12  C   LIG A   1      -6.784   3.604 128.904  0.00  0.00    +0.025 A 
ATOM     13  C   LIG A   1      -6.211   3.420 130.151  0.00  0.00    +0.015 A 
ATOM     14  C   LIG A   1      -6.983   3.596 131.289  0.00  0.00    +0.050 A 
ATOM     15  C   LIG A   1      -8.339   3.993 131.238  0.00  0.00    +0.162 A 
ATOM     16  C   LIG A   1      -8.904   4.259 129.978  0.00  0.00    +0.162 A 
ATOM     17  C   LIG A   1      -8.112   4.030 128.829  0.00  0.00    +0.061 A 
BRANCH  15  18
ATOM     18  O   LIG A   1      -9.066   4.095 132.404  0.00  0.00    -0.491 OA
ATOM     19  C   LIG A   1      -9.181   2.856 133.129  0.00  0.00    +0.277 C 
ENDBRANCH  15  18
BRANCH  16  20
ATOM     20  O   LIG A   1     -10.153   4.648 129.592  0.00  0.00    -0.491 OA
ATOM     21  C   LIG A   1     -10.776   5.859 129.969  0.00  0.00    +0.277 C 
ENDBRANCH  16  20
ENDBRANCH   4  12
BRANCH   3  22
ATOM     22  O   LIG A   1      -4.996   5.656 127.607  0.00  0.00    -0.488 OA
ATOM     23  C   LIG A   1      -3.847   5.986 128.404  0.00  0.00    +0.277 C 
ENDBRANCH   3  22
BRANCH   8  24
ATOM     24  O   LIG A   1      -7.638   0.312 125.750  0.00  0.00    -0.488 OA
ATOM     25  C   LIG A   1      -7.026  -0.959 125.558  0.00  0.00    +0.277 C 
ENDBRANCH   8  24
BRANCH   9  26
ATOM     26  O   LIG A   1      -8.513   1.016 123.042  0.00  0.00    -0.488 OA
ATOM     27  C   LIG A   1      -9.911   1.217 123.305  0.00  0.00    +0.277 C 
ENDBRANCH   9  26
BRANCH  10  28
ATOM     28  O   LIG A   1      -7.816   3.713 122.257  0.00  0.00    -0.488 OA
ATOM     29  C   LIG A   1      -7.532   3.503 120.866  0.00  0.00    +0.277 C 
ENDBRANCH  10  28
BRANCH  11  30
ATOM     30  O   LIG A   1      -5.599   4.774 123.148  0.00  0.00    -0.490 OA
ATOM     31  C   LIG A   1      -4.520   4.638 122.284  0.00  0.00    +0.277 C 
ENDBRANCH  11  30
TORSDOF 8
ENDMDL
MODEL 6
REMARK VINA RESULT:      -6.2      2.933      7.023
REMARK  Name = NuBBE_1219
REMARK  15 active torsions:
REMARK  status: ('A' for Active; 'I' for Inactive)
REMARK    1  A    between atoms: C_3  and  O_4
REMARK    2  A    between atoms: O_4  and  C_5
REMARK    3  A    between atoms: C_6  and  C_7
REMARK    4  A    between atoms: C_10  and  O_11
REMARK    5  A    between atoms: O_11  and  C_12
REMARK    6  A    between atoms: C_13  and  O_14
REMARK    7  A    between atoms: O_14  and  C_15
REMARK    8  A    between atoms: C_20  and  O_21
REMARK    9  A    between atoms: O_21  and  C_22
REMARK   10  A    between atoms: C_23  and  O_24
REMARK   11  A    between atoms: O_24  and  C_25
REMARK   12  A    between atoms: C_26  and  O_27
REMARK   13  A    between atoms: O_27  and  C_28
REMARK   14  A    between atoms: C_29  and  O_30
REMARK   15  A    between atoms: O_30  and  C_31
REMARK                            x       y       z     vdW  Elec       q    Type
REMARK                         _______ _______ _______ _____ _____    ______ ____
ROOT
ATOM      1  O   LIG A   1      -3.345   4.445 129.163  0.00  0.00    -0.283 OA
ATOM      2  C   LIG A   1      -4.288   3.858 128.556  0.00  0.00    +0.238 A 
ATOM      3  C   LIG A   1      -4.238   3.534 127.144  0.00  0.00    +0.211 A 
ATOM      4  C   LIG A   1      -5.363   4.029 126.559  0.00  0.00    +0.181 A 
ATOM      5  O   LIG A   1      -6.373   4.698 127.299  0.00  0.00    -0.447 OA
ATOM      6  C   LIG A   1      -5.553   3.527 129.201  0.00  0.00    +0.117 A 
ATOM      7  C   LIG A   1      -6.616   4.153 128.553  0.00  0.00    +0.188 A 
ATOM      8  C   LIG A   1      -7.906   4.096 129.096  0.00  0.00    +0.209 A 
ATOM      9  C   LIG A   1      -8.172   3.123 130.102  0.00  0.00    +0.211 A 
ATOM     10  C   LIG A   1      -7.109   2.272 130.518  0.00  0.00    +0.208 A 
ATOM     11  C   LIG A   1      -5.787   2.537 130.144  0.00  0.00    +0.180 A 
ENDROOT
BRANCH   4  12
ATOM     12  C   LIG A   1      -5.731   3.804 125.168  0.00  0.00    +0.025 A 
ATOM     13  C   LIG A   1      -5.067   4.520 124.185  0.00  0.00    +0.015 A 
ATOM     14  C   LIG A   1      -5.410   4.333 122.855  0.00  0.00    +0.050 A 
ATOM     15  C   LIG A   1      -6.397   3.407 122.444  0.00  0.00    +0.162 A 
ATOM     16  C   LIG A   1      -7.018   2.620 123.429  0.00  0.00    +0.162 A 
ATOM     17  C   LIG A   1      -6.685   2.859 124.782  0.00  0.00    +0.061 A 
BRANCH  15  18
ATOM     18  O   LIG A   1      -6.729   3.311 121.110  0.00  0.00    -0.491 OA
ATOM     19  C   LIG A   1      -6.063   4.276 120.273  0.00  0.00    +0.277 C 
ENDBRANCH  15  18
BRANCH  16  20
ATOM     20  O   LIG A   1      -7.986   1.660 123.367  0.00  0.00    -0.491 OA
ATOM     21  C   LIG A   1      -9.358   1.910 123.142  0.00  0.00    +0.277 C 
ENDBRANCH  16  20
ENDBRANCH   4  12
BRANCH   3  22
ATOM     22  O   LIG A   1      -3.272   2.740 126.551  0.00  0.00    -0.488 OA
ATOM     23  C   LIG A   1      -1.951   3.274 126.366  0.00  0.00    +0.277 C 
ENDBRANCH   3  22
BRANCH   8  24
ATOM     24  O   LIG A   1      -8.809   4.909 128.457  0.00  0.00    -0.488 OA
ATOM     25  C   LIG A   1      -9.392   5.974 129.199  0.00  0.00    +0.277 C 
ENDBRANCH   8  24
BRANCH   9  26
ATOM     26  O   LIG A   1      -9.454   3.021 130.606  0.00  0.00    -0.488 OA
ATOM     27  C   LIG A   1      -9.708   3.509 131.934  0.00  0.00    +0.277 C 
ENDBRANCH   9  26
BRANCH  10  28
ATOM     28  O   LIG A   1      -7.400   1.035 131.067  0.00  0.00    -0.488 OA
ATOM     29  C   LIG A   1      -7.927   0.000 130.224  0.00  0.00    +0.277 C 
ENDBRANCH  10  28
BRANCH  11  30
ATOM     30  O   LIG A   1      -4.893   1.677 130.706  0.00  0.00    -0.490 OA
ATOM     31  C   LIG A   1      -4.278   0.746 129.878  0.00  0.00    +0.277 C 
ENDBRANCH  11  30
TORSDOF 8
ENDMDL
MODEL 7
REMARK VINA RESULT:      -6.1      3.094      7.283
REMARK  Name = NuBBE_1219
REMARK  15 active torsions:
REMARK  status: ('A' for Active; 'I' for Inactive)
REMARK    1  A    between atoms: C_3  and  O_4
REMARK    2  A    between atoms: O_4  and  C_5
REMARK    3  A    between atoms: C_6  and  C_7
REMARK    4  A    between atoms: C_10  and  O_11
REMARK    5  A    between atoms: O_11  and  C_12
REMARK    6  A    between atoms: C_13  and  O_14
REMARK    7  A    between atoms: O_14  and  C_15
REMARK    8  A    between atoms: C_20  and  O_21
REMARK    9  A    between atoms: O_21  and  C_22
REMARK   10  A    between atoms: C_23  and  O_24
REMARK   11  A    between atoms: O_24  and  C_25
REMARK   12  A    between atoms: C_26  and  O_27
REMARK   13  A    between atoms: O_27  and  C_28
REMARK   14  A    between atoms: C_29  and  O_30
REMARK   15  A    between atoms: O_30  and  C_31
REMARK                            x       y       z     vdW  Elec       q    Type
REMARK                         _______ _______ _______ _____ _____    ______ ____
ROOT
ATOM      1  O   LIG A   1      -5.774   5.263 126.832  0.00  0.00    -0.283 OA
ATOM      2  C   LIG A   1      -6.202   4.209 127.387  0.00  0.00    +0.238 A 
ATOM      3  C   LIG A   1      -6.354   2.951 126.682  0.00  0.00    +0.211 A 
ATOM      4  C   LIG A   1      -7.624   2.506 126.884  0.00  0.00    +0.181 A 
ATOM      5  O   LIG A   1      -8.554   3.206 127.696  0.00  0.00    -0.447 OA
ATOM      6  C   LIG A   1      -6.666   4.178 128.768  0.00  0.00    +0.117 A 
ATOM      7  C   LIG A   1      -7.999   3.779 128.834  0.00  0.00    +0.188 A 
ATOM      8  C   LIG A   1      -8.692   3.826 130.050  0.00  0.00    +0.209 A 
ATOM      9  C   LIG A   1      -7.937   3.950 131.252  0.00  0.00    +0.211 A 
ATOM     10  C   LIG A   1      -6.519   4.040 131.154  0.00  0.00    +0.208 A 
ATOM     11  C   LIG A   1      -5.895   4.253 129.920  0.00  0.00    +0.180 A 
ENDROOT
BRANCH   4  12
ATOM     12  C   LIG A   1      -8.124   1.215 126.429  0.00  0.00    +0.025 A 
ATOM     13  C   LIG A   1      -8.881   1.171 125.271  0.00  0.00    +0.015 A 
ATOM     14  C   LIG A   1      -9.379  -0.044 124.827  0.00  0.00    +0.050 A 
ATOM     15  C   LIG A   1      -9.118  -1.265 125.491  0.00  0.00    +0.162 A 
ATOM     16  C   LIG A   1      -8.284  -1.238 126.622  0.00  0.00    +0.162 A 
ATOM     17  C   LIG A   1      -7.824   0.018 127.084  0.00  0.00    +0.061 A 
BRANCH  15  18
ATOM     18  O   LIG A   1      -9.690  -2.429 125.029  0.00  0.00    -0.491 OA
ATOM     19  C   LIG A   1      -8.876  -3.139 124.075  0.00  0.00    +0.277 C 
ENDBRANCH  15  18
BRANCH  16  20
ATOM     20  O   LIG A   1      -7.849  -2.214 127.470  0.00  0.00    -0.491 OA
ATOM     21  C   LIG A   1      -7.228  -1.984 128.718  0.00  0.00    +0.277 C 
ENDBRANCH  16  20
ENDBRANCH   4  12
BRANCH   3  22
ATOM     22  O   LIG A   1      -5.329   2.278 126.040  0.00  0.00    -0.488 OA
ATOM     23  C   LIG A   1      -4.007   2.326 126.601  0.00  0.00    +0.277 C 
ENDBRANCH   3  22
BRANCH   8  24
ATOM     24  O   LIG A   1     -10.037   3.586 129.927  0.00  0.00    -0.488 OA
ATOM     25  C   LIG A   1     -10.938   4.641 130.245  0.00  0.00    +0.277 C 
ENDBRANCH   8  24
BRANCH   9  26
ATOM     26  O   LIG A   1      -8.606   3.944 132.460  0.00  0.00    -0.488 OA
ATOM     27  C   LIG A   1      -9.053   2.684 132.988  0.00  0.00    +0.277 C 
ENDBRANCH   9  26
BRANCH  10  28
ATOM     28  O   LIG A   1      -5.736   3.652 132.228  0.00  0.00    -0.488 OA
ATOM     29  C   LIG A   1      -5.471   2.257 132.434  0.00  0.00    +0.277 C 
ENDBRANCH  10  28
BRANCH  11  30
ATOM     30  O   LIG A   1      -4.546   4.404 130.025  0.00  0.00    -0.490 OA
ATOM     31  C   LIG A   1      -4.029   5.692 129.943  0.00  0.00    +0.277 C 
ENDBRANCH  11  30
TORSDOF 8
ENDMDL
MODEL 8
REMARK VINA RESULT:      -6.1      3.846      8.272
REMARK  Name = NuBBE_1219
REMARK  15 active torsions:
REMARK  status: ('A' for Active; 'I' for Inactive)
REMARK    1  A    between atoms: C_3  and  O_4
REMARK    2  A    between atoms: O_4  and  C_5
REMARK    3  A    between atoms: C_6  and  C_7
REMARK    4  A    between atoms: C_10  and  O_11
REMARK    5  A    between atoms: O_11  and  C_12
REMARK    6  A    between atoms: C_13  and  O_14
REMARK    7  A    between atoms: O_14  and  C_15
REMARK    8  A    between atoms: C_20  and  O_21
REMARK    9  A    between atoms: O_21  and  C_22
REMARK   10  A    between atoms: C_23  and  O_24
REMARK   11  A    between atoms: O_24  and  C_25
REMARK   12  A    between atoms: C_26  and  O_27
REMARK   13  A    between atoms: O_27  and  C_28
REMARK   14  A    between atoms: C_29  and  O_30
REMARK   15  A    between atoms: O_30  and  C_31
REMARK                            x       y       z     vdW  Elec       q    Type
REMARK                         _______ _______ _______ _____ _____    ______ ____
ROOT
ATOM      1  O   LIG A   1      -3.309   3.466 128.863  0.00  0.00    -0.283 OA
ATOM      2  C   LIG A   1      -3.625   4.389 129.669  0.00  0.00    +0.238 A 
ATOM      3  C   LIG A   1      -2.730   5.476 130.016  0.00  0.00    +0.211 A 
ATOM      4  C   LIG A   1      -2.649   5.537 131.373  0.00  0.00    +0.181 A 
ATOM      5  O   LIG A   1      -3.385   4.666 132.218  0.00  0.00    -0.447 OA
ATOM      6  C   LIG A   1      -4.889   4.402 130.394  0.00  0.00    +0.117 A 
ATOM      7  C   LIG A   1      -4.670   4.388 131.771  0.00  0.00    +0.188 A 
ATOM      8  C   LIG A   1      -5.746   4.244 132.656  0.00  0.00    +0.209 A 
ATOM      9  C   LIG A   1      -7.063   4.458 132.158  0.00  0.00    +0.211 A 
ATOM     10  C   LIG A   1      -7.220   4.789 130.781  0.00  0.00    +0.208 A 
ATOM     11  C   LIG A   1      -6.152   4.663 129.885  0.00  0.00    +0.180 A 
ENDROOT
BRANCH   4  12
ATOM     12  C   LIG A   1      -1.935   6.573 132.106  0.00  0.00    +0.025 A 
ATOM     13  C   LIG A   1      -0.666   6.290 132.583  0.00  0.00    +0.015 A 
ATOM     14  C   LIG A   1       0.027   7.257 133.296  0.00  0.00    +0.050 A 
ATOM     15  C   LIG A   1      -0.494   8.550 133.534  0.00  0.00    +0.162 A 
ATOM     16  C   LIG A   1      -1.748   8.870 132.985  0.00  0.00    +0.162 A 
ATOM     17  C   LIG A   1      -2.456   7.855 132.300  0.00  0.00    +0.061 A 
BRANCH  15  18
ATOM     18  O   LIG A   1       0.222   9.444 134.298  0.00  0.00    -0.491 OA
ATOM     19  C   LIG A   1      -0.172   9.474 135.683  0.00  0.00    +0.277 C 
ENDBRANCH  15  18
BRANCH  16  20
ATOM     20  O   LIG A   1      -2.513   9.999 133.030  0.00  0.00    -0.491 OA
ATOM     21  C   LIG A   1      -2.079  11.285 132.640  0.00  0.00    +0.277 C 
ENDBRANCH  16  20
ENDBRANCH   4  12
BRANCH   3  22
ATOM     22  O   LIG A   1      -2.181   6.365 129.108  0.00  0.00    -0.488 OA
ATOM     23  C   LIG A   1      -3.048   7.037 128.181  0.00  0.00    +0.277 C 
ENDBRANCH   3  22
BRANCH   8  24
ATOM     24  O   LIG A   1      -5.364   4.059 133.961  0.00  0.00    -0.488 OA
ATOM     25  C   LIG A   1      -5.265   2.725 134.447  0.00  0.00    +0.277 C 
ENDBRANCH   8  24
BRANCH   9  26
ATOM     26  O   LIG A   1      -8.127   4.372 133.033  0.00  0.00    -0.488 OA
ATOM     27  C   LIG A   1      -8.761   3.095 133.216  0.00  0.00    +0.277 C 
ENDBRANCH   9  26
BRANCH  10  28
ATOM     28  O   LIG A   1      -8.343   5.487 130.371  0.00  0.00    -0.488 OA
ATOM     29  C   LIG A   1      -8.570   6.810 130.878  0.00  0.00    +0.277 C 
ENDBRANCH  10  28
BRANCH  11  30
ATOM     30  O   LIG A   1      -6.506   4.932 128.597  0.00  0.00    -0.490 OA
ATOM     31  C   LIG A   1      -6.764   3.856 127.757  0.00  0.00    +0.277 C 
ENDBRANCH  11  30
TORSDOF 8
ENDMDL
MODEL 9
REMARK VINA RESULT:      -6.1      4.536      8.668
REMARK  Name = NuBBE_1219
REMARK  15 active torsions:
REMARK  status: ('A' for Active; 'I' for Inactive)
REMARK    1  A    between atoms: C_3  and  O_4
REMARK    2  A    between atoms: O_4  and  C_5
REMARK    3  A    between atoms: C_6  and  C_7
REMARK    4  A    between atoms: C_10  and  O_11
REMARK    5  A    between atoms: O_11  and  C_12
REMARK    6  A    between atoms: C_13  and  O_14
REMARK    7  A    between atoms: O_14  and  C_15
REMARK    8  A    between atoms: C_20  and  O_21
REMARK    9  A    between atoms: O_21  and  C_22
REMARK   10  A    between atoms: C_23  and  O_24
REMARK   11  A    between atoms: O_24  and  C_25
REMARK   12  A    between atoms: C_26  and  O_27
REMARK   13  A    between atoms: O_27  and  C_28
REMARK   14  A    between atoms: C_29  and  O_30
REMARK   15  A    between atoms: O_30  and  C_31
REMARK                            x       y       z     vdW  Elec       q    Type
REMARK                         _______ _______ _______ _____ _____    ______ ____
ROOT
ATOM      1  O   LIG A   1      -8.864   2.107 126.141  0.00  0.00    -0.283 OA
ATOM      2  C   LIG A   1      -7.825   1.620 126.675  0.00  0.00    +0.238 A 
ATOM      3  C   LIG A   1      -7.636   0.197 126.882  0.00  0.00    +0.211 A 
ATOM      4  C   LIG A   1      -7.318   0.001 128.191  0.00  0.00    +0.181 A 
ATOM      5  O   LIG A   1      -7.179   1.075 129.108  0.00  0.00    -0.447 OA
ATOM      6  C   LIG A   1      -6.753   2.449 127.213  0.00  0.00    +0.117 A 
ATOM      7  C   LIG A   1      -6.577   2.207 128.574  0.00  0.00    +0.188 A 
ATOM      8  C   LIG A   1      -5.703   3.003 129.325  0.00  0.00    +0.209 A 
ATOM      9  C   LIG A   1      -4.760   3.813 128.629  0.00  0.00    +0.211 A 
ATOM     10  C   LIG A   1      -4.767   3.786 127.205  0.00  0.00    +0.208 A 
ATOM     11  C   LIG A   1      -5.819   3.187 126.502  0.00  0.00    +0.180 A 
ENDROOT
BRANCH   4  12
ATOM     12  C   LIG A   1      -6.942  -1.286 128.759  0.00  0.00    +0.025 A 
ATOM     13  C   LIG A   1      -7.905  -2.017 129.434  0.00  0.00    +0.015 A 
ATOM     14  C   LIG A   1      -7.566  -3.238 129.996  0.00  0.00    +0.050 A 
ATOM     15  C   LIG A   1      -6.273  -3.798 129.883  0.00  0.00    +0.162 A 
ATOM     16  C   LIG A   1      -5.313  -3.099 129.131  0.00  0.00    +0.162 A 
ATOM     17  C   LIG A   1      -5.667  -1.835 128.605  0.00  0.00    +0.061 A 
BRANCH  15  18
ATOM     18  O   LIG A   1      -5.987  -4.989 130.513  0.00  0.00    -0.491 OA
ATOM     19  C   LIG A   1      -5.377  -4.832 131.808  0.00  0.00    +0.277 C 
ENDBRANCH  15  18
BRANCH  16  20
ATOM     20  O   LIG A   1      -4.006  -3.358 128.836  0.00  0.00    -0.491 OA
ATOM     21  C   LIG A   1      -2.902  -2.907 129.593  0.00  0.00    +0.277 C 
ENDBRANCH  16  20
ENDBRANCH   4  12
BRANCH   3  22
ATOM     22  O   LIG A   1      -7.648  -0.754 125.877  0.00  0.00    -0.488 OA
ATOM     23  C   LIG A   1      -8.876  -1.439 125.582  0.00  0.00    +0.277 C 
ENDBRANCH   3  22
BRANCH   8  24
ATOM     24  O   LIG A   1      -5.773   2.773 130.676  0.00  0.00    -0.488 OA
ATOM     25  C   LIG A   1      -6.592   3.633 131.460  0.00  0.00    +0.277 C 
ENDBRANCH   8  24
BRANCH   9  26
ATOM     26  O   LIG A   1      -3.858   4.560 129.360  0.00  0.00    -0.488 OA
ATOM     27  C   LIG A   1      -4.177   5.932 129.643  0.00  0.00    +0.277 C 
ENDBRANCH   9  26
BRANCH  10  28
ATOM     28  O   LIG A   1      -3.614   4.111 126.511  0.00  0.00    -0.488 OA
ATOM     29  C   LIG A   1      -2.486   3.226 126.573  0.00  0.00    +0.277 C 
ENDBRANCH  10  28
BRANCH  11  30
ATOM     30  O   LIG A   1      -5.709   3.337 125.152  0.00  0.00    -0.490 OA
ATOM     31  C   LIG A   1      -6.440   4.353 124.550  0.00  0.00    +0.277 C 
ENDBRANCH  11  30
TORSDOF 8
ENDMDL
