MODEL 1
REMARK VINA RESULT:      -4.8      0.000      0.000
REMARK  Name = NuBBE_2142
REMARK  10 active torsions:
REMARK  status: ('A' for Active; 'I' for Inactive)
REMARK    1  A    between atoms: O_1  and  C_2
REMARK    2  A    between atoms: C_2  and  C_3
REMARK    3  A    between atoms: C_3  and  C_4
REMARK    4  A    between atoms: C_4  and  C_5
REMARK    5  A    between atoms: C_5  and  C_6
REMARK    6  A    between atoms: C_6  and  C_7
REMARK    7  A    between atoms: C_7  and  C_8
REMARK    8  A    between atoms: C_8  and  C_9
REMARK    9  A    between atoms: C_9  and  C_10
REMARK   10  A    between atoms: C_10  and  C_11
REMARK                            x       y       z     vdW  Elec       q    Type
REMARK                         _______ _______ _______ _____ _____    ______ ____
ROOT
ATOM      1  C   LIG A   1     -12.667   8.678 129.499  0.00  0.00    +0.000 C 
ENDROOT
BRANCH   1   2
ATOM      2  C   LIG A   1     -12.262   8.574 128.029  0.00  0.00    +0.011 C 
BRANCH   2   3
ATOM      3  C   LIG A   1     -10.782   8.233 127.893  0.00  0.00    +0.120 C 
BRANCH   3   4
ATOM      4  C   LIG A   1     -10.591   7.023 127.018  0.00  0.00    +0.305 C 
ATOM      5  O   LIG A   1      -9.591   6.320 127.035  0.00  0.00    -0.251 OA
BRANCH   4   6
ATOM      6  O   LIG A   1     -11.652   6.759 126.225  0.00  0.00    -0.481 OA
ATOM      7  H   LIG A   1     -12.496   7.116 126.560  0.00  0.00    +0.295 HD
ENDBRANCH   4   6
ENDBRANCH   3   4
ENDBRANCH   2   3
ENDBRANCH   1   2
BRANCH   1   8
ATOM      8  C   LIG A   1     -13.012   7.310 130.089  0.00  0.00    +0.000 C 
BRANCH   8   9
ATOM      9  C   LIG A   1     -12.471   7.172 131.514  0.00  0.00    -0.000 C 
BRANCH   9  10
ATOM     10  C   LIG A   1     -11.291   6.201 131.568  0.00  0.00    -0.000 C 
BRANCH  10  11
ATOM     11  C   LIG A   1     -11.236   5.313 130.323  0.00  0.00    -0.000 C 
BRANCH  11  12
ATOM     12  C   LIG A   1      -9.870   4.640 130.179  0.00  0.00    -0.003 C 
ATOM     13  C   LIG A   1      -9.926   3.162 130.532  0.00  0.00    +0.004 C 
ENDBRANCH  11  12
ENDBRANCH  10  11
ENDBRANCH   9  10
ENDBRANCH   8   9
ENDBRANCH   1   8
TORSDOF 9
ENDMDL
MODEL 2
REMARK VINA RESULT:      -4.6     10.336     11.851
REMARK  Name = NuBBE_2142
REMARK  10 active torsions:
REMARK  status: ('A' for Active; 'I' for Inactive)
REMARK    1  A    between atoms: O_1  and  C_2
REMARK    2  A    between atoms: C_2  and  C_3
REMARK    3  A    between atoms: C_3  and  C_4
REMARK    4  A    between atoms: C_4  and  C_5
REMARK    5  A    between atoms: C_5  and  C_6
REMARK    6  A    between atoms: C_6  and  C_7
REMARK    7  A    between atoms: C_7  and  C_8
REMARK    8  A    between atoms: C_8  and  C_9
REMARK    9  A    between atoms: C_9  and  C_10
REMARK   10  A    between atoms: C_10  and  C_11
REMARK                            x       y       z     vdW  Elec       q    Type
REMARK                         _______ _______ _______ _____ _____    ______ ____
ROOT
ATOM      1  C   LIG A   1      -8.567  -2.647 122.561  0.00  0.00    +0.000 C 
ENDROOT
BRANCH   1   2
ATOM      2  C   LIG A   1      -9.486  -3.231 123.633  0.00  0.00    +0.011 C 
BRANCH   2   3
ATOM      3  C   LIG A   1      -8.679  -3.772 124.808  0.00  0.00    +0.120 C 
BRANCH   3   4
ATOM      4  C   LIG A   1      -8.690  -2.799 125.957  0.00  0.00    +0.305 C 
ATOM      5  O   LIG A   1      -7.846  -2.777 126.841  0.00  0.00    -0.251 OA
BRANCH   4   6
ATOM      6  O   LIG A   1      -9.713  -1.918 125.907  0.00  0.00    -0.481 OA
ATOM      7  H   LIG A   1     -10.582  -2.309 126.117  0.00  0.00    +0.295 HD
ENDBRANCH   4   6
ENDBRANCH   3   4
ENDBRANCH   2   3
ENDBRANCH   1   2
BRANCH   1   8
ATOM      8  C   LIG A   1      -8.333  -1.150 122.771  0.00  0.00    +0.000 C 
BRANCH   8   9
ATOM      9  C   LIG A   1      -6.870  -0.865 123.121  0.00  0.00    -0.000 C 
BRANCH   9  10
ATOM     10  C   LIG A   1      -5.980  -2.071 122.815  0.00  0.00    -0.000 C 
BRANCH  10  11
ATOM     11  C   LIG A   1      -5.131  -2.464 124.026  0.00  0.00    -0.000 C 
BRANCH  11  12
ATOM     12  C   LIG A   1      -5.169  -3.974 124.265  0.00  0.00    -0.003 C 
ATOM     13  C   LIG A   1      -4.144  -4.709 123.414  0.00  0.00    +0.004 C 
ENDBRANCH  11  12
ENDBRANCH  10  11
ENDBRANCH   9  10
ENDBRANCH   8   9
ENDBRANCH   1   8
TORSDOF 9
ENDMDL
MODEL 3
REMARK VINA RESULT:      -4.4      8.102     10.311
REMARK  Name = NuBBE_2142
REMARK  10 active torsions:
REMARK  status: ('A' for Active; 'I' for Inactive)
REMARK    1  A    between atoms: O_1  and  C_2
REMARK    2  A    between atoms: C_2  and  C_3
REMARK    3  A    between atoms: C_3  and  C_4
REMARK    4  A    between atoms: C_4  and  C_5
REMARK    5  A    between atoms: C_5  and  C_6
REMARK    6  A    between atoms: C_6  and  C_7
REMARK    7  A    between atoms: C_7  and  C_8
REMARK    8  A    between atoms: C_8  and  C_9
REMARK    9  A    between atoms: C_9  and  C_10
REMARK   10  A    between atoms: C_10  and  C_11
REMARK                            x       y       z     vdW  Elec       q    Type
REMARK                         _______ _______ _______ _____ _____    ______ ____
ROOT
ATOM      1  C   LIG A   1      -8.216  -1.611 126.188  0.00  0.00    +0.000 C 
ENDROOT
BRANCH   1   2
ATOM      2  C   LIG A   1      -8.250  -0.147 125.754  0.00  0.00    +0.011 C 
BRANCH   2   3
ATOM      3  C   LIG A   1      -9.669   0.408 125.810  0.00  0.00    +0.120 C 
BRANCH   3   4
ATOM      4  C   LIG A   1      -9.963   1.247 124.595  0.00  0.00    +0.305 C 
ATOM      5  O   LIG A   1     -10.505   0.820 123.586  0.00  0.00    -0.251 OA
BRANCH   4   6
ATOM      6  O   LIG A   1      -9.599   2.540 124.732  0.00  0.00    -0.481 OA
ATOM      7  H   LIG A   1      -9.609   3.045 123.896  0.00  0.00    +0.295 HD
ENDBRANCH   4   6
ENDBRANCH   3   4
ENDBRANCH   2   3
ENDBRANCH   1   2
BRANCH   1   8
ATOM      8  C   LIG A   1      -9.257  -2.447 125.442  0.00  0.00    +0.000 C 
BRANCH   8   9
ATOM      9  C   LIG A   1      -8.621  -3.204 124.273  0.00  0.00    -0.000 C 
BRANCH   9  10
ATOM     10  C   LIG A   1      -7.133  -3.459 124.520  0.00  0.00    -0.000 C 
BRANCH  10  11
ATOM     11  C   LIG A   1      -6.264  -2.796 123.450  0.00  0.00    -0.000 C 
BRANCH  11  12
ATOM     12  C   LIG A   1      -4.779  -3.077 123.686  0.00  0.00    -0.003 C 
ATOM     13  C   LIG A   1      -4.472  -4.566 123.649  0.00  0.00    +0.004 C 
ENDBRANCH  11  12
ENDBRANCH  10  11
ENDBRANCH   9  10
ENDBRANCH   8   9
ENDBRANCH   1   8
TORSDOF 9
ENDMDL
MODEL 4
REMARK VINA RESULT:      -4.3     10.054     10.760
REMARK  Name = NuBBE_2142
REMARK  10 active torsions:
REMARK  status: ('A' for Active; 'I' for Inactive)
REMARK    1  A    between atoms: O_1  and  C_2
REMARK    2  A    between atoms: C_2  and  C_3
REMARK    3  A    between atoms: C_3  and  C_4
REMARK    4  A    between atoms: C_4  and  C_5
REMARK    5  A    between atoms: C_5  and  C_6
REMARK    6  A    between atoms: C_6  and  C_7
REMARK    7  A    between atoms: C_7  and  C_8
REMARK    8  A    between atoms: C_8  and  C_9
REMARK    9  A    between atoms: C_9  and  C_10
REMARK   10  A    between atoms: C_10  and  C_11
REMARK                            x       y       z     vdW  Elec       q    Type
REMARK                         _______ _______ _______ _____ _____    ______ ____
ROOT
ATOM      1  C   LIG A   1      -9.271  -2.928 126.028  0.00  0.00    +0.000 C 
ENDROOT
BRANCH   1   2
ATOM      2  C   LIG A   1      -8.626  -3.563 124.797  0.00  0.00    +0.011 C 
BRANCH   2   3
ATOM      3  C   LIG A   1      -9.424  -3.246 123.537  0.00  0.00    +0.120 C 
BRANCH   3   4
ATOM      4  C   LIG A   1      -9.097  -1.866 123.031  0.00  0.00    +0.305 C 
ATOM      5  O   LIG A   1      -9.936  -1.012 122.787  0.00  0.00    -0.251 OA
BRANCH   4   6
ATOM      6  O   LIG A   1      -7.772  -1.641 122.898  0.00  0.00    -0.481 OA
ATOM      7  H   LIG A   1      -7.524  -0.698 122.940  0.00  0.00    +0.295 HD
ENDBRANCH   4   6
ENDBRANCH   3   4
ENDBRANCH   2   3
ENDBRANCH   1   2
BRANCH   1   8
ATOM      8  C   LIG A   1      -8.852  -3.638 127.316  0.00  0.00    +0.000 C 
BRANCH   8   9
ATOM      9  C   LIG A   1      -8.011  -2.717 128.204  0.00  0.00    -0.000 C 
BRANCH   9  10
ATOM     10  C   LIG A   1      -7.835  -3.307 129.605  0.00  0.00    -0.000 C 
BRANCH  10  11
ATOM     11  C   LIG A   1      -6.377  -3.686 129.875  0.00  0.00    -0.000 C 
BRANCH  11  12
ATOM     12  C   LIG A   1      -5.420  -2.873 129.002  0.00  0.00    -0.003 C 
ATOM     13  C   LIG A   1      -3.980  -3.337 129.155  0.00  0.00    +0.004 C 
ENDBRANCH  11  12
ENDBRANCH  10  11
ENDBRANCH   9  10
ENDBRANCH   8   9
ENDBRANCH   1   8
TORSDOF 9
ENDMDL
MODEL 5
REMARK VINA RESULT:      -4.2      8.878     10.224
REMARK  Name = NuBBE_2142
REMARK  10 active torsions:
REMARK  status: ('A' for Active; 'I' for Inactive)
REMARK    1  A    between atoms: O_1  and  C_2
REMARK    2  A    between atoms: C_2  and  C_3
REMARK    3  A    between atoms: C_3  and  C_4
REMARK    4  A    between atoms: C_4  and  C_5
REMARK    5  A    between atoms: C_5  and  C_6
REMARK    6  A    between atoms: C_6  and  C_7
REMARK    7  A    between atoms: C_7  and  C_8
REMARK    8  A    between atoms: C_8  and  C_9
REMARK    9  A    between atoms: C_9  and  C_10
REMARK   10  A    between atoms: C_10  and  C_11
REMARK                            x       y       z     vdW  Elec       q    Type
REMARK                         _______ _______ _______ _____ _____    ______ ____
ROOT
ATOM      1  C   LIG A   1      -8.606  -3.696 124.637  0.00  0.00    +0.000 C 
ENDROOT
BRANCH   1   2
ATOM      2  C   LIG A   1      -9.341  -3.140 123.418  0.00  0.00    +0.011 C 
BRANCH   2   3
ATOM      3  C   LIG A   1      -8.544  -2.015 122.766  0.00  0.00    +0.120 C 
BRANCH   3   4
ATOM      4  C   LIG A   1      -9.210  -0.684 122.998  0.00  0.00    +0.305 C 
ATOM      5  O   LIG A   1     -10.334  -0.407 122.608  0.00  0.00    -0.251 OA
BRANCH   4   6
ATOM      6  O   LIG A   1      -8.456   0.177 123.715  0.00  0.00    -0.481 OA
ATOM      7  H   LIG A   1      -7.547   0.286 123.375  0.00  0.00    +0.295 HD
ENDBRANCH   4   6
ENDBRANCH   3   4
ENDBRANCH   2   3
ENDBRANCH   1   2
BRANCH   1   8
ATOM      8  C   LIG A   1      -9.190  -3.159 125.944  0.00  0.00    +0.000 C 
BRANCH   8   9
ATOM      9  C   LIG A   1      -8.316  -2.043 126.522  0.00  0.00    -0.000 C 
BRANCH   9  10
ATOM     10  C   LIG A   1      -7.404  -2.569 127.631  0.00  0.00    -0.000 C 
BRANCH  10  11
ATOM     11  C   LIG A   1      -8.171  -3.453 128.617  0.00  0.00    -0.000 C 
BRANCH  11  12
ATOM     12  C   LIG A   1      -7.864  -3.068 130.065  0.00  0.00    -0.003 C 
ATOM     13  C   LIG A   1      -7.906  -1.562 130.272  0.00  0.00    +0.004 C 
ENDBRANCH  11  12
ENDBRANCH  10  11
ENDBRANCH   9  10
ENDBRANCH   8   9
ENDBRANCH   1   8
TORSDOF 9
ENDMDL
MODEL 6
REMARK VINA RESULT:      -4.2      9.288     10.399
REMARK  Name = NuBBE_2142
REMARK  10 active torsions:
REMARK  status: ('A' for Active; 'I' for Inactive)
REMARK    1  A    between atoms: O_1  and  C_2
REMARK    2  A    between atoms: C_2  and  C_3
REMARK    3  A    between atoms: C_3  and  C_4
REMARK    4  A    between atoms: C_4  and  C_5
REMARK    5  A    between atoms: C_5  and  C_6
REMARK    6  A    between atoms: C_6  and  C_7
REMARK    7  A    between atoms: C_7  and  C_8
REMARK    8  A    between atoms: C_8  and  C_9
REMARK    9  A    between atoms: C_9  and  C_10
REMARK   10  A    between atoms: C_10  and  C_11
REMARK                            x       y       z     vdW  Elec       q    Type
REMARK                         _______ _______ _______ _____ _____    ______ ____
ROOT
ATOM      1  C   LIG A   1      -6.099  -1.133 124.733  0.00  0.00    +0.000 C 
ENDROOT
BRANCH   1   2
ATOM      2  C   LIG A   1      -6.803  -0.984 123.385  0.00  0.00    +0.011 C 
BRANCH   2   3
ATOM      3  C   LIG A   1      -7.764   0.199 123.397  0.00  0.00    +0.120 C 
BRANCH   3   4
ATOM      4  C   LIG A   1      -9.182  -0.267 123.596  0.00  0.00    +0.305 C 
ATOM      5  O   LIG A   1      -9.836  -0.847 122.741  0.00  0.00    -0.251 OA
BRANCH   4   6
ATOM      6  O   LIG A   1      -9.664  -0.012 124.832  0.00  0.00    -0.481 OA
ATOM      7  H   LIG A   1      -9.579  -0.761 125.452  0.00  0.00    +0.295 HD
ENDBRANCH   4   6
ENDBRANCH   3   4
ENDBRANCH   2   3
ENDBRANCH   1   2
BRANCH   1   8
ATOM      8  C   LIG A   1      -6.354  -2.505 125.357  0.00  0.00    +0.000 C 
BRANCH   8   9
ATOM      9  C   LIG A   1      -7.285  -3.345 124.479  0.00  0.00    -0.000 C 
BRANCH   9  10
ATOM     10  C   LIG A   1      -8.606  -3.639 125.192  0.00  0.00    -0.000 C 
BRANCH  10  11
ATOM     11  C   LIG A   1      -8.688  -2.920 126.540  0.00  0.00    -0.000 C 
BRANCH  11  12
ATOM     12  C   LIG A   1      -8.906  -3.910 127.686  0.00  0.00    -0.003 C 
ATOM     13  C   LIG A   1      -8.420  -3.353 129.016  0.00  0.00    +0.004 C 
ENDBRANCH  11  12
ENDBRANCH  10  11
ENDBRANCH   9  10
ENDBRANCH   8   9
ENDBRANCH   1   8
TORSDOF 9
ENDMDL
MODEL 7
REMARK VINA RESULT:      -4.2      7.380      9.044
REMARK  Name = NuBBE_2142
REMARK  10 active torsions:
REMARK  status: ('A' for Active; 'I' for Inactive)
REMARK    1  A    between atoms: O_1  and  C_2
REMARK    2  A    between atoms: C_2  and  C_3
REMARK    3  A    between atoms: C_3  and  C_4
REMARK    4  A    between atoms: C_4  and  C_5
REMARK    5  A    between atoms: C_5  and  C_6
REMARK    6  A    between atoms: C_6  and  C_7
REMARK    7  A    between atoms: C_7  and  C_8
REMARK    8  A    between atoms: C_8  and  C_9
REMARK    9  A    between atoms: C_9  and  C_10
REMARK   10  A    between atoms: C_10  and  C_11
REMARK                            x       y       z     vdW  Elec       q    Type
REMARK                         _______ _______ _______ _____ _____    ______ ____
ROOT
ATOM      1  C   LIG A   1      -6.498   2.683 122.405  0.00  0.00    +0.000 C 
ENDROOT
BRANCH   1   2
ATOM      2  C   LIG A   1      -6.485   3.853 121.422  0.00  0.00    +0.011 C 
BRANCH   2   3
ATOM      3  C   LIG A   1      -5.117   4.001 120.766  0.00  0.00    +0.120 C 
BRANCH   3   4
ATOM      4  C   LIG A   1      -4.914   5.405 120.263  0.00  0.00    +0.305 C 
ATOM      5  O   LIG A   1      -5.448   5.853 119.259  0.00  0.00    -0.251 OA
BRANCH   4   6
ATOM      6  O   LIG A   1      -4.104   6.147 121.048  0.00  0.00    -0.481 OA
ATOM      7  H   LIG A   1      -4.405   6.218 121.973  0.00  0.00    +0.295 HD
ENDBRANCH   4   6
ENDBRANCH   3   4
ENDBRANCH   2   3
ENDBRANCH   1   2
BRANCH   1   8
ATOM      8  C   LIG A   1      -6.538   3.163 123.856  0.00  0.00    +0.000 C 
BRANCH   8   9
ATOM      9  C   LIG A   1      -7.975   3.429 124.310  0.00  0.00    -0.000 C 
BRANCH   9  10
ATOM     10  C   LIG A   1      -8.390   2.474 125.430  0.00  0.00    -0.000 C 
BRANCH  10  11
ATOM     11  C   LIG A   1      -9.002   1.187 124.874  0.00  0.00    -0.000 C 
BRANCH  11  12
ATOM     12  C   LIG A   1     -10.119   1.489 123.874  0.00  0.00    -0.003 C 
ATOM     13  C   LIG A   1      -9.991   0.651 122.611  0.00  0.00    +0.004 C 
ENDBRANCH  11  12
ENDBRANCH  10  11
ENDBRANCH   9  10
ENDBRANCH   8   9
ENDBRANCH   1   8
TORSDOF 9
ENDMDL
MODEL 8
REMARK VINA RESULT:      -4.2     10.075     11.961
REMARK  Name = NuBBE_2142
REMARK  10 active torsions:
REMARK  status: ('A' for Active; 'I' for Inactive)
REMARK    1  A    between atoms: O_1  and  C_2
REMARK    2  A    between atoms: C_2  and  C_3
REMARK    3  A    between atoms: C_3  and  C_4
REMARK    4  A    between atoms: C_4  and  C_5
REMARK    5  A    between atoms: C_5  and  C_6
REMARK    6  A    between atoms: C_6  and  C_7
REMARK    7  A    between atoms: C_7  and  C_8
REMARK    8  A    between atoms: C_8  and  C_9
REMARK    9  A    between atoms: C_9  and  C_10
REMARK   10  A    between atoms: C_10  and  C_11
REMARK                            x       y       z     vdW  Elec       q    Type
REMARK                         _______ _______ _______ _____ _____    ______ ____
ROOT
ATOM      1  C   LIG A   1      -8.013  -2.912 126.840  0.00  0.00    +0.000 C 
ENDROOT
BRANCH   1   2
ATOM      2  C   LIG A   1      -8.552  -3.417 128.178  0.00  0.00    +0.011 C 
BRANCH   2   3
ATOM      3  C   LIG A   1      -7.435  -3.531 129.209  0.00  0.00    +0.120 C 
BRANCH   3   4
ATOM      4  C   LIG A   1      -7.663  -2.579 130.353  0.00  0.00    +0.305 C 
ATOM      5  O   LIG A   1      -8.103  -1.447 130.220  0.00  0.00    -0.251 OA
BRANCH   4   6
ATOM      6  O   LIG A   1      -7.365  -3.106 131.560  0.00  0.00    -0.481 OA
ATOM      7  H   LIG A   1      -7.758  -2.622 132.312  0.00  0.00    +0.295 HD
ENDBRANCH   4   6
ENDBRANCH   3   4
ENDBRANCH   2   3
ENDBRANCH   1   2
BRANCH   1   8
ATOM      8  C   LIG A   1      -8.776  -3.514 125.660  0.00  0.00    +0.000 C 
BRANCH   8   9
ATOM      9  C   LIG A   1      -7.895  -3.578 124.409  0.00  0.00    -0.000 C 
BRANCH   9  10
ATOM     10  C   LIG A   1      -6.726  -2.596 124.502  0.00  0.00    -0.000 C 
BRANCH  10  11
ATOM     11  C   LIG A   1      -5.730  -2.799 123.359  0.00  0.00    -0.000 C 
BRANCH  11  12
ATOM     12  C   LIG A   1      -4.439  -3.452 123.856  0.00  0.00    -0.003 C 
ATOM     13  C   LIG A   1      -4.348  -4.914 123.446  0.00  0.00    +0.004 C 
ENDBRANCH  11  12
ENDBRANCH  10  11
ENDBRANCH   9  10
ENDBRANCH   8   9
ENDBRANCH   1   8
TORSDOF 9
ENDMDL
MODEL 9
REMARK VINA RESULT:      -4.2     10.430     11.111
REMARK  Name = NuBBE_2142
REMARK  10 active torsions:
REMARK  status: ('A' for Active; 'I' for Inactive)
REMARK    1  A    between atoms: O_1  and  C_2
REMARK    2  A    between atoms: C_2  and  C_3
REMARK    3  A    between atoms: C_3  and  C_4
REMARK    4  A    between atoms: C_4  and  C_5
REMARK    5  A    between atoms: C_5  and  C_6
REMARK    6  A    between atoms: C_6  and  C_7
REMARK    7  A    between atoms: C_7  and  C_8
REMARK    8  A    between atoms: C_8  and  C_9
REMARK    9  A    between atoms: C_9  and  C_10
REMARK   10  A    between atoms: C_10  and  C_11
REMARK                            x       y       z     vdW  Elec       q    Type
REMARK                         _______ _______ _______ _____ _____    ______ ____
ROOT
ATOM      1  C   LIG A   1      -8.243  -2.883 127.284  0.00  0.00    +0.000 C 
ENDROOT
BRANCH   1   2
ATOM      2  C   LIG A   1      -9.153  -3.187 126.094  0.00  0.00    +0.011 C 
BRANCH   2   3
ATOM      3  C   LIG A   1      -8.342  -3.654 124.891  0.00  0.00    +0.120 C 
BRANCH   3   4
ATOM      4  C   LIG A   1      -8.925  -3.115 123.612  0.00  0.00    +0.305 C 
ATOM      5  O   LIG A   1      -8.309  -2.415 122.822  0.00  0.00    -0.251 OA
BRANCH   4   6
ATOM      6  O   LIG A   1     -10.200  -3.506 123.394  0.00  0.00    -0.481 OA
ATOM      7  H   LIG A   1     -10.868  -2.847 123.662  0.00  0.00    +0.295 HD
ENDBRANCH   4   6
ENDBRANCH   3   4
ENDBRANCH   2   3
ENDBRANCH   1   2
BRANCH   1   8
ATOM      8  C   LIG A   1      -8.681  -3.638 128.539  0.00  0.00    +0.000 C 
BRANCH   8   9
ATOM      9  C   LIG A   1      -7.884  -3.182 129.763  0.00  0.00    -0.000 C 
BRANCH   9  10
ATOM     10  C   LIG A   1      -6.382  -3.371 129.551  0.00  0.00    -0.000 C 
BRANCH  10  11
ATOM     11  C   LIG A   1      -5.838  -4.531 130.388  0.00  0.00    -0.000 C 
BRANCH  11  12
ATOM     12  C   LIG A   1      -5.846  -4.191 131.880  0.00  0.00    -0.003 C 
ATOM     13  C   LIG A   1      -4.696  -3.270 132.258  0.00  0.00    +0.004 C 
ENDBRANCH  11  12
ENDBRANCH  10  11
ENDBRANCH   9  10
ENDBRANCH   8   9
ENDBRANCH   1   8
TORSDOF 9
ENDMDL
