MODEL 1
REMARK VINA RESULT:      -7.5      0.000      0.000
REMARK  Name = NuBBE_2381
REMARK  12 active torsions:
REMARK  status: ('A' for Active; 'I' for Inactive)
REMARK    1  A    between atoms: C_1  and  C_26
REMARK    2  A    between atoms: C_1  and  C_27
REMARK    3  A    between atoms: C_3  and  C_4
REMARK    4  A    between atoms: C_4  and  O_6
REMARK    5  A    between atoms: O_6  and  C_7
REMARK    6  A    between atoms: C_9  and  O_21
REMARK    7  A    between atoms: C_10  and  O_11
REMARK    8  A    between atoms: O_11  and  C_12
REMARK    9  A    between atoms: C_13  and  C_18
REMARK   10  A    between atoms: C_18  and  C_19
REMARK   11  A    between atoms: C_18  and  C_20
REMARK   12  A    between atoms: O_21  and  C_22
REMARK                            x       y       z     vdW  Elec       q    Type
REMARK                         _______ _______ _______ _____ _____    ______ ____
ROOT
ATOM      1  C   LIG A   1      -8.087  -2.916 125.032  0.00  0.00    -0.031 C 
ATOM      2  C   LIG A   1      -7.379  -1.617 125.613  0.00  0.00    +0.016 C 
ATOM      3  C   LIG A   1      -7.619  -0.265 124.808  0.00  0.00    +0.100 C 
ATOM      4  C   LIG A   1      -6.531   0.841 125.080  0.00  0.00    +0.018 A 
ATOM      5  C   LIG A   1      -6.626   2.163 124.559  0.00  0.00    +0.166 A 
ATOM      6  C   LIG A   1      -5.719   3.199 124.946  0.00  0.00    +0.165 A 
ATOM      7  C   LIG A   1      -4.675   2.938 125.855  0.00  0.00    +0.001 A 
ATOM      8  C   LIG A   1      -4.570   1.617 126.319  0.00  0.00    +0.011 A 
ATOM      9  C   LIG A   1      -5.464   0.590 125.955  0.00  0.00    -0.039 A 
ATOM     10  C   LIG A   1      -5.277  -0.728 126.647  0.00  0.00    +0.036 C 
ATOM     11  C   LIG A   1      -5.883  -1.865 125.860  0.00  0.00    +0.010 C 
ATOM     12  C   LIG A   1      -7.632  -0.624 123.301  0.00  0.00    +0.023 C 
ATOM     13  C   LIG A   1      -8.643  -1.693 122.870  0.00  0.00    +0.002 C 
ATOM     14  C   LIG A   1      -9.171  -2.563 124.002  0.00  0.00    +0.007 C 
ATOM     15  C   LIG A   1      -7.122  -3.930 124.366  0.00  0.00    +0.011 C 
ATOM     16  C   LIG A   1      -8.770  -3.656 126.207  0.00  0.00    +0.011 C 
ENDROOT
BRANCH   7  17
ATOM     17  C   LIG A   1      -3.719   4.004 126.404  0.00  0.00    +0.017 C 
ATOM     18  C   LIG A   1      -2.280   3.490 126.626  0.00  0.00    +0.012 C 
ATOM     19  C   LIG A   1      -4.195   4.618 127.727  0.00  0.00    +0.012 C 
ENDBRANCH   7  17
BRANCH   3  20
ATOM     20  C   LIG A   1      -8.978   0.329 125.279  0.00  0.00    +0.318 C 
ATOM     21  O   LIG A   1      -9.857   0.788 124.540  0.00  0.00    -0.250 OA
BRANCH  20  22
ATOM     22  O   LIG A   1      -9.068   0.310 126.642  0.00  0.00    -0.467 OA
ATOM     23  C   LIG A   1      -8.877   1.572 127.279  0.00  0.00    +0.280 C 
ENDBRANCH  20  22
ENDBRANCH   3  20
BRANCH   6  24
ATOM     24  O   LIG A   1      -5.993   4.496 124.572  0.00  0.00    -0.491 OA
ATOM     25  C   LIG A   1      -6.998   5.121 125.371  0.00  0.00    +0.277 C 
ENDBRANCH   6  24
BRANCH   5  26
ATOM     26  O   LIG A   1      -7.728   2.444 123.780  0.00  0.00    -0.491 OA
ATOM     27  C   LIG A   1      -7.402   2.772 122.432  0.00  0.00    +0.277 C 
ENDBRANCH   5  26
TORSDOF 5
ENDMDL
MODEL 2
REMARK VINA RESULT:      -6.8      2.585      4.047
REMARK  Name = NuBBE_2381
REMARK  12 active torsions:
REMARK  status: ('A' for Active; 'I' for Inactive)
REMARK    1  A    between atoms: C_1  and  C_26
REMARK    2  A    between atoms: C_1  and  C_27
REMARK    3  A    between atoms: C_3  and  C_4
REMARK    4  A    between atoms: C_4  and  O_6
REMARK    5  A    between atoms: O_6  and  C_7
REMARK    6  A    between atoms: C_9  and  O_21
REMARK    7  A    between atoms: C_10  and  O_11
REMARK    8  A    between atoms: O_11  and  C_12
REMARK    9  A    between atoms: C_13  and  C_18
REMARK   10  A    between atoms: C_18  and  C_19
REMARK   11  A    between atoms: C_18  and  C_20
REMARK   12  A    between atoms: O_21  and  C_22
REMARK                            x       y       z     vdW  Elec       q    Type
REMARK                         _______ _______ _______ _____ _____    ______ ____
ROOT
ATOM      1  C   LIG A   1      -8.150  -2.641 124.197  0.00  0.00    -0.031 C 
ATOM      2  C   LIG A   1      -8.404  -2.032 125.643  0.00  0.00    +0.016 C 
ATOM      3  C   LIG A   1      -7.974  -0.514 125.853  0.00  0.00    +0.100 C 
ATOM      4  C   LIG A   1      -7.750  -0.117 127.360  0.00  0.00    +0.018 A 
ATOM      5  C   LIG A   1      -7.483   1.219 127.776  0.00  0.00    +0.166 A 
ATOM      6  C   LIG A   1      -7.443   1.590 129.157  0.00  0.00    +0.165 A 
ATOM      7  C   LIG A   1      -7.650   0.630 130.166  0.00  0.00    +0.001 A 
ATOM      8  C   LIG A   1      -7.863  -0.689 129.736  0.00  0.00    +0.011 A 
ATOM      9  C   LIG A   1      -7.916  -1.067 128.379  0.00  0.00    -0.039 A 
ATOM     10  C   LIG A   1      -8.280  -2.496 128.103  0.00  0.00    +0.036 C 
ATOM     11  C   LIG A   1      -7.815  -2.938 126.736  0.00  0.00    +0.010 C 
ATOM     12  C   LIG A   1      -6.664  -0.293 125.055  0.00  0.00    +0.023 C 
ATOM     13  C   LIG A   1      -6.718  -0.635 123.561  0.00  0.00    +0.002 C 
ATOM     14  C   LIG A   1      -7.870  -1.545 123.158  0.00  0.00    +0.007 C 
ATOM     15  C   LIG A   1      -6.987  -3.662 124.124  0.00  0.00    +0.011 C 
ATOM     16  C   LIG A   1      -9.431  -3.393 123.762  0.00  0.00    +0.011 C 
ENDROOT
BRANCH   7  17
ATOM     17  C   LIG A   1      -7.725   0.952 131.664  0.00  0.00    +0.017 C 
ATOM     18  C   LIG A   1      -7.080  -0.126 132.562  0.00  0.00    +0.012 C 
ATOM     19  C   LIG A   1      -9.160   1.166 132.165  0.00  0.00    +0.012 C 
ENDBRANCH   7  17
BRANCH   3  20
ATOM     20  C   LIG A   1      -9.135   0.380 125.330  0.00  0.00    +0.318 C 
ATOM     21  O   LIG A   1     -10.334   0.230 125.595  0.00  0.00    -0.250 OA
BRANCH  20  22
ATOM     22  O   LIG A   1      -8.659   1.353 124.499  0.00  0.00    -0.467 OA
ATOM     23  C   LIG A   1      -9.585   1.820 123.520  0.00  0.00    +0.280 C 
ENDBRANCH  20  22
ENDBRANCH   3  20
BRANCH   6  24
ATOM     24  O   LIG A   1      -7.392   2.928 129.484  0.00  0.00    -0.491 OA
ATOM     25  C   LIG A   1      -8.665   3.573 129.447  0.00  0.00    +0.277 C 
ENDBRANCH   6  24
BRANCH   5  26
ATOM     26  O   LIG A   1      -7.419   2.174 126.786  0.00  0.00    -0.491 OA
ATOM     27  C   LIG A   1      -6.115   2.724 126.610  0.00  0.00    +0.277 C 
ENDBRANCH   5  26
TORSDOF 5
ENDMDL
MODEL 3
REMARK VINA RESULT:      -6.7      4.815      7.464
REMARK  Name = NuBBE_2381
REMARK  12 active torsions:
REMARK  status: ('A' for Active; 'I' for Inactive)
REMARK    1  A    between atoms: C_1  and  C_26
REMARK    2  A    between atoms: C_1  and  C_27
REMARK    3  A    between atoms: C_3  and  C_4
REMARK    4  A    between atoms: C_4  and  O_6
REMARK    5  A    between atoms: O_6  and  C_7
REMARK    6  A    between atoms: C_9  and  O_21
REMARK    7  A    between atoms: C_10  and  O_11
REMARK    8  A    between atoms: O_11  and  C_12
REMARK    9  A    between atoms: C_13  and  C_18
REMARK   10  A    between atoms: C_18  and  C_19
REMARK   11  A    between atoms: C_18  and  C_20
REMARK   12  A    between atoms: O_21  and  C_22
REMARK                            x       y       z     vdW  Elec       q    Type
REMARK                         _______ _______ _______ _____ _____    ______ ____
ROOT
ATOM      1  C   LIG A   1     -10.676   5.543 130.649  0.00  0.00    -0.031 C 
ATOM      2  C   LIG A   1      -9.149   5.771 130.271  0.00  0.00    +0.016 C 
ATOM      3  C   LIG A   1      -8.268   4.459 130.079  0.00  0.00    +0.100 C 
ATOM      4  C   LIG A   1      -6.719   4.703 130.227  0.00  0.00    +0.018 A 
ATOM      5  C   LIG A   1      -5.750   3.691 129.971  0.00  0.00    +0.166 A 
ATOM      6  C   LIG A   1      -4.348   3.972 129.952  0.00  0.00    +0.165 A 
ATOM      7  C   LIG A   1      -3.870   5.272 130.207  0.00  0.00    +0.001 A 
ATOM      8  C   LIG A   1      -4.840   6.243 130.504  0.00  0.00    +0.011 A 
ATOM      9  C   LIG A   1      -6.225   5.983 130.515  0.00  0.00    -0.039 A 
ATOM     10  C   LIG A   1      -7.120   7.169 130.727  0.00  0.00    +0.036 C 
ATOM     11  C   LIG A   1      -8.480   6.759 131.239  0.00  0.00    +0.010 C 
ATOM     12  C   LIG A   1      -8.738   3.432 131.140  0.00  0.00    +0.023 C 
ATOM     13  C   LIG A   1     -10.231   3.083 131.128  0.00  0.00    +0.002 C 
ATOM     14  C   LIG A   1     -11.114   4.091 130.405  0.00  0.00    +0.007 C 
ATOM     15  C   LIG A   1     -11.035   5.901 132.113  0.00  0.00    +0.011 C 
ATOM     16  C   LIG A   1     -11.535   6.458 129.743  0.00  0.00    +0.011 C 
ENDROOT
BRANCH   7  17
ATOM     17  C   LIG A   1      -2.398   5.688 130.110  0.00  0.00    +0.017 C 
ATOM     18  C   LIG A   1      -1.907   6.518 131.315  0.00  0.00    +0.012 C 
ATOM     19  C   LIG A   1      -2.080   6.491 128.841  0.00  0.00    +0.012 C 
ENDBRANCH   7  17
BRANCH   3  20
ATOM     20  C   LIG A   1      -8.497   3.946 128.628  0.00  0.00    +0.318 C 
ATOM     21  O   LIG A   1      -8.773   2.783 128.311  0.00  0.00    -0.250 OA
BRANCH  20  22
ATOM     22  O   LIG A   1      -8.318   4.955 127.725  0.00  0.00    -0.467 OA
ATOM     23  C   LIG A   1      -7.876   4.541 126.434  0.00  0.00    +0.280 C 
ENDBRANCH  20  22
ENDBRANCH   3  20
BRANCH   6  24
ATOM     24  O   LIG A   1      -3.482   3.002 129.493  0.00  0.00    -0.491 OA
ATOM     25  C   LIG A   1      -3.344   2.989 128.072  0.00  0.00    +0.277 C 
ENDBRANCH   6  24
BRANCH   5  26
ATOM     26  O   LIG A   1      -6.229   2.457 129.589  0.00  0.00    -0.491 OA
ATOM     27  C   LIG A   1      -6.000   1.434 130.555  0.00  0.00    +0.277 C 
ENDBRANCH   5  26
TORSDOF 5
ENDMDL
MODEL 4
REMARK VINA RESULT:      -6.6      2.773      5.082
REMARK  Name = NuBBE_2381
REMARK  12 active torsions:
REMARK  status: ('A' for Active; 'I' for Inactive)
REMARK    1  A    between atoms: C_1  and  C_26
REMARK    2  A    between atoms: C_1  and  C_27
REMARK    3  A    between atoms: C_3  and  C_4
REMARK    4  A    between atoms: C_4  and  O_6
REMARK    5  A    between atoms: O_6  and  C_7
REMARK    6  A    between atoms: C_9  and  O_21
REMARK    7  A    between atoms: C_10  and  O_11
REMARK    8  A    between atoms: O_11  and  C_12
REMARK    9  A    between atoms: C_13  and  C_18
REMARK   10  A    between atoms: C_18  and  C_19
REMARK   11  A    between atoms: C_18  and  C_20
REMARK   12  A    between atoms: O_21  and  C_22
REMARK                            x       y       z     vdW  Elec       q    Type
REMARK                         _______ _______ _______ _____ _____    ______ ____
ROOT
ATOM      1  C   LIG A   1      -7.950  -2.293 123.733  0.00  0.00    -0.031 C 
ATOM      2  C   LIG A   1      -7.860  -1.082 124.759  0.00  0.00    +0.016 C 
ATOM      3  C   LIG A   1      -7.567  -1.465 126.276  0.00  0.00    +0.100 C 
ATOM      4  C   LIG A   1      -7.993  -0.356 127.309  0.00  0.00    +0.018 A 
ATOM      5  C   LIG A   1      -7.707  -0.444 128.701  0.00  0.00    +0.166 A 
ATOM      6  C   LIG A   1      -7.956   0.642 129.597  0.00  0.00    +0.165 A 
ATOM      7  C   LIG A   1      -8.517   1.846 129.130  0.00  0.00    +0.001 A 
ATOM      8  C   LIG A   1      -8.837   1.894 127.764  0.00  0.00    +0.011 A 
ATOM      9  C   LIG A   1      -8.586   0.836 126.867  0.00  0.00    -0.039 A 
ATOM     10  C   LIG A   1      -8.875   1.111 125.421  0.00  0.00    +0.036 C 
ATOM     11  C   LIG A   1      -9.086  -0.164 124.639  0.00  0.00    +0.010 C 
ATOM     12  C   LIG A   1      -8.333  -2.779 126.575  0.00  0.00    +0.023 C 
ATOM     13  C   LIG A   1      -8.027  -3.964 125.652  0.00  0.00    +0.002 C 
ATOM     14  C   LIG A   1      -7.377  -3.589 124.328  0.00  0.00    +0.007 C 
ATOM     15  C   LIG A   1      -9.382  -2.604 123.229  0.00  0.00    +0.011 C 
ATOM     16  C   LIG A   1      -7.108  -1.929 122.487  0.00  0.00    +0.011 C 
ENDROOT
BRANCH   7  17
ATOM     17  C   LIG A   1      -8.727   3.095 129.994  0.00  0.00    +0.017 C 
ATOM     18  C   LIG A   1     -10.189   3.299 130.445  0.00  0.00    +0.012 C 
ATOM     19  C   LIG A   1      -8.276   4.390 129.303  0.00  0.00    +0.012 C 
ENDBRANCH   7  17
BRANCH   3  20
ATOM     20  C   LIG A   1      -6.027  -1.640 126.428  0.00  0.00    +0.318 C 
ATOM     21  O   LIG A   1      -5.466  -2.453 127.171  0.00  0.00    -0.250 OA
BRANCH  20  22
ATOM     22  O   LIG A   1      -5.360  -0.741 125.646  0.00  0.00    -0.467 OA
ATOM     23  C   LIG A   1      -4.963   0.459 126.307  0.00  0.00    +0.280 C 
ENDBRANCH  20  22
ENDBRANCH   3  20
BRANCH   6  24
ATOM     24  O   LIG A   1      -7.463   0.569 130.882  0.00  0.00    -0.491 OA
ATOM     25  C   LIG A   1      -8.456   0.250 131.857  0.00  0.00    +0.277 C 
ENDBRANCH   6  24
BRANCH   5  26
ATOM     26  O   LIG A   1      -7.033  -1.569 129.124  0.00  0.00    -0.491 OA
ATOM     27  C   LIG A   1      -7.861  -2.501 129.817  0.00  0.00    +0.277 C 
ENDBRANCH   5  26
TORSDOF 5
ENDMDL
MODEL 5
REMARK VINA RESULT:      -6.5      4.033      6.306
REMARK  Name = NuBBE_2381
REMARK  12 active torsions:
REMARK  status: ('A' for Active; 'I' for Inactive)
REMARK    1  A    between atoms: C_1  and  C_26
REMARK    2  A    between atoms: C_1  and  C_27
REMARK    3  A    between atoms: C_3  and  C_4
REMARK    4  A    between atoms: C_4  and  O_6
REMARK    5  A    between atoms: O_6  and  C_7
REMARK    6  A    between atoms: C_9  and  O_21
REMARK    7  A    between atoms: C_10  and  O_11
REMARK    8  A    between atoms: O_11  and  C_12
REMARK    9  A    between atoms: C_13  and  C_18
REMARK   10  A    between atoms: C_18  and  C_19
REMARK   11  A    between atoms: C_18  and  C_20
REMARK   12  A    between atoms: O_21  and  C_22
REMARK                            x       y       z     vdW  Elec       q    Type
REMARK                         _______ _______ _______ _____ _____    ______ ____
ROOT
ATOM      1  C   LIG A   1      -7.972  -2.302 125.053  0.00  0.00    -0.031 C 
ATOM      2  C   LIG A   1      -8.025  -2.280 126.642  0.00  0.00    +0.016 C 
ATOM      3  C   LIG A   1      -6.739  -1.702 127.381  0.00  0.00    +0.100 C 
ATOM      4  C   LIG A   1      -6.604  -2.163 128.880  0.00  0.00    +0.018 A 
ATOM      5  C   LIG A   1      -5.597  -1.663 129.755  0.00  0.00    +0.166 A 
ATOM      6  C   LIG A   1      -5.586  -1.967 131.152  0.00  0.00    +0.165 A 
ATOM      7  C   LIG A   1      -6.574  -2.798 131.715  0.00  0.00    +0.001 A 
ATOM      8  C   LIG A   1      -7.528  -3.319 130.827  0.00  0.00    +0.011 A 
ATOM      9  C   LIG A   1      -7.558  -3.018 129.450  0.00  0.00    -0.039 A 
ATOM     10  C   LIG A   1      -8.724  -3.561 128.678  0.00  0.00    +0.036 C 
ATOM     11  C   LIG A   1      -8.424  -3.654 127.201  0.00  0.00    +0.010 C 
ATOM     12  C   LIG A   1      -5.499  -2.169 126.577  0.00  0.00    +0.023 C 
ATOM     13  C   LIG A   1      -5.478  -1.795 125.090  0.00  0.00    +0.002 C 
ATOM     14  C   LIG A   1      -6.834  -1.425 124.508  0.00  0.00    +0.007 C 
ATOM     15  C   LIG A   1      -7.811  -3.714 124.435  0.00  0.00    +0.011 C 
ATOM     16  C   LIG A   1      -9.309  -1.732 124.521  0.00  0.00    +0.011 C 
ENDROOT
BRANCH   7  17
ATOM     17  C   LIG A   1      -6.702  -3.097 133.214  0.00  0.00    +0.017 C 
ATOM     18  C   LIG A   1      -6.158  -4.484 133.617  0.00  0.00    +0.012 C 
ATOM     19  C   LIG A   1      -8.145  -3.005 133.727  0.00  0.00    +0.012 C 
ENDBRANCH   7  17
BRANCH   3  20
ATOM     20  C   LIG A   1      -6.868  -0.151 127.407  0.00  0.00    +0.318 C 
ATOM     21  O   LIG A   1      -6.061   0.646 126.916  0.00  0.00    -0.250 OA
BRANCH  20  22
ATOM     22  O   LIG A   1      -7.993   0.229 128.082  0.00  0.00    -0.467 OA
ATOM     23  C   LIG A   1      -8.043   1.606 128.449  0.00  0.00    +0.280 C 
ENDBRANCH  20  22
ENDBRANCH   3  20
BRANCH   6  24
ATOM     24  O   LIG A   1      -4.715  -1.285 131.974  0.00  0.00    -0.491 OA
ATOM     25  C   LIG A   1      -3.501  -1.992 132.230  0.00  0.00    +0.277 C 
ENDBRANCH   6  24
BRANCH   5  26
ATOM     26  O   LIG A   1      -4.717  -0.744 129.225  0.00  0.00    -0.491 OA
ATOM     27  C   LIG A   1      -4.730   0.511 129.901  0.00  0.00    +0.277 C 
ENDBRANCH   5  26
TORSDOF 5
ENDMDL
MODEL 6
REMARK VINA RESULT:      -6.5      3.580      6.347
REMARK  Name = NuBBE_2381
REMARK  12 active torsions:
REMARK  status: ('A' for Active; 'I' for Inactive)
REMARK    1  A    between atoms: C_1  and  C_26
REMARK    2  A    between atoms: C_1  and  C_27
REMARK    3  A    between atoms: C_3  and  C_4
REMARK    4  A    between atoms: C_4  and  O_6
REMARK    5  A    between atoms: O_6  and  C_7
REMARK    6  A    between atoms: C_9  and  O_21
REMARK    7  A    between atoms: C_10  and  O_11
REMARK    8  A    between atoms: O_11  and  C_12
REMARK    9  A    between atoms: C_13  and  C_18
REMARK   10  A    between atoms: C_18  and  C_19
REMARK   11  A    between atoms: C_18  and  C_20
REMARK   12  A    between atoms: O_21  and  C_22
REMARK                            x       y       z     vdW  Elec       q    Type
REMARK                         _______ _______ _______ _____ _____    ______ ____
ROOT
ATOM      1  C   LIG A   1      -6.842  -2.654 131.691  0.00  0.00    -0.031 C 
ATOM      2  C   LIG A   1      -6.992  -2.780 130.113  0.00  0.00    +0.016 C 
ATOM      3  C   LIG A   1      -6.716  -1.457 129.272  0.00  0.00    +0.100 C 
ATOM      4  C   LIG A   1      -7.360  -1.468 127.835  0.00  0.00    +0.018 A 
ATOM      5  C   LIG A   1      -7.130  -0.439 126.877  0.00  0.00    +0.166 A 
ATOM      6  C   LIG A   1      -7.589  -0.543 125.527  0.00  0.00    +0.165 A 
ATOM      7  C   LIG A   1      -8.308  -1.675 125.097  0.00  0.00    +0.001 A 
ATOM      8  C   LIG A   1      -8.565  -2.655 126.069  0.00  0.00    +0.011 A 
ATOM      9  C   LIG A   1      -8.109  -2.570 127.400  0.00  0.00    -0.039 A 
ATOM     10  C   LIG A   1      -8.367  -3.768 128.266  0.00  0.00    +0.036 C 
ATOM     11  C   LIG A   1      -8.338  -3.415 129.734  0.00  0.00    +0.010 C 
ATOM     12  C   LIG A   1      -7.282  -0.267 130.088  0.00  0.00    +0.023 C 
ATOM     13  C   LIG A   1      -6.750  -0.116 131.519  0.00  0.00    +0.002 C 
ATOM     14  C   LIG A   1      -6.104  -1.368 132.093  0.00  0.00    +0.007 C 
ATOM     15  C   LIG A   1      -8.182  -2.686 132.468  0.00  0.00    +0.011 C 
ATOM     16  C   LIG A   1      -6.008  -3.858 132.190  0.00  0.00    +0.011 C 
ENDROOT
BRANCH   7  17
ATOM     17  C   LIG A   1      -8.751  -1.920 123.649  0.00  0.00    +0.017 C 
ATOM     18  C   LIG A   1      -9.600  -3.196 123.469  0.00  0.00    +0.012 C 
ATOM     19  C   LIG A   1      -7.576  -2.009 122.665  0.00  0.00    +0.012 C 
ENDBRANCH   7  17
BRANCH   3  20
ATOM     20  C   LIG A   1      -5.177  -1.343 129.065  0.00  0.00    +0.318 C 
ATOM     21  O   LIG A   1      -4.498  -0.329 129.260  0.00  0.00    -0.250 OA
BRANCH  20  22
ATOM     22  O   LIG A   1      -4.665  -2.520 128.599  0.00  0.00    -0.467 OA
ATOM     23  C   LIG A   1      -3.503  -2.987 129.282  0.00  0.00    +0.280 C 
ENDBRANCH  20  22
ENDBRANCH   3  20
BRANCH   6  24
ATOM     24  O   LIG A   1      -7.153   0.383 124.604  0.00  0.00    -0.491 OA
ATOM     25  C   LIG A   1      -8.136   1.364 124.273  0.00  0.00    +0.277 C 
ENDBRANCH   6  24
BRANCH   5  26
ATOM     26  O   LIG A   1      -6.311   0.598 127.267  0.00  0.00    -0.491 OA
ATOM     27  C   LIG A   1      -7.015   1.806 127.544  0.00  0.00    +0.277 C 
ENDBRANCH   5  26
TORSDOF 5
ENDMDL
MODEL 7
REMARK VINA RESULT:      -6.5      2.194      5.651
REMARK  Name = NuBBE_2381
REMARK  12 active torsions:
REMARK  status: ('A' for Active; 'I' for Inactive)
REMARK    1  A    between atoms: C_1  and  C_26
REMARK    2  A    between atoms: C_1  and  C_27
REMARK    3  A    between atoms: C_3  and  C_4
REMARK    4  A    between atoms: C_4  and  O_6
REMARK    5  A    between atoms: O_6  and  C_7
REMARK    6  A    between atoms: C_9  and  O_21
REMARK    7  A    between atoms: C_10  and  O_11
REMARK    8  A    between atoms: O_11  and  C_12
REMARK    9  A    between atoms: C_13  and  C_18
REMARK   10  A    between atoms: C_18  and  C_19
REMARK   11  A    between atoms: C_18  and  C_20
REMARK   12  A    between atoms: O_21  and  C_22
REMARK                            x       y       z     vdW  Elec       q    Type
REMARK                         _______ _______ _______ _____ _____    ______ ____
ROOT
ATOM      1  C   LIG A   1      -7.351   2.824 123.631  0.00  0.00    -0.031 C 
ATOM      2  C   LIG A   1      -6.719   1.635 124.476  0.00  0.00    +0.016 C 
ATOM      3  C   LIG A   1      -7.704   0.445 124.862  0.00  0.00    +0.100 C 
ATOM      4  C   LIG A   1      -7.218  -0.414 126.089  0.00  0.00    +0.018 A 
ATOM      5  C   LIG A   1      -7.886  -1.596 126.518  0.00  0.00    +0.166 A 
ATOM      6  C   LIG A   1      -7.342  -2.451 127.527  0.00  0.00    +0.165 A 
ATOM      7  C   LIG A   1      -6.119  -2.138 128.153  0.00  0.00    +0.001 A 
ATOM      8  C   LIG A   1      -5.502  -0.944 127.749  0.00  0.00    +0.011 A 
ATOM      9  C   LIG A   1      -6.021  -0.098 126.748  0.00  0.00    -0.039 A 
ATOM     10  C   LIG A   1      -5.163   1.069 126.356  0.00  0.00    +0.036 C 
ATOM     11  C   LIG A   1      -5.972   2.167 125.708  0.00  0.00    +0.010 C 
ATOM     12  C   LIG A   1      -9.083   1.076 125.180  0.00  0.00    +0.023 C 
ATOM     13  C   LIG A   1      -9.698   1.947 124.078  0.00  0.00    +0.002 C 
ATOM     14  C   LIG A   1      -8.711   2.438 123.029  0.00  0.00    +0.007 C 
ATOM     15  C   LIG A   1      -7.549   4.141 124.424  0.00  0.00    +0.011 C 
ATOM     16  C   LIG A   1      -6.388   3.147 122.464  0.00  0.00    +0.011 C 
ENDROOT
BRANCH   7  17
ATOM     17  C   LIG A   1      -5.412  -3.042 129.169  0.00  0.00    +0.017 C 
ATOM     18  C   LIG A   1      -5.712  -2.676 130.638  0.00  0.00    +0.012 C 
ATOM     19  C   LIG A   1      -3.885  -3.056 129.005  0.00  0.00    +0.012 C 
ENDBRANCH   7  17
BRANCH   3  20
ATOM     20  C   LIG A   1      -7.772  -0.524 123.645  0.00  0.00    +0.318 C 
ATOM     21  O   LIG A   1      -8.803  -0.864 123.053  0.00  0.00    -0.250 OA
BRANCH  20  22
ATOM     22  O   LIG A   1      -6.527  -0.986 123.327  0.00  0.00    -0.467 OA
ATOM     23  C   LIG A   1      -6.506  -2.116 122.456  0.00  0.00    +0.280 C 
ENDBRANCH  20  22
ENDBRANCH   3  20
BRANCH   6  24
ATOM     24  O   LIG A   1      -7.928  -3.680 127.744  0.00  0.00    -0.491 OA
ATOM     25  C   LIG A   1      -8.823  -3.697 128.856  0.00  0.00    +0.277 C 
ENDBRANCH   6  24
BRANCH   5  26
ATOM     26  O   LIG A   1      -9.007  -1.966 125.808  0.00  0.00    -0.491 OA
ATOM     27  C   LIG A   1      -8.904  -3.257 125.213  0.00  0.00    +0.277 C 
ENDBRANCH   5  26
TORSDOF 5
ENDMDL
MODEL 8
REMARK VINA RESULT:      -6.2      3.947      8.526
REMARK  Name = NuBBE_2381
REMARK  12 active torsions:
REMARK  status: ('A' for Active; 'I' for Inactive)
REMARK    1  A    between atoms: C_1  and  C_26
REMARK    2  A    between atoms: C_1  and  C_27
REMARK    3  A    between atoms: C_3  and  C_4
REMARK    4  A    between atoms: C_4  and  O_6
REMARK    5  A    between atoms: O_6  and  C_7
REMARK    6  A    between atoms: C_9  and  O_21
REMARK    7  A    between atoms: C_10  and  O_11
REMARK    8  A    between atoms: O_11  and  C_12
REMARK    9  A    between atoms: C_13  and  C_18
REMARK   10  A    between atoms: C_18  and  C_19
REMARK   11  A    between atoms: C_18  and  C_20
REMARK   12  A    between atoms: O_21  and  C_22
REMARK                            x       y       z     vdW  Elec       q    Type
REMARK                         _______ _______ _______ _____ _____    ______ ____
ROOT
ATOM      1  C   LIG A   1      -2.525   6.450 131.076  0.00  0.00    -0.031 C 
ATOM      2  C   LIG A   1      -3.867   5.601 131.165  0.00  0.00    +0.016 C 
ATOM      3  C   LIG A   1      -4.436   5.038 129.790  0.00  0.00    +0.100 C 
ATOM      4  C   LIG A   1      -5.968   4.677 129.833  0.00  0.00    +0.018 A 
ATOM      5  C   LIG A   1      -6.644   4.045 128.751  0.00  0.00    +0.166 A 
ATOM      6  C   LIG A   1      -7.991   3.579 128.866  0.00  0.00    +0.165 A 
ATOM      7  C   LIG A   1      -8.711   3.748 130.065  0.00  0.00    +0.001 A 
ATOM      8  C   LIG A   1      -8.043   4.418 131.102  0.00  0.00    +0.011 A 
ATOM      9  C   LIG A   1      -6.712   4.872 131.006  0.00  0.00    -0.039 A 
ATOM     10  C   LIG A   1      -6.117   5.450 132.256  0.00  0.00    +0.036 C 
ATOM     11  C   LIG A   1      -4.948   6.357 131.953  0.00  0.00    +0.010 C 
ATOM     12  C   LIG A   1      -4.185   6.122 128.711  0.00  0.00    +0.023 C 
ATOM     13  C   LIG A   1      -2.733   6.584 128.542  0.00  0.00    +0.002 C 
ATOM     14  C   LIG A   1      -1.824   6.267 129.721  0.00  0.00    +0.007 C 
ATOM     15  C   LIG A   1      -2.711   7.971 131.304  0.00  0.00    +0.011 C 
ATOM     16  C   LIG A   1      -1.566   5.947 132.181  0.00  0.00    +0.011 C 
ENDROOT
BRANCH   7  17
ATOM     17  C   LIG A   1     -10.119   3.195 130.314  0.00  0.00    +0.017 C 
ATOM     18  C   LIG A   1     -11.200   4.288 130.451  0.00  0.00    +0.012 C 
ATOM     19  C   LIG A   1     -10.206   2.307 131.563  0.00  0.00    +0.012 C 
ENDBRANCH   7  17
BRANCH   3  20
ATOM     20  C   LIG A   1      -3.681   3.714 129.474  0.00  0.00    +0.318 C 
ATOM     21  O   LIG A   1      -3.070   3.466 128.428  0.00  0.00    -0.250 OA
BRANCH  20  22
ATOM     22  O   LIG A   1      -3.807   2.828 130.507  0.00  0.00    -0.467 OA
ATOM     23  C   LIG A   1      -4.189   1.507 130.128  0.00  0.00    +0.280 C 
ENDBRANCH  20  22
ENDBRANCH   3  20
BRANCH   6  24
ATOM     24  O   LIG A   1      -8.511   2.792 127.861  0.00  0.00    -0.491 OA
ATOM     25  C   LIG A   1      -8.238   1.400 128.027  0.00  0.00    +0.277 C 
ENDBRANCH   6  24
BRANCH   5  26
ATOM     26  O   LIG A   1      -5.892   3.760 127.632  0.00  0.00    -0.491 OA
ATOM     27  C   LIG A   1      -6.314   4.466 126.468  0.00  0.00    +0.277 C 
ENDBRANCH   5  26
TORSDOF 5
ENDMDL
MODEL 9
REMARK VINA RESULT:      -6.2      2.698      5.916
REMARK  Name = NuBBE_2381
REMARK  12 active torsions:
REMARK  status: ('A' for Active; 'I' for Inactive)
REMARK    1  A    between atoms: C_1  and  C_26
REMARK    2  A    between atoms: C_1  and  C_27
REMARK    3  A    between atoms: C_3  and  C_4
REMARK    4  A    between atoms: C_4  and  O_6
REMARK    5  A    between atoms: O_6  and  C_7
REMARK    6  A    between atoms: C_9  and  O_21
REMARK    7  A    between atoms: C_10  and  O_11
REMARK    8  A    between atoms: O_11  and  C_12
REMARK    9  A    between atoms: C_13  and  C_18
REMARK   10  A    between atoms: C_18  and  C_19
REMARK   11  A    between atoms: C_18  and  C_20
REMARK   12  A    between atoms: O_21  and  C_22
REMARK                            x       y       z     vdW  Elec       q    Type
REMARK                         _______ _______ _______ _____ _____    ______ ____
ROOT
ATOM      1  C   LIG A   1      -7.193   0.924 131.059  0.00  0.00    -0.031 C 
ATOM      2  C   LIG A   1      -7.173   0.300 129.597  0.00  0.00    +0.016 C 
ATOM      3  C   LIG A   1      -7.707   1.236 128.425  0.00  0.00    +0.100 C 
ATOM      4  C   LIG A   1      -8.157   0.450 127.137  0.00  0.00    +0.018 A 
ATOM      5  C   LIG A   1      -8.548   1.101 125.932  0.00  0.00    +0.166 A 
ATOM      6  C   LIG A   1      -8.797   0.377 124.724  0.00  0.00    +0.165 A 
ATOM      7  C   LIG A   1      -8.679  -1.026 124.689  0.00  0.00    +0.001 A 
ATOM      8  C   LIG A   1      -8.340  -1.651 125.899  0.00  0.00    +0.011 A 
ATOM      9  C   LIG A   1      -8.081  -0.949 127.094  0.00  0.00    -0.039 A 
ATOM     10  C   LIG A   1      -7.607  -1.771 128.256  0.00  0.00    +0.036 C 
ATOM     11  C   LIG A   1      -7.856  -1.075 129.573  0.00  0.00    +0.010 C 
ATOM     12  C   LIG A   1      -8.905   2.040 128.990  0.00  0.00    +0.023 C 
ATOM     13  C   LIG A   1      -8.629   2.865 130.253  0.00  0.00    +0.002 C 
ATOM     14  C   LIG A   1      -7.387   2.448 131.027  0.00  0.00    +0.007 C 
ATOM     15  C   LIG A   1      -8.280   0.335 131.994  0.00  0.00    +0.011 C 
ATOM     16  C   LIG A   1      -5.827   0.632 131.724  0.00  0.00    +0.011 C 
ENDROOT
BRANCH   7  17
ATOM     17  C   LIG A   1      -8.827  -1.875 123.421  0.00  0.00    +0.017 C 
ATOM     18  C   LIG A   1      -9.409  -3.281 123.682  0.00  0.00    +0.012 C 
ATOM     19  C   LIG A   1      -7.507  -2.061 122.661  0.00  0.00    +0.012 C 
ENDBRANCH   7  17
BRANCH   3  20
ATOM     20  C   LIG A   1      -6.534   2.162 127.990  0.00  0.00    +0.318 C 
ATOM     21  O   LIG A   1      -6.555   3.398 127.994  0.00  0.00    -0.250 OA
BRANCH  20  22
ATOM     22  O   LIG A   1      -5.468   1.422 127.563  0.00  0.00    -0.467 OA
ATOM     23  C   LIG A   1      -4.555   2.113 126.712  0.00  0.00    +0.280 C 
ENDBRANCH  20  22
ENDBRANCH   3  20
BRANCH   6  24
ATOM     24  O   LIG A   1      -8.963   1.080 123.550  0.00  0.00    -0.491 OA
ATOM     25  C   LIG A   1     -10.327   1.196 123.143  0.00  0.00    +0.277 C 
ENDBRANCH   6  24
BRANCH   5  26
ATOM     26  O   LIG A   1      -8.527   2.479 125.938  0.00  0.00    -0.491 OA
ATOM     27  C   LIG A   1      -7.676   3.040 124.941  0.00  0.00    +0.277 C 
ENDBRANCH   5  26
TORSDOF 5
ENDMDL
