MODEL 1
REMARK VINA RESULT:      -7.0      0.000      0.000
REMARK  Name = NuBBE_1570
REMARK  2 active torsions:
REMARK  status: ('A' for Active; 'I' for Inactive)
REMARK    1  A    between atoms: C_6  and  C_7
REMARK    2  A    between atoms: C_6  and  C_8
REMARK                            x       y       z     vdW  Elec       q    Type
REMARK                         _______ _______ _______ _____ _____    ______ ____
ROOT
ATOM      1  O   LIG A   1     -11.049   0.586 122.593  0.00  0.00    -0.267 OA
ATOM      2  C   LIG A   1      -9.996   0.812 123.180  0.00  0.00    +0.260 A 
ATOM      3  C   LIG A   1      -8.944  -0.223 123.332  0.00  0.00    +0.081 A 
ATOM      4  C   LIG A   1      -7.815   0.078 123.980  0.00  0.00    +0.143 A 
ATOM      5  O   LIG A   1      -6.819  -0.820 124.223  0.00  0.00    -0.481 OA
ATOM      6  C   LIG A   1      -7.021  -2.154 123.706  0.00  0.00    +0.123 C 
ATOM      7  C   LIG A   1      -7.293  -2.944 124.997  0.00  0.00    +0.060 C 
ATOM      8  C   LIG A   1      -6.056  -2.158 122.525  0.00  0.00    +0.060 C 
ATOM      9  C   LIG A   1      -8.277  -2.491 122.952  0.00  0.00    +0.020 C 
ATOM     10  C   LIG A   1      -9.172  -1.548 122.817  0.00  0.00    +0.016 C 
ATOM     11  C   LIG A   1      -7.527   1.427 124.493  0.00  0.00    +0.041 A 
ATOM     12  C   LIG A   1      -8.534   2.384 124.337  0.00  0.00    +0.053 A 
ATOM     13  C   LIG A   1      -8.345   3.687 124.775  0.00  0.00    +0.026 A 
ATOM     14  C   LIG A   1      -7.121   4.064 125.324  0.00  0.00    +0.002 A 
ATOM     15  C   LIG A   1      -6.102   3.127 125.479  0.00  0.00    +0.001 A 
ATOM     16  C   LIG A   1      -6.318   1.809 125.078  0.00  0.00    +0.013 A 
ATOM     17  N   LIG A   1      -9.737   2.038 123.717  0.00  0.00    -0.321 N 
ATOM     18  H   LIG A   1     -10.463   2.722 123.581  0.00  0.00    +0.169 HD
ENDROOT
TORSDOF 0
ENDMDL
MODEL 2
REMARK VINA RESULT:      -6.9      1.705      4.546
REMARK  Name = NuBBE_1570
REMARK  2 active torsions:
REMARK  status: ('A' for Active; 'I' for Inactive)
REMARK    1  A    between atoms: C_6  and  C_7
REMARK    2  A    between atoms: C_6  and  C_8
REMARK                            x       y       z     vdW  Elec       q    Type
REMARK                         _______ _______ _______ _____ _____    ______ ____
ROOT
ATOM      1  O   LIG A   1     -10.936   0.179 122.472  0.00  0.00    -0.267 OA
ATOM      2  C   LIG A   1      -9.801  -0.101 122.843  0.00  0.00    +0.260 A 
ATOM      3  C   LIG A   1      -8.783   0.944 123.111  0.00  0.00    +0.081 A 
ATOM      4  C   LIG A   1      -7.561   0.582 123.515  0.00  0.00    +0.143 A 
ATOM      5  O   LIG A   1      -6.542   1.463 123.727  0.00  0.00    -0.481 OA
ATOM      6  C   LIG A   1      -6.852   2.859 123.525  0.00  0.00    +0.123 C 
ATOM      7  C   LIG A   1      -6.096   3.154 122.219  0.00  0.00    +0.060 C 
ATOM      8  C   LIG A   1      -6.916   3.355 124.965  0.00  0.00    +0.060 C 
ATOM      9  C   LIG A   1      -8.232   3.274 123.098  0.00  0.00    +0.020 C 
ATOM     10  C   LIG A   1      -9.111   2.329 122.893  0.00  0.00    +0.016 C 
ATOM     11  C   LIG A   1      -7.193  -0.817 123.781  0.00  0.00    +0.041 A 
ATOM     12  C   LIG A   1      -8.170  -1.782 123.520  0.00  0.00    +0.053 A 
ATOM     13  C   LIG A   1      -7.918  -3.126 123.758  0.00  0.00    +0.026 A 
ATOM     14  C   LIG A   1      -6.702  -3.516 124.315  0.00  0.00    +0.002 A 
ATOM     15  C   LIG A   1      -5.719  -2.568 124.591  0.00  0.00    +0.001 A 
ATOM     16  C   LIG A   1      -5.965  -1.225 124.306  0.00  0.00    +0.013 A 
ATOM     17  N   LIG A   1      -9.422  -1.395 123.036  0.00  0.00    -0.321 N 
ATOM     18  H   LIG A   1     -10.141  -2.078 122.861  0.00  0.00    +0.169 HD
ENDROOT
TORSDOF 0
ENDMDL
MODEL 3
REMARK VINA RESULT:      -6.8      7.989      9.475
REMARK  Name = NuBBE_1570
REMARK  2 active torsions:
REMARK  status: ('A' for Active; 'I' for Inactive)
REMARK    1  A    between atoms: C_6  and  C_7
REMARK    2  A    between atoms: C_6  and  C_8
REMARK                            x       y       z     vdW  Elec       q    Type
REMARK                         _______ _______ _______ _____ _____    ______ ____
ROOT
ATOM      1  O   LIG A   1     -12.349   6.635 132.420  0.00  0.00    -0.267 OA
ATOM      2  C   LIG A   1     -11.811   6.731 131.322  0.00  0.00    +0.260 A 
ATOM      3  C   LIG A   1     -10.381   6.389 131.117  0.00  0.00    +0.081 A 
ATOM      4  C   LIG A   1      -9.845   6.511 129.899  0.00  0.00    +0.143 A 
ATOM      5  O   LIG A   1      -8.530   6.281 129.624  0.00  0.00    -0.481 OA
ATOM      6  C   LIG A   1      -7.711   5.851 130.733  0.00  0.00    +0.123 C 
ATOM      7  C   LIG A   1      -6.864   7.108 130.994  0.00  0.00    +0.060 C 
ATOM      8  C   LIG A   1      -7.523   4.375 130.402  0.00  0.00    +0.060 C 
ATOM      9  C   LIG A   1      -8.314   5.685 132.100  0.00  0.00    +0.020 C 
ATOM     10  C   LIG A   1      -9.582   5.973 132.240  0.00  0.00    +0.016 C 
ATOM     11  C   LIG A   1     -10.632   6.902 128.719  0.00  0.00    +0.041 A 
ATOM     12  C   LIG A   1     -11.976   7.218 128.939  0.00  0.00    +0.053 A 
ATOM     13  C   LIG A   1     -12.799   7.581 127.882  0.00  0.00    +0.026 A 
ATOM     14  C   LIG A   1     -12.301   7.576 126.581  0.00  0.00    +0.002 A 
ATOM     15  C   LIG A   1     -10.967   7.254 126.340  0.00  0.00    +0.001 A 
ATOM     16  C   LIG A   1     -10.136   6.936 127.414  0.00  0.00    +0.013 A 
ATOM     17  N   LIG A   1     -12.507   7.150 130.229  0.00  0.00    -0.321 N 
ATOM     18  H   LIG A   1     -13.478   7.357 130.399  0.00  0.00    +0.169 HD
ENDROOT
TORSDOF 0
ENDMDL
MODEL 4
REMARK VINA RESULT:      -6.8      8.149      9.980
REMARK  Name = NuBBE_1570
REMARK  2 active torsions:
REMARK  status: ('A' for Active; 'I' for Inactive)
REMARK    1  A    between atoms: C_6  and  C_7
REMARK    2  A    between atoms: C_6  and  C_8
REMARK                            x       y       z     vdW  Elec       q    Type
REMARK                         _______ _______ _______ _____ _____    ______ ____
ROOT
ATOM      1  O   LIG A   1      -8.941   4.072 134.212  0.00  0.00    -0.267 OA
ATOM      2  C   LIG A   1      -9.099   4.821 133.254  0.00  0.00    +0.260 A 
ATOM      3  C   LIG A   1      -7.996   5.134 132.312  0.00  0.00    +0.081 A 
ATOM      4  C   LIG A   1      -8.224   5.956 131.283  0.00  0.00    +0.143 A 
ATOM      5  O   LIG A   1      -7.262   6.351 130.402  0.00  0.00    -0.481 OA
ATOM      6  C   LIG A   1      -5.942   5.802 130.608  0.00  0.00    +0.123 C 
ATOM      7  C   LIG A   1      -5.179   7.028 131.137  0.00  0.00    +0.060 C 
ATOM      8  C   LIG A   1      -5.866   4.791 129.469  0.00  0.00    +0.060 C 
ATOM      9  C   LIG A   1      -5.686   4.855 131.747  0.00  0.00    +0.020 C 
ATOM     10  C   LIG A   1      -6.686   4.583 132.543  0.00  0.00    +0.016 C 
ATOM     11  C   LIG A   1      -9.553   6.516 130.991  0.00  0.00    +0.041 A 
ATOM     12  C   LIG A   1     -10.575   6.206 131.894  0.00  0.00    +0.053 A 
ATOM     13  C   LIG A   1     -11.865   6.676 131.690  0.00  0.00    +0.026 A 
ATOM     14  C   LIG A   1     -12.162   7.416 130.547  0.00  0.00    +0.002 A 
ATOM     15  C   LIG A   1     -11.159   7.726 129.631  0.00  0.00    +0.001 A 
ATOM     16  C   LIG A   1      -9.856   7.289 129.869  0.00  0.00    +0.013 A 
ATOM     17  N   LIG A   1     -10.307   5.399 133.002  0.00  0.00    -0.321 N 
ATOM     18  H   LIG A   1     -11.038   5.153 133.649  0.00  0.00    +0.169 HD
ENDROOT
TORSDOF 0
ENDMDL
MODEL 5
REMARK VINA RESULT:      -6.8      3.140      4.468
REMARK  Name = NuBBE_1570
REMARK  2 active torsions:
REMARK  status: ('A' for Active; 'I' for Inactive)
REMARK    1  A    between atoms: C_6  and  C_7
REMARK    2  A    between atoms: C_6  and  C_8
REMARK                            x       y       z     vdW  Elec       q    Type
REMARK                         _______ _______ _______ _____ _____    ______ ____
ROOT
ATOM      1  O   LIG A   1      -9.992   1.793 123.648  0.00  0.00    -0.267 OA
ATOM      2  C   LIG A   1      -8.949   2.366 123.352  0.00  0.00    +0.260 A 
ATOM      3  C   LIG A   1      -7.839   2.527 124.323  0.00  0.00    +0.081 A 
ATOM      4  C   LIG A   1      -6.723   3.159 123.946  0.00  0.00    +0.143 A 
ATOM      5  O   LIG A   1      -5.676   3.409 124.783  0.00  0.00    -0.481 OA
ATOM      6  C   LIG A   1      -5.806   2.918 126.134  0.00  0.00    +0.123 C 
ATOM      7  C   LIG A   1      -6.023   4.224 126.916  0.00  0.00    +0.060 C 
ATOM      8  C   LIG A   1      -4.852   1.728 126.105  0.00  0.00    +0.060 C 
ATOM      9  C   LIG A   1      -7.046   2.181 126.556  0.00  0.00    +0.020 C 
ATOM     10  C   LIG A   1      -7.995   2.037 125.668  0.00  0.00    +0.016 C 
ATOM     11  C   LIG A   1      -6.509   3.647 122.575  0.00  0.00    +0.041 A 
ATOM     12  C   LIG A   1      -7.570   3.483 121.680  0.00  0.00    +0.053 A 
ATOM     13  C   LIG A   1      -7.452   3.897 120.360  0.00  0.00    +0.026 A 
ATOM     14  C   LIG A   1      -6.247   4.428 119.905  0.00  0.00    +0.002 A 
ATOM     15  C   LIG A   1      -5.175   4.590 120.780  0.00  0.00    +0.001 A 
ATOM     16  C   LIG A   1      -5.319   4.214 122.115  0.00  0.00    +0.013 A 
ATOM     17  N   LIG A   1      -8.756   2.879 122.104  0.00  0.00    -0.321 N 
ATOM     18  H   LIG A   1      -9.520   2.738 121.465  0.00  0.00    +0.169 HD
ENDROOT
TORSDOF 0
ENDMDL
MODEL 6
REMARK VINA RESULT:      -6.5      4.088      5.809
REMARK  Name = NuBBE_1570
REMARK  2 active torsions:
REMARK  status: ('A' for Active; 'I' for Inactive)
REMARK    1  A    between atoms: C_6  and  C_7
REMARK    2  A    between atoms: C_6  and  C_8
REMARK                            x       y       z     vdW  Elec       q    Type
REMARK                         _______ _______ _______ _____ _____    ______ ____
ROOT
ATOM      1  O   LIG A   1      -9.660  -4.119 128.106  0.00  0.00    -0.267 OA
ATOM      2  C   LIG A   1      -8.816  -3.555 127.417  0.00  0.00    +0.260 A 
ATOM      3  C   LIG A   1      -7.529  -3.083 127.984  0.00  0.00    +0.081 A 
ATOM      4  C   LIG A   1      -6.644  -2.476 127.187  0.00  0.00    +0.143 A 
ATOM      5  O   LIG A   1      -5.463  -1.954 127.626  0.00  0.00    -0.481 OA
ATOM      6  C   LIG A   1      -5.176  -2.116 129.032  0.00  0.00    +0.123 C 
ATOM      7  C   LIG A   1      -5.366  -0.680 129.550  0.00  0.00    +0.060 C 
ATOM      8  C   LIG A   1      -4.106  -3.201 128.988  0.00  0.00    +0.060 C 
ATOM      9  C   LIG A   1      -6.155  -2.822 129.927  0.00  0.00    +0.020 C 
ATOM     10  C   LIG A   1      -7.269  -3.246 129.390  0.00  0.00    +0.016 C 
ATOM     11  C   LIG A   1      -6.854  -2.317 125.740  0.00  0.00    +0.041 A 
ATOM     12  C   LIG A   1      -8.075  -2.770 125.231  0.00  0.00    +0.053 A 
ATOM     13  C   LIG A   1      -8.355  -2.677 123.875  0.00  0.00    +0.026 A 
ATOM     14  C   LIG A   1      -7.391  -2.180 123.000  0.00  0.00    +0.002 A 
ATOM     15  C   LIG A   1      -6.164  -1.732 123.487  0.00  0.00    +0.001 A 
ATOM     16  C   LIG A   1      -5.911  -1.787 124.857  0.00  0.00    +0.013 A 
ATOM     17  N   LIG A   1      -9.019  -3.343 126.087  0.00  0.00    -0.321 N 
ATOM     18  H   LIG A   1      -9.894  -3.691 125.730  0.00  0.00    +0.169 HD
ENDROOT
TORSDOF 0
ENDMDL
MODEL 7
REMARK VINA RESULT:      -6.5      2.872      5.134
REMARK  Name = NuBBE_1570
REMARK  2 active torsions:
REMARK  status: ('A' for Active; 'I' for Inactive)
REMARK    1  A    between atoms: C_6  and  C_7
REMARK    2  A    between atoms: C_6  and  C_8
REMARK                            x       y       z     vdW  Elec       q    Type
REMARK                         _______ _______ _______ _____ _____    ______ ____
ROOT
ATOM      1  O   LIG A   1      -5.805   1.305 127.142  0.00  0.00    -0.267 OA
ATOM      2  C   LIG A   1      -6.513   0.311 127.025  0.00  0.00    +0.260 A 
ATOM      3  C   LIG A   1      -7.017  -0.142 125.705  0.00  0.00    +0.081 A 
ATOM      4  C   LIG A   1      -7.785  -1.234 125.634  0.00  0.00    +0.143 A 
ATOM      5  O   LIG A   1      -8.345  -1.692 124.479  0.00  0.00    -0.481 OA
ATOM      6  C   LIG A   1      -8.040  -0.945 123.281  0.00  0.00    +0.123 C 
ATOM      7  C   LIG A   1      -9.383  -0.249 123.004  0.00  0.00    +0.060 C 
ATOM      8  C   LIG A   1      -7.058  -1.887 122.592  0.00  0.00    +0.060 C 
ATOM      9  C   LIG A   1      -7.155   0.267 123.350  0.00  0.00    +0.020 C 
ATOM     10  C   LIG A   1      -6.709   0.624 124.525  0.00  0.00    +0.016 C 
ATOM     11  C   LIG A   1      -8.098  -2.064 126.808  0.00  0.00    +0.041 A 
ATOM     12  C   LIG A   1      -7.611  -1.616 128.039  0.00  0.00    +0.053 A 
ATOM     13  C   LIG A   1      -7.842  -2.343 129.198  0.00  0.00    +0.026 A 
ATOM     14  C   LIG A   1      -8.516  -3.561 129.131  0.00  0.00    +0.002 A 
ATOM     15  C   LIG A   1      -9.000  -4.029 127.911  0.00  0.00    +0.001 A 
ATOM     16  C   LIG A   1      -8.803  -3.268 126.759  0.00  0.00    +0.013 A 
ATOM     17  N   LIG A   1      -6.865  -0.436 128.108  0.00  0.00    -0.321 N 
ATOM     18  H   LIG A   1      -6.492  -0.113 128.986  0.00  0.00    +0.169 HD
ENDROOT
TORSDOF 0
ENDMDL
MODEL 8
REMARK VINA RESULT:      -6.3      3.024      4.951
REMARK  Name = NuBBE_1570
REMARK  2 active torsions:
REMARK  status: ('A' for Active; 'I' for Inactive)
REMARK    1  A    between atoms: C_6  and  C_7
REMARK    2  A    between atoms: C_6  and  C_8
REMARK                            x       y       z     vdW  Elec       q    Type
REMARK                         _______ _______ _______ _____ _____    ______ ____
ROOT
ATOM      1  O   LIG A   1      -8.756   2.007 127.161  0.00  0.00    -0.267 OA
ATOM      2  C   LIG A   1      -8.620   0.926 126.598  0.00  0.00    +0.260 A 
ATOM      3  C   LIG A   1      -8.114  -0.273 127.310  0.00  0.00    +0.081 A 
ATOM      4  C   LIG A   1      -7.988  -1.426 126.647  0.00  0.00    +0.143 A 
ATOM      5  O   LIG A   1      -7.476  -2.564 127.198  0.00  0.00    -0.481 OA
ATOM      6  C   LIG A   1      -7.090  -2.484 128.588  0.00  0.00    +0.123 C 
ATOM      7  C   LIG A   1      -5.557  -2.506 128.482  0.00  0.00    +0.060 C 
ATOM      8  C   LIG A   1      -8.219  -3.268 129.248  0.00  0.00    +0.060 C 
ATOM      9  C   LIG A   1      -7.257  -1.197 129.346  0.00  0.00    +0.020 C 
ATOM     10  C   LIG A   1      -7.727  -0.167 128.693  0.00  0.00    +0.016 C 
ATOM     11  C   LIG A   1      -8.400  -1.588 125.245  0.00  0.00    +0.041 A 
ATOM     12  C   LIG A   1      -8.874  -0.443 124.596  0.00  0.00    +0.053 A 
ATOM     13  C   LIG A   1      -9.302  -0.504 123.277  0.00  0.00    +0.026 A 
ATOM     14  C   LIG A   1      -9.315  -1.726 122.607  0.00  0.00    +0.002 A 
ATOM     15  C   LIG A   1      -8.857  -2.879 123.240  0.00  0.00    +0.001 A 
ATOM     16  C   LIG A   1      -8.385  -2.799 124.550  0.00  0.00    +0.013 A 
ATOM     17  N   LIG A   1      -8.939   0.772 125.282  0.00  0.00    -0.321 N 
ATOM     18  H   LIG A   1      -9.296   1.599 124.832  0.00  0.00    +0.169 HD
ENDROOT
TORSDOF 0
ENDMDL
MODEL 9
REMARK VINA RESULT:      -6.3      3.158      4.554
REMARK  Name = NuBBE_1570
REMARK  2 active torsions:
REMARK  status: ('A' for Active; 'I' for Inactive)
REMARK    1  A    between atoms: C_6  and  C_7
REMARK    2  A    between atoms: C_6  and  C_8
REMARK                            x       y       z     vdW  Elec       q    Type
REMARK                         _______ _______ _______ _____ _____    ______ ____
ROOT
ATOM      1  O   LIG A   1      -6.609   1.794 125.724  0.00  0.00    -0.267 OA
ATOM      2  C   LIG A   1      -6.920   0.729 126.248  0.00  0.00    +0.260 A 
ATOM      3  C   LIG A   1      -6.981  -0.537 125.476  0.00  0.00    +0.081 A 
ATOM      4  C   LIG A   1      -7.324  -1.669 126.098  0.00  0.00    +0.143 A 
ATOM      5  O   LIG A   1      -7.467  -2.867 125.463  0.00  0.00    -0.481 OA
ATOM      6  C   LIG A   1      -7.192  -2.877 124.046  0.00  0.00    +0.123 C 
ATOM      7  C   LIG A   1      -8.606  -3.026 123.460  0.00  0.00    +0.060 C 
ATOM      8  C   LIG A   1      -5.843  -3.588 124.016  0.00  0.00    +0.060 C 
ATOM      9  C   LIG A   1      -6.778  -1.612 123.347  0.00  0.00    +0.020 C 
ATOM     10  C   LIG A   1      -6.712  -0.520 124.062  0.00  0.00    +0.016 C 
ATOM     11  C   LIG A   1      -7.576  -1.737 127.545  0.00  0.00    +0.041 A 
ATOM     12  C   LIG A   1      -7.512  -0.531 128.249  0.00  0.00    +0.053 A 
ATOM     13  C   LIG A   1      -7.718  -0.501 129.622  0.00  0.00    +0.026 A 
ATOM     14  C   LIG A   1      -7.935  -1.689 130.317  0.00  0.00    +0.002 A 
ATOM     15  C   LIG A   1      -7.993  -2.902 129.634  0.00  0.00    +0.001 A 
ATOM     16  C   LIG A   1      -7.830  -2.916 128.249  0.00  0.00    +0.013 A 
ATOM     17  N   LIG A   1      -7.217   0.656 127.575  0.00  0.00    -0.321 N 
ATOM     18  H   LIG A   1      -7.149   1.529 128.073  0.00  0.00    +0.169 HD
ENDROOT
TORSDOF 0
ENDMDL
