MODEL 1
REMARK VINA RESULT:      -9.6      0.000      0.000
REMARK  Name = NuBBE_415
REMARK  9 active torsions:
REMARK  status: ('A' for Active; 'I' for Inactive)
REMARK    1  A    between atoms: C_3  and  C_4
REMARK    2  A    between atoms: C_5  and  C_12
REMARK    3  A    between atoms: C_7  and  O_11
REMARK    4  A    between atoms: C_16  and  C_35
REMARK    5  A    between atoms: C_19  and  C_34
REMARK    6  A    between atoms: C_20  and  C_33
REMARK    7  A    between atoms: C_23  and  C_32
REMARK    8  A    between atoms: C_26  and  C_27
REMARK    9  A    between atoms: C_26  and  C_30
REMARK                            x       y       z     vdW  Elec       q    Type
REMARK                         _______ _______ _______ _____ _____    ______ ____
ROOT
ATOM      1  C   LIG A   1      -7.350   0.678 124.108  0.00  0.00    +0.002 C 
ATOM      2  C   LIG A   1      -8.902   1.036 123.964  0.00  0.00    -0.024 C 
ATOM      3  C   LIG A   1      -9.798   0.265 122.933  0.00  0.00    +0.012 C 
ATOM      4  C   LIG A   1      -9.059   2.548 123.616  0.00  0.00    +0.021 C 
ATOM      5  C   LIG A   1      -8.265   2.762 122.307  0.00  0.00    +0.118 C 
ATOM      6  C   LIG A   1      -6.780   2.700 122.560  0.00  0.00    +0.032 C 
ATOM      7  C   LIG A   1      -6.429   1.276 123.004  0.00  0.00    +0.007 C 
ATOM      8  C   LIG A   1      -8.644   3.513 124.742  0.00  0.00    +0.010 C 
ATOM      9  C   LIG A   1      -9.538   0.679 125.313  0.00  0.00    +0.007 C 
ATOM     10  C   LIG A   1      -9.470  -0.845 125.498  0.00  0.00    +0.005 C 
ATOM     11  C   LIG A   1      -7.989  -1.302 125.629  0.00  0.00    +0.002 C 
ATOM     12  C   LIG A   1      -7.060  -0.850 124.443  0.00  0.00    -0.025 C 
ATOM     13  C   LIG A   1      -5.658  -1.037 125.071  0.00  0.00    +0.008 C 
ATOM     14  C   LIG A   1      -5.504  -2.488 125.536  0.00  0.00    +0.008 C 
ATOM     15  C   LIG A   1      -6.051  -2.899 127.075  0.00  0.00    -0.023 C 
ATOM     16  C   LIG A   1      -7.711  -2.748 126.350  0.00  0.00    -0.023 C 
ATOM     17  C   LIG A   1      -8.891  -2.877 127.367  0.00  0.00    +0.008 C 
ATOM     18  C   LIG A   1      -8.466  -3.343 128.678  0.00  0.00    +0.007 C 
ATOM     19  C   LIG A   1      -7.529  -2.267 129.246  0.00  0.00    -0.029 C 
ATOM     20  C   LIG A   1      -6.170  -2.831 128.834  0.00  0.00    +0.002 C 
ATOM     21  C   LIG A   1      -5.133  -2.389 129.988  0.00  0.00    +0.011 C 
ATOM     22  C   LIG A   1      -5.667  -2.550 131.499  0.00  0.00    -0.035 C 
ATOM     23  C   LIG A   1      -5.660  -1.163 132.231  0.00  0.00    +0.011 C 
ATOM     24  C   LIG A   1      -7.113  -3.083 131.530  0.00  0.00    +0.007 C 
ATOM     25  C   LIG A   1      -7.954  -2.173 130.721  0.00  0.00    +0.007 C 
ATOM     26  C   LIG A   1      -4.836  -3.531 132.344  0.00  0.00    +0.011 C 
ATOM     27  C   LIG A   1      -7.419  -0.783 128.784  0.00  0.00    +0.011 C 
ATOM     28  C   LIG A   1      -8.119  -3.903 125.370  0.00  0.00    +0.012 C 
ATOM     29  C   LIG A   1      -4.456  -3.026 127.194  0.00  0.00    +0.012 C 
ATOM     30  C   LIG A   1      -7.039  -1.624 123.095  0.00  0.00    +0.012 C 
ENDROOT
BRANCH   5  31
ATOM     31  O   LIG A   1      -8.654   3.981 121.663  0.00  0.00    -0.392 OA
ATOM     32  H   LIG A   1      -8.620   3.771 120.700  0.00  0.00    +0.210 HD
ENDBRANCH   5  31
TORSDOF 1
ENDMDL
MODEL 2
REMARK VINA RESULT:      -9.3      3.190      7.361
REMARK  Name = NuBBE_415
REMARK  9 active torsions:
REMARK  status: ('A' for Active; 'I' for Inactive)
REMARK    1  A    between atoms: C_3  and  C_4
REMARK    2  A    between atoms: C_5  and  C_12
REMARK    3  A    between atoms: C_7  and  O_11
REMARK    4  A    between atoms: C_16  and  C_35
REMARK    5  A    between atoms: C_19  and  C_34
REMARK    6  A    between atoms: C_20  and  C_33
REMARK    7  A    between atoms: C_23  and  C_32
REMARK    8  A    between atoms: C_26  and  C_27
REMARK    9  A    between atoms: C_26  and  C_30
REMARK                            x       y       z     vdW  Elec       q    Type
REMARK                         _______ _______ _______ _____ _____    ______ ____
ROOT
ATOM      1  C   LIG A   1      -6.720   0.609 131.501  0.00  0.00    +0.002 C 
ATOM      2  C   LIG A   1      -5.323   1.384 131.437  0.00  0.00    -0.024 C 
ATOM      3  C   LIG A   1      -4.074   0.826 132.203  0.00  0.00    +0.012 C 
ATOM      4  C   LIG A   1      -5.514   2.846 131.945  0.00  0.00    +0.021 C 
ATOM      5  C   LIG A   1      -6.071   2.723 133.381  0.00  0.00    +0.118 C 
ATOM      6  C   LIG A   1      -7.506   2.257 133.366  0.00  0.00    +0.032 C 
ATOM      7  C   LIG A   1      -7.540   0.831 132.807  0.00  0.00    +0.007 C 
ATOM      8  C   LIG A   1      -6.379   3.735 131.032  0.00  0.00    +0.010 C 
ATOM      9  C   LIG A   1      -4.884   1.329 129.968  0.00  0.00    +0.007 C 
ATOM     10  C   LIG A   1      -4.575  -0.132 129.605  0.00  0.00    +0.005 C 
ATOM     11  C   LIG A   1      -5.876  -0.983 129.657  0.00  0.00    +0.002 C 
ATOM     12  C   LIG A   1      -6.648  -0.908 131.026  0.00  0.00    -0.025 C 
ATOM     13  C   LIG A   1      -8.042  -1.441 130.614  0.00  0.00    +0.008 C 
ATOM     14  C   LIG A   1      -7.887  -2.835 129.999  0.00  0.00    +0.008 C 
ATOM     15  C   LIG A   1      -7.554  -2.952 128.353  0.00  0.00    -0.023 C 
ATOM     16  C   LIG A   1      -5.889  -2.388 128.813  0.00  0.00    -0.023 C 
ATOM     17  C   LIG A   1      -4.934  -2.094 127.610  0.00  0.00    +0.008 C 
ATOM     18  C   LIG A   1      -5.460  -2.560 126.337  0.00  0.00    +0.007 C 
ATOM     19  C   LIG A   1      -6.742  -1.758 126.070  0.00  0.00    -0.029 C 
ATOM     20  C   LIG A   1      -7.795  -2.718 126.621  0.00  0.00    +0.002 C 
ATOM     21  C   LIG A   1      -9.113  -2.505 125.714  0.00  0.00    +0.011 C 
ATOM     22  C   LIG A   1      -8.854  -2.389 124.129  0.00  0.00    -0.035 C 
ATOM     23  C   LIG A   1      -9.372  -1.011 123.591  0.00  0.00    +0.011 C 
ATOM     24  C   LIG A   1      -7.352  -2.481 123.798  0.00  0.00    +0.007 C 
ATOM     25  C   LIG A   1      -6.647  -1.434 124.569  0.00  0.00    +0.007 C 
ATOM     26  C   LIG A   1      -9.536  -3.500 123.312  0.00  0.00    +0.011 C 
ATOM     27  C   LIG A   1      -7.156  -0.408 126.728  0.00  0.00    +0.011 C 
ATOM     28  C   LIG A   1      -5.006  -3.449 129.560  0.00  0.00    +0.012 C 
ATOM     29  C   LIG A   1      -9.049  -3.521 128.478  0.00  0.00    +0.012 C 
ATOM     30  C   LIG A   1      -6.204  -1.757 132.250  0.00  0.00    +0.012 C 
ENDROOT
BRANCH   5  31
ATOM     31  O   LIG A   1      -5.909   3.948 134.103  0.00  0.00    -0.392 OA
ATOM     32  H   LIG A   1      -6.012   4.652 133.419  0.00  0.00    +0.210 HD
ENDBRANCH   5  31
TORSDOF 1
ENDMDL
MODEL 3
REMARK VINA RESULT:      -8.9      4.238      7.114
REMARK  Name = NuBBE_415
REMARK  9 active torsions:
REMARK  status: ('A' for Active; 'I' for Inactive)
REMARK    1  A    between atoms: C_3  and  C_4
REMARK    2  A    between atoms: C_5  and  C_12
REMARK    3  A    between atoms: C_7  and  O_11
REMARK    4  A    between atoms: C_16  and  C_35
REMARK    5  A    between atoms: C_19  and  C_34
REMARK    6  A    between atoms: C_20  and  C_33
REMARK    7  A    between atoms: C_23  and  C_32
REMARK    8  A    between atoms: C_26  and  C_27
REMARK    9  A    between atoms: C_26  and  C_30
REMARK                            x       y       z     vdW  Elec       q    Type
REMARK                         _______ _______ _______ _____ _____    ______ ____
ROOT
ATOM      1  C   LIG A   1      -7.829   2.609 131.017  0.00  0.00    +0.002 C 
ATOM      2  C   LIG A   1      -8.196   4.077 130.501  0.00  0.00    -0.024 C 
ATOM      3  C   LIG A   1      -7.216   5.273 130.761  0.00  0.00    +0.012 C 
ATOM      4  C   LIG A   1      -9.567   4.514 131.103  0.00  0.00    +0.021 C 
ATOM      5  C   LIG A   1      -9.397   4.438 132.637  0.00  0.00    +0.118 C 
ATOM      6  C   LIG A   1      -9.346   3.004 133.104  0.00  0.00    +0.032 C 
ATOM      7  C   LIG A   1      -8.077   2.360 132.535  0.00  0.00    +0.007 C 
ATOM      8  C   LIG A   1     -10.779   3.716 130.586  0.00  0.00    +0.010 C 
ATOM      9  C   LIG A   1      -8.234   3.983 128.971  0.00  0.00    +0.007 C 
ATOM     10  C   LIG A   1      -6.811   3.699 128.463  0.00  0.00    +0.005 C 
ATOM     11  C   LIG A   1      -6.348   2.289 128.932  0.00  0.00    +0.002 C 
ATOM     12  C   LIG A   1      -6.434   2.059 130.486  0.00  0.00    -0.025 C 
ATOM     13  C   LIG A   1      -6.365   0.514 130.565  0.00  0.00    +0.008 C 
ATOM     14  C   LIG A   1      -5.084   0.032 129.878  0.00  0.00    +0.008 C 
ATOM     15  C   LIG A   1      -5.116  -0.233 128.216  0.00  0.00    -0.023 C 
ATOM     16  C   LIG A   1      -5.135   1.580 128.089  0.00  0.00    -0.023 C 
ATOM     17  C   LIG A   1      -5.326   2.139 126.642  0.00  0.00    +0.008 C 
ATOM     18  C   LIG A   1      -5.207   1.117 125.614  0.00  0.00    +0.007 C 
ATOM     19  C   LIG A   1      -6.357   0.126 125.843  0.00  0.00    -0.029 C 
ATOM     20  C   LIG A   1      -5.651  -0.934 126.688  0.00  0.00    +0.002 C 
ATOM     21  C   LIG A   1      -6.342  -2.342 126.307  0.00  0.00    +0.011 C 
ATOM     22  C   LIG A   1      -6.608  -2.583 124.738  0.00  0.00    -0.035 C 
ATOM     23  C   LIG A   1      -8.137  -2.801 124.470  0.00  0.00    +0.011 C 
ATOM     24  C   LIG A   1      -6.159  -1.370 123.899  0.00  0.00    +0.007 C 
ATOM     25  C   LIG A   1      -6.854  -0.172 124.418  0.00  0.00    +0.007 C 
ATOM     26  C   LIG A   1      -5.853  -3.795 124.165  0.00  0.00    +0.011 C 
ATOM     27  C   LIG A   1      -7.661   0.377 126.659  0.00  0.00    +0.011 C 
ATOM     28  C   LIG A   1      -3.778   2.288 128.437  0.00  0.00    +0.012 C 
ATOM     29  C   LIG A   1      -4.963  -1.707 128.831  0.00  0.00    +0.012 C 
ATOM     30  C   LIG A   1      -5.330   2.592 131.442  0.00  0.00    +0.012 C 
ENDROOT
BRANCH   5  31
ATOM     31  O   LIG A   1     -10.416   5.188 133.306  0.00  0.00    -0.392 OA
ATOM     32  H   LIG A   1     -11.259   4.759 133.028  0.00  0.00    +0.210 HD
ENDBRANCH   5  31
TORSDOF 1
ENDMDL
MODEL 4
REMARK VINA RESULT:      -8.8      4.021      7.297
REMARK  Name = NuBBE_415
REMARK  9 active torsions:
REMARK  status: ('A' for Active; 'I' for Inactive)
REMARK    1  A    between atoms: C_3  and  C_4
REMARK    2  A    between atoms: C_5  and  C_12
REMARK    3  A    between atoms: C_7  and  O_11
REMARK    4  A    between atoms: C_16  and  C_35
REMARK    5  A    between atoms: C_19  and  C_34
REMARK    6  A    between atoms: C_20  and  C_33
REMARK    7  A    between atoms: C_23  and  C_32
REMARK    8  A    between atoms: C_26  and  C_27
REMARK    9  A    between atoms: C_26  and  C_30
REMARK                            x       y       z     vdW  Elec       q    Type
REMARK                         _______ _______ _______ _____ _____    ______ ____
ROOT
ATOM      1  C   LIG A   1      -8.196   2.323 131.747  0.00  0.00    +0.002 C 
ATOM      2  C   LIG A   1      -7.239   3.586 131.532  0.00  0.00    -0.024 C 
ATOM      3  C   LIG A   1      -5.961   3.768 132.422  0.00  0.00    +0.012 C 
ATOM      4  C   LIG A   1      -8.063   4.899 131.699  0.00  0.00    +0.021 C 
ATOM      5  C   LIG A   1      -8.672   4.836 133.119  0.00  0.00    +0.118 C 
ATOM      6  C   LIG A   1      -9.780   3.815 133.186  0.00  0.00    +0.032 C 
ATOM      7  C   LIG A   1      -9.169   2.429 132.958  0.00  0.00    +0.007 C 
ATOM      8  C   LIG A   1      -9.113   5.142 130.599  0.00  0.00    +0.010 C 
ATOM      9  C   LIG A   1      -6.662   3.435 130.120  0.00  0.00    +0.007 C 
ATOM     10  C   LIG A   1      -5.745   2.201 130.095  0.00  0.00    +0.005 C 
ATOM     11  C   LIG A   1      -6.584   0.909 130.317  0.00  0.00    +0.002 C 
ATOM     12  C   LIG A   1      -7.460   0.917 131.623  0.00  0.00    -0.025 C 
ATOM     13  C   LIG A   1      -8.462  -0.223 131.320  0.00  0.00    +0.008 C 
ATOM     14  C   LIG A   1      -7.687  -1.512 131.033  0.00  0.00    +0.008 C 
ATOM     15  C   LIG A   1      -7.160  -1.798 129.459  0.00  0.00    -0.023 C 
ATOM     16  C   LIG A   1      -5.931  -0.506 129.807  0.00  0.00    -0.023 C 
ATOM     17  C   LIG A   1      -5.057  -0.079 128.583  0.00  0.00    +0.008 C 
ATOM     18  C   LIG A   1      -5.207  -0.963 127.437  0.00  0.00    +0.007 C 
ATOM     19  C   LIG A   1      -6.668  -0.846 126.980  0.00  0.00    -0.029 C 
ATOM     20  C   LIG A   1      -7.289  -2.032 127.715  0.00  0.00    +0.002 C 
ATOM     21  C   LIG A   1      -8.475  -2.577 126.765  0.00  0.00    +0.011 C 
ATOM     22  C   LIG A   1      -8.118  -2.676 125.198  0.00  0.00    -0.035 C 
ATOM     23  C   LIG A   1      -9.093  -1.779 124.359  0.00  0.00    +0.011 C 
ATOM     24  C   LIG A   1      -6.683  -2.188 124.917  0.00  0.00    +0.007 C 
ATOM     25  C   LIG A   1      -6.554  -0.812 125.446  0.00  0.00    +0.007 C 
ATOM     26  C   LIG A   1      -8.195  -4.107 124.639  0.00  0.00    +0.011 C 
ATOM     27  C   LIG A   1      -7.665   0.304 127.315  0.00  0.00    +0.011 C 
ATOM     28  C   LIG A   1      -4.777  -0.927 130.783  0.00  0.00    +0.012 C 
ATOM     29  C   LIG A   1      -8.297  -2.908 129.686  0.00  0.00    +0.012 C 
ATOM     30  C   LIG A   1      -6.841   0.593 133.012  0.00  0.00    +0.012 C 
ENDROOT
BRANCH   5  31
ATOM     31  O   LIG A   1      -9.102   6.131 133.552  0.00  0.00    -0.392 OA
ATOM     32  H   LIG A   1      -8.316   6.509 134.013  0.00  0.00    +0.210 HD
ENDBRANCH   5  31
TORSDOF 1
ENDMDL
MODEL 5
REMARK VINA RESULT:      -8.8      5.629      8.435
REMARK  Name = NuBBE_415
REMARK  9 active torsions:
REMARK  status: ('A' for Active; 'I' for Inactive)
REMARK    1  A    between atoms: C_3  and  C_4
REMARK    2  A    between atoms: C_5  and  C_12
REMARK    3  A    between atoms: C_7  and  O_11
REMARK    4  A    between atoms: C_16  and  C_35
REMARK    5  A    between atoms: C_19  and  C_34
REMARK    6  A    between atoms: C_20  and  C_33
REMARK    7  A    between atoms: C_23  and  C_32
REMARK    8  A    between atoms: C_26  and  C_27
REMARK    9  A    between atoms: C_26  and  C_30
REMARK                            x       y       z     vdW  Elec       q    Type
REMARK                         _______ _______ _______ _____ _____    ______ ____
ROOT
ATOM      1  C   LIG A   1      -5.141   5.514 131.534  0.00  0.00    +0.002 C 
ATOM      2  C   LIG A   1      -4.327   5.462 132.910  0.00  0.00    -0.024 C 
ATOM      3  C   LIG A   1      -4.945   6.070 134.216  0.00  0.00    +0.012 C 
ATOM      4  C   LIG A   1      -2.947   6.164 132.726  0.00  0.00    +0.021 C 
ATOM      5  C   LIG A   1      -3.266   7.605 132.267  0.00  0.00    +0.118 C 
ATOM      6  C   LIG A   1      -3.764   7.621 130.843  0.00  0.00    +0.032 C 
ATOM      7  C   LIG A   1      -5.108   6.887 130.799  0.00  0.00    +0.007 C 
ATOM      8  C   LIG A   1      -1.973   5.430 131.786  0.00  0.00    +0.010 C 
ATOM      9  C   LIG A   1      -4.184   3.974 133.251  0.00  0.00    +0.007 C 
ATOM     10  C   LIG A   1      -5.578   3.407 133.563  0.00  0.00    +0.005 C 
ATOM     11  C   LIG A   1      -6.463   3.432 132.283  0.00  0.00    +0.002 C 
ATOM     12  C   LIG A   1      -6.583   4.845 131.602  0.00  0.00    -0.025 C 
ATOM     13  C   LIG A   1      -7.096   4.457 130.194  0.00  0.00    +0.008 C 
ATOM     14  C   LIG A   1      -8.396   3.660 130.333  0.00  0.00    +0.008 C 
ATOM     15  C   LIG A   1      -8.295   1.995 130.559  0.00  0.00    -0.023 C 
ATOM     16  C   LIG A   1      -7.750   2.418 132.240  0.00  0.00    -0.023 C 
ATOM     17  C   LIG A   1      -7.281   1.204 133.108  0.00  0.00    +0.008 C 
ATOM     18  C   LIG A   1      -7.596  -0.083 132.508  0.00  0.00    +0.007 C 
ATOM     19  C   LIG A   1      -6.800  -0.163 131.196  0.00  0.00    -0.029 C 
ATOM     20  C   LIG A   1      -7.850   0.326 130.200  0.00  0.00    +0.002 C 
ATOM     21  C   LIG A   1      -7.559  -0.461 128.821  0.00  0.00    +0.011 C 
ATOM     22  C   LIG A   1      -7.236  -2.031 128.973  0.00  0.00    -0.035 C 
ATOM     23  C   LIG A   1      -5.815  -2.355 128.395  0.00  0.00    +0.011 C 
ATOM     24  C   LIG A   1      -7.245  -2.466 130.451  0.00  0.00    +0.007 C 
ATOM     25  C   LIG A   1      -6.286  -1.613 131.186  0.00  0.00    +0.007 C 
ATOM     26  C   LIG A   1      -8.252  -2.939 128.258  0.00  0.00    +0.011 C 
ATOM     27  C   LIG A   1      -5.556   0.688 130.803  0.00  0.00    +0.011 C 
ATOM     28  C   LIG A   1      -8.873   2.964 133.190  0.00  0.00    +0.012 C 
ATOM     29  C   LIG A   1      -8.915   2.140 129.086  0.00  0.00    +0.012 C 
ATOM     30  C   LIG A   1      -7.568   5.920 132.142  0.00  0.00    +0.012 C 
ENDROOT
BRANCH   5  31
ATOM     31  O   LIG A   1      -2.138   8.467 132.455  0.00  0.00    -0.392 OA
ATOM     32  H   LIG A   1      -1.698   8.121 133.268  0.00  0.00    +0.210 HD
ENDBRANCH   5  31
TORSDOF 1
ENDMDL
MODEL 6
REMARK VINA RESULT:      -8.7      4.120      6.951
REMARK  Name = NuBBE_415
REMARK  9 active torsions:
REMARK  status: ('A' for Active; 'I' for Inactive)
REMARK    1  A    between atoms: C_3  and  C_4
REMARK    2  A    between atoms: C_5  and  C_12
REMARK    3  A    between atoms: C_7  and  O_11
REMARK    4  A    between atoms: C_16  and  C_35
REMARK    5  A    between atoms: C_19  and  C_34
REMARK    6  A    between atoms: C_20  and  C_33
REMARK    7  A    between atoms: C_23  and  C_32
REMARK    8  A    between atoms: C_26  and  C_27
REMARK    9  A    between atoms: C_26  and  C_30
REMARK                            x       y       z     vdW  Elec       q    Type
REMARK                         _______ _______ _______ _____ _____    ______ ____
ROOT
ATOM      1  C   LIG A   1      -5.355   3.662 128.981  0.00  0.00    +0.002 C 
ATOM      2  C   LIG A   1      -4.044   3.247 129.798  0.00  0.00    -0.024 C 
ATOM      3  C   LIG A   1      -4.127   2.978 131.340  0.00  0.00    +0.012 C 
ATOM      4  C   LIG A   1      -2.948   4.341 129.616  0.00  0.00    +0.021 C 
ATOM      5  C   LIG A   1      -3.581   5.658 130.119  0.00  0.00    +0.118 C 
ATOM      6  C   LIG A   1      -4.622   6.161 129.150  0.00  0.00    +0.032 C 
ATOM      7  C   LIG A   1      -5.777   5.155 129.124  0.00  0.00    +0.007 C 
ATOM      8  C   LIG A   1      -2.377   4.448 128.190  0.00  0.00    +0.010 C 
ATOM      9  C   LIG A   1      -3.613   1.889 129.229  0.00  0.00    +0.007 C 
ATOM     10  C   LIG A   1      -4.684   0.846 129.589  0.00  0.00    +0.005 C 
ATOM     11  C   LIG A   1      -6.016   1.174 128.855  0.00  0.00    +0.002 C 
ATOM     12  C   LIG A   1      -6.558   2.629 129.108  0.00  0.00    -0.025 C 
ATOM     13  C   LIG A   1      -7.563   2.782 127.941  0.00  0.00    +0.008 C 
ATOM     14  C   LIG A   1      -8.595   1.653 128.013  0.00  0.00    +0.008 C 
ATOM     15  C   LIG A   1      -8.231   0.186 127.271  0.00  0.00    -0.023 C 
ATOM     16  C   LIG A   1      -7.088  -0.051 128.663  0.00  0.00    -0.023 C 
ATOM     17  C   LIG A   1      -6.175  -1.316 128.560  0.00  0.00    +0.008 C 
ATOM     18  C   LIG A   1      -6.569  -2.220 127.491  0.00  0.00    +0.007 C 
ATOM     19  C   LIG A   1      -6.385  -1.452 126.174  0.00  0.00    -0.029 C 
ATOM     20  C   LIG A   1      -7.799  -0.914 125.961  0.00  0.00    +0.002 C 
ATOM     21  C   LIG A   1      -8.021  -0.862 124.364  0.00  0.00    +0.011 C 
ATOM     22  C   LIG A   1      -7.499  -2.148 123.548  0.00  0.00    -0.035 C 
ATOM     23  C   LIG A   1      -6.418  -1.723 122.494  0.00  0.00    +0.011 C 
ATOM     24  C   LIG A   1      -6.848  -3.183 124.487  0.00  0.00    +0.007 C 
ATOM     25  C   LIG A   1      -5.768  -2.505 125.238  0.00  0.00    +0.007 C 
ATOM     26  C   LIG A   1      -8.615  -2.898 122.801  0.00  0.00    +0.011 C 
ATOM     27  C   LIG A   1      -5.514  -0.180 125.946  0.00  0.00    +0.011 C 
ATOM     28  C   LIG A   1      -7.769  -0.365 130.041  0.00  0.00    +0.012 C 
ATOM     29  C   LIG A   1      -9.417   0.783 126.369  0.00  0.00    +0.012 C 
ATOM     30  C   LIG A   1      -7.341   2.985 130.403  0.00  0.00    +0.012 C 
ENDROOT
BRANCH   5  31
ATOM     31  O   LIG A   1      -2.576   6.641 130.391  0.00  0.00    -0.392 OA
ATOM     32  H   LIG A   1      -2.893   7.097 131.207  0.00  0.00    +0.210 HD
ENDBRANCH   5  31
TORSDOF 1
ENDMDL
MODEL 7
REMARK VINA RESULT:      -8.7      8.100     10.741
REMARK  Name = NuBBE_415
REMARK  9 active torsions:
REMARK  status: ('A' for Active; 'I' for Inactive)
REMARK    1  A    between atoms: C_3  and  C_4
REMARK    2  A    between atoms: C_5  and  C_12
REMARK    3  A    between atoms: C_7  and  O_11
REMARK    4  A    between atoms: C_16  and  C_35
REMARK    5  A    between atoms: C_19  and  C_34
REMARK    6  A    between atoms: C_20  and  C_33
REMARK    7  A    between atoms: C_23  and  C_32
REMARK    8  A    between atoms: C_26  and  C_27
REMARK    9  A    between atoms: C_26  and  C_30
REMARK                            x       y       z     vdW  Elec       q    Type
REMARK                         _______ _______ _______ _____ _____    ______ ____
ROOT
ATOM      1  C   LIG A   1      -7.081   4.610 131.449  0.00  0.00    +0.002 C 
ATOM      2  C   LIG A   1      -6.914   3.108 131.973  0.00  0.00    -0.024 C 
ATOM      3  C   LIG A   1      -6.607   1.949 130.963  0.00  0.00    +0.012 C 
ATOM      4  C   LIG A   1      -8.204   2.676 132.736  0.00  0.00    +0.021 C 
ATOM      5  C   LIG A   1      -9.364   2.839 131.727  0.00  0.00    +0.118 C 
ATOM      6  C   LIG A   1      -9.671   4.296 131.488  0.00  0.00    +0.032 C 
ATOM      7  C   LIG A   1      -8.459   4.935 130.802  0.00  0.00    +0.007 C 
ATOM      8  C   LIG A   1      -8.446   3.419 134.062  0.00  0.00    +0.010 C 
ATOM      9  C   LIG A   1      -5.677   3.119 132.879  0.00  0.00    +0.007 C 
ATOM     10  C   LIG A   1      -4.439   3.405 132.014  0.00  0.00    +0.005 C 
ATOM     11  C   LIG A   1      -4.514   4.847 131.434  0.00  0.00    +0.002 C 
ATOM     12  C   LIG A   1      -5.830   5.159 130.632  0.00  0.00    -0.025 C 
ATOM     13  C   LIG A   1      -5.806   6.707 130.605  0.00  0.00    +0.008 C 
ATOM     14  C   LIG A   1      -4.496   7.178 129.967  0.00  0.00    +0.008 C 
ATOM     15  C   LIG A   1      -3.141   7.352 130.952  0.00  0.00    -0.023 C 
ATOM     16  C   LIG A   1      -3.107   5.535 130.952  0.00  0.00    -0.023 C 
ATOM     17  C   LIG A   1      -2.046   4.894 131.905  0.00  0.00    +0.008 C 
ATOM     18  C   LIG A   1      -1.102   5.862 132.442  0.00  0.00    +0.007 C 
ATOM     19  C   LIG A   1      -1.914   6.840 133.303  0.00  0.00    -0.029 C 
ATOM     20  C   LIG A   1      -2.170   7.958 132.294  0.00  0.00    +0.002 C 
ATOM     21  C   LIG A   1      -2.206   9.328 133.145  0.00  0.00    +0.011 C 
ATOM     22  C   LIG A   1      -1.062   9.479 134.268  0.00  0.00    -0.035 C 
ATOM     23  C   LIG A   1      -1.708   9.650 135.687  0.00  0.00    +0.011 C 
ATOM     24  C   LIG A   1      -0.157   8.232 134.318  0.00  0.00    +0.007 C 
ATOM     25  C   LIG A   1      -1.019   7.049 134.536  0.00  0.00    +0.007 C 
ATOM     26  C   LIG A   1      -0.122  10.674 134.032  0.00  0.00    +0.011 C 
ATOM     27  C   LIG A   1      -3.336   6.605 133.898  0.00  0.00    +0.011 C 
ATOM     28  C   LIG A   1      -2.641   4.875 129.606  0.00  0.00    +0.012 C 
ATOM     29  C   LIG A   1      -3.511   8.860 130.547  0.00  0.00    +0.012 C 
ATOM     30  C   LIG A   1      -6.003   4.702 129.156  0.00  0.00    +0.012 C 
ENDROOT
BRANCH   5  31
ATOM     31  O   LIG A   1     -10.519   2.104 132.147  0.00  0.00    -0.392 OA
ATOM     32  H   LIG A   1     -11.231   2.783 132.213  0.00  0.00    +0.210 HD
ENDBRANCH   5  31
TORSDOF 1
ENDMDL
MODEL 8
REMARK VINA RESULT:      -8.6      4.487      6.374
REMARK  Name = NuBBE_415
REMARK  9 active torsions:
REMARK  status: ('A' for Active; 'I' for Inactive)
REMARK    1  A    between atoms: C_3  and  C_4
REMARK    2  A    between atoms: C_5  and  C_12
REMARK    3  A    between atoms: C_7  and  O_11
REMARK    4  A    between atoms: C_16  and  C_35
REMARK    5  A    between atoms: C_19  and  C_34
REMARK    6  A    between atoms: C_20  and  C_33
REMARK    7  A    between atoms: C_23  and  C_32
REMARK    8  A    between atoms: C_26  and  C_27
REMARK    9  A    between atoms: C_26  and  C_30
REMARK                            x       y       z     vdW  Elec       q    Type
REMARK                         _______ _______ _______ _____ _____    ______ ____
ROOT
ATOM      1  C   LIG A   1      -7.261   2.886 131.562  0.00  0.00    +0.002 C 
ATOM      2  C   LIG A   1      -8.855   2.914 131.685  0.00  0.00    -0.024 C 
ATOM      3  C   LIG A   1      -9.744   3.057 130.402  0.00  0.00    +0.012 C 
ATOM      4  C   LIG A   1      -9.284   4.078 132.630  0.00  0.00    +0.021 C 
ATOM      5  C   LIG A   1      -8.704   5.365 132.003  0.00  0.00    +0.118 C 
ATOM      6  C   LIG A   1      -7.206   5.422 132.174  0.00  0.00    +0.032 C 
ATOM      7  C   LIG A   1      -6.589   4.277 131.366  0.00  0.00    +0.007 C 
ATOM      8  C   LIG A   1      -8.885   3.888 134.105  0.00  0.00    +0.010 C 
ATOM      9  C   LIG A   1      -9.253   1.539 132.235  0.00  0.00    +0.007 C 
ATOM     10  C   LIG A   1      -8.930   0.475 131.173  0.00  0.00    +0.005 C 
ATOM     11  C   LIG A   1      -7.391   0.383 130.962  0.00  0.00    +0.002 C 
ATOM     12  C   LIG A   1      -6.700   1.749 130.601  0.00  0.00    -0.025 C 
ATOM     13  C   LIG A   1      -5.217   1.426 130.909  0.00  0.00    +0.008 C 
ATOM     14  C   LIG A   1      -4.785   0.209 130.085  0.00  0.00    +0.008 C 
ATOM     15  C   LIG A   1      -5.065  -1.327 130.715  0.00  0.00    -0.023 C 
ATOM     16  C   LIG A   1      -6.806  -1.002 130.308  0.00  0.00    -0.023 C 
ATOM     17  C   LIG A   1      -7.815  -2.089 130.802  0.00  0.00    +0.008 C 
ATOM     18  C   LIG A   1      -7.162  -3.296 131.286  0.00  0.00    +0.007 C 
ATOM     19  C   LIG A   1      -6.337  -2.888 132.515  0.00  0.00    -0.029 C 
ATOM     20  C   LIG A   1      -4.971  -2.655 131.873  0.00  0.00    +0.002 C 
ATOM     21  C   LIG A   1      -3.877  -3.066 132.986  0.00  0.00    +0.011 C 
ATOM     22  C   LIG A   1      -4.186  -4.425 133.793  0.00  0.00    -0.035 C 
ATOM     23  C   LIG A   1      -4.300  -4.133 135.330  0.00  0.00    +0.011 C 
ATOM     24  C   LIG A   1      -5.517  -5.056 133.342  0.00  0.00    +0.007 C 
ATOM     25  C   LIG A   1      -6.583  -4.043 133.502  0.00  0.00    +0.007 C 
ATOM     26  C   LIG A   1      -3.115  -5.512 133.599  0.00  0.00    +0.011 C 
ATOM     27  C   LIG A   1      -6.516  -1.603 133.378  0.00  0.00    +0.011 C 
ATOM     28  C   LIG A   1      -7.152  -1.039 128.778  0.00  0.00    +0.012 C 
ATOM     29  C   LIG A   1      -3.467  -1.186 130.757  0.00  0.00    +0.012 C 
ATOM     30  C   LIG A   1      -6.729   2.310 129.151  0.00  0.00    +0.012 C 
ENDROOT
BRANCH   5  31
ATOM     31  O   LIG A   1      -9.353   6.530 132.525  0.00  0.00    -0.392 OA
ATOM     32  H   LIG A   1      -9.778   6.221 133.359  0.00  0.00    +0.210 HD
ENDBRANCH   5  31
TORSDOF 1
ENDMDL
MODEL 9
REMARK VINA RESULT:      -8.3      7.561      9.915
REMARK  Name = NuBBE_415
REMARK  9 active torsions:
REMARK  status: ('A' for Active; 'I' for Inactive)
REMARK    1  A    between atoms: C_3  and  C_4
REMARK    2  A    between atoms: C_5  and  C_12
REMARK    3  A    between atoms: C_7  and  O_11
REMARK    4  A    between atoms: C_16  and  C_35
REMARK    5  A    between atoms: C_19  and  C_34
REMARK    6  A    between atoms: C_20  and  C_33
REMARK    7  A    between atoms: C_23  and  C_32
REMARK    8  A    between atoms: C_26  and  C_27
REMARK    9  A    between atoms: C_26  and  C_30
REMARK                            x       y       z     vdW  Elec       q    Type
REMARK                         _______ _______ _______ _____ _____    ______ ____
ROOT
ATOM      1  C   LIG A   1      -9.421   6.458 130.925  0.00  0.00    +0.002 C 
ATOM      2  C   LIG A   1     -10.652   5.477 131.208  0.00  0.00    -0.024 C 
ATOM      3  C   LIG A   1     -10.803   4.145 130.396  0.00  0.00    +0.012 C 
ATOM      4  C   LIG A   1     -11.991   6.251 131.008  0.00  0.00    +0.021 C 
ATOM      5  C   LIG A   1     -11.959   6.778 129.555  0.00  0.00    +0.118 C 
ATOM      6  C   LIG A   1     -10.974   7.910 129.412  0.00  0.00    +0.032 C 
ATOM      7  C   LIG A   1      -9.567   7.355 129.661  0.00  0.00    +0.007 C 
ATOM      8  C   LIG A   1     -12.257   7.355 132.047  0.00  0.00    +0.010 C 
ATOM      9  C   LIG A   1     -10.471   4.988 132.650  0.00  0.00    +0.007 C 
ATOM     10  C   LIG A   1      -9.210   4.113 132.715  0.00  0.00    +0.005 C 
ATOM     11  C   LIG A   1      -7.946   4.975 132.432  0.00  0.00    +0.002 C 
ATOM     12  C   LIG A   1      -7.992   5.773 131.077  0.00  0.00    -0.025 C 
ATOM     13  C   LIG A   1      -6.880   6.825 131.310  0.00  0.00    +0.008 C 
ATOM     14  C   LIG A   1      -5.566   6.107 131.628  0.00  0.00    +0.008 C 
ATOM     15  C   LIG A   1      -5.251   5.682 133.227  0.00  0.00    -0.023 C 
ATOM     16  C   LIG A   1      -6.508   4.396 132.964  0.00  0.00    -0.023 C 
ATOM     17  C   LIG A   1      -6.897   3.582 134.241  0.00  0.00    +0.008 C 
ATOM     18  C   LIG A   1      -6.008   3.825 135.367  0.00  0.00    +0.007 C 
ATOM     19  C   LIG A   1      -6.166   5.306 135.740  0.00  0.00    -0.029 C 
ATOM     20  C   LIG A   1      -5.006   5.919 134.957  0.00  0.00    +0.002 C 
ATOM     21  C   LIG A   1      -4.490   7.173 135.832  0.00  0.00    +0.011 C 
ATOM     22  C   LIG A   1      -4.366   6.911 137.416  0.00  0.00    -0.035 C 
ATOM     23  C   LIG A   1      -5.285   7.906 138.207  0.00  0.00    +0.011 C 
ATOM     24  C   LIG A   1      -4.807   5.481 137.784  0.00  0.00    +0.007 C 
ATOM     25  C   LIG A   1      -6.183   5.281 137.278  0.00  0.00    +0.007 C 
ATOM     26  C   LIG A   1      -2.934   7.064 137.955  0.00  0.00    +0.011 C 
ATOM     27  C   LIG A   1      -7.349   6.247 135.360  0.00  0.00    +0.011 C 
ATOM     28  C   LIG A   1      -6.060   3.200 132.052  0.00  0.00    +0.012 C 
ATOM     29  C   LIG A   1      -4.178   6.836 132.923  0.00  0.00    +0.012 C 
ATOM     30  C   LIG A   1      -7.661   5.085 129.723  0.00  0.00    +0.012 C 
ENDROOT
BRANCH   5  31
ATOM     31  O   LIG A   1     -13.271   7.143 129.111  0.00  0.00    -0.392 OA
ATOM     32  H   LIG A   1     -13.826   6.351 129.308  0.00  0.00    +0.210 HD
ENDBRANCH   5  31
TORSDOF 1
ENDMDL
