MODEL 1
REMARK VINA RESULT:      -7.0      0.000      0.000
REMARK  Name = NuBBE_3
REMARK  12 active torsions:
REMARK  status: ('A' for Active; 'I' for Inactive)
REMARK    1  A    between atoms: O_1  and  C_2
REMARK    2  A    between atoms: C_3  and  O_4
REMARK    3  A    between atoms: O_4  and  C_5
REMARK    4  A    between atoms: C_5  and  C_6
REMARK    5  A    between atoms: C_7  and  C_8
REMARK    6  A    between atoms: C_7  and  C_9
REMARK    7  A    between atoms: C_9  and  C_10
REMARK    8  A    between atoms: C_10  and  C_11
REMARK    9  A    between atoms: C_12  and  C_13
REMARK   10  A    between atoms: C_12  and  C_14
REMARK   11  A    between atoms: C_16  and  C_17
REMARK   12  A    between atoms: C_17  and  O_18
REMARK                            x       y       z     vdW  Elec       q    Type
REMARK                         _______ _______ _______ _____ _____    ______ ____
ROOT
ATOM      1  C   LIG A   1     -10.636   6.239 131.836  0.00  0.00    +0.159 A 
ATOM      2  C   LIG A   1      -9.533   6.740 131.132  0.00  0.00    +0.163 A 
ATOM      3  C   LIG A   1      -9.750   7.444 129.946  0.00  0.00    +0.064 A 
ATOM      4  C   LIG A   1     -11.068   7.692 129.524  0.00  0.00    +0.062 A 
ATOM      5  C   LIG A   1     -12.161   7.206 130.258  0.00  0.00    +0.019 A 
ATOM      6  C   LIG A   1     -11.940   6.466 131.417  0.00  0.00    +0.050 A 
ENDROOT
BRANCH   1   7
ATOM      7  O   LIG A   1     -10.446   5.519 132.985  0.00  0.00    -0.503 OA
ATOM      8  H   LIG A   1     -10.907   4.671 132.833  0.00  0.00    +0.292 HD
ENDBRANCH   1   7
BRANCH   4   9
ATOM      9  C   LIG A   1     -11.287   8.473 128.286  0.00  0.00    +0.337 C 
ATOM     10  O   LIG A   1     -10.627   8.410 127.275  0.00  0.00    -0.245 OA
BRANCH   9  11
ATOM     11  O   LIG A   1     -12.300   9.354 128.424  0.00  0.00    -0.477 OA
ATOM     12  H   LIG A   1     -12.617   9.510 127.510  0.00  0.00    +0.295 HD
ENDBRANCH   9  11
ENDBRANCH   4   9
BRANCH   2  13
ATOM     13  O   LIG A   1      -8.315   6.456 131.696  0.00  0.00    -0.484 OA
BRANCH  13  14
ATOM     14  C   LIG A   1      -7.403   5.691 130.898  0.00  0.00    +0.257 C 
BRANCH  14  15
ATOM     15  C   LIG A   1      -6.137   6.498 130.764  0.00  0.00    +0.012 C 
ATOM     16  C   LIG A   1      -5.114   6.591 131.639  0.00  0.00    -0.073 C 
ATOM     17  C   LIG A   1      -5.062   5.866 132.958  0.00  0.00    +0.038 C 
BRANCH  16  18
ATOM     18  C   LIG A   1      -3.910   7.471 131.329  0.00  0.00    +0.034 C 
BRANCH  18  19
ATOM     19  C   LIG A   1      -2.602   6.668 131.261  0.00  0.00    +0.031 C 
BRANCH  19  20
ATOM     20  C   LIG A   1      -2.667   5.553 130.246  0.00  0.00    -0.028 C 
ATOM     21  C   LIG A   1      -2.554   5.647 128.905  0.00  0.00    -0.080 C 
ATOM     22  C   LIG A   1      -2.291   6.916 128.140  0.00  0.00    +0.038 C 
ATOM     23  C   LIG A   1      -2.693   4.425 128.032  0.00  0.00    +0.038 C 
ENDBRANCH  19  20
ENDBRANCH  18  19
ENDBRANCH  16  18
ENDBRANCH  14  15
ENDBRANCH  13  14
ENDBRANCH   2  13
TORSDOF 9
ENDMDL
MODEL 2
REMARK VINA RESULT:      -6.9      1.266      2.368
REMARK  Name = NuBBE_3
REMARK  12 active torsions:
REMARK  status: ('A' for Active; 'I' for Inactive)
REMARK    1  A    between atoms: O_1  and  C_2
REMARK    2  A    between atoms: C_3  and  O_4
REMARK    3  A    between atoms: O_4  and  C_5
REMARK    4  A    between atoms: C_5  and  C_6
REMARK    5  A    between atoms: C_7  and  C_8
REMARK    6  A    between atoms: C_7  and  C_9
REMARK    7  A    between atoms: C_9  and  C_10
REMARK    8  A    between atoms: C_10  and  C_11
REMARK    9  A    between atoms: C_12  and  C_13
REMARK   10  A    between atoms: C_12  and  C_14
REMARK   11  A    between atoms: C_16  and  C_17
REMARK   12  A    between atoms: C_17  and  O_18
REMARK                            x       y       z     vdW  Elec       q    Type
REMARK                         _______ _______ _______ _____ _____    ______ ____
ROOT
ATOM      1  C   LIG A   1     -10.584   6.232 131.831  0.00  0.00    +0.159 A 
ATOM      2  C   LIG A   1      -9.531   6.638 131.001  0.00  0.00    +0.163 A 
ATOM      3  C   LIG A   1      -9.822   7.368 129.847  0.00  0.00    +0.064 A 
ATOM      4  C   LIG A   1     -11.153   7.736 129.582  0.00  0.00    +0.062 A 
ATOM      5  C   LIG A   1     -12.191   7.344 130.441  0.00  0.00    +0.019 A 
ATOM      6  C   LIG A   1     -11.903   6.577 131.567  0.00  0.00    +0.050 A 
ENDROOT
BRANCH   1   7
ATOM      7  O   LIG A   1     -10.327   5.489 132.951  0.00  0.00    -0.503 OA
ATOM      8  H   LIG A   1      -9.580   4.908 132.706  0.00  0.00    +0.292 HD
ENDBRANCH   1   7
BRANCH   4   9
ATOM      9  C   LIG A   1     -11.445   8.544 128.377  0.00  0.00    +0.337 C 
ATOM     10  O   LIG A   1     -10.873   8.474 127.313  0.00  0.00    -0.245 OA
BRANCH   9  11
ATOM     11  O   LIG A   1     -12.409   9.459 128.610  0.00  0.00    -0.477 OA
ATOM     12  H   LIG A   1     -12.859   9.141 129.421  0.00  0.00    +0.295 HD
ENDBRANCH   9  11
ENDBRANCH   4   9
BRANCH   2  13
ATOM     13  O   LIG A   1      -8.286   6.242 131.418  0.00  0.00    -0.484 OA
BRANCH  13  14
ATOM     14  C   LIG A   1      -7.194   7.108 131.087  0.00  0.00    +0.257 C 
BRANCH  14  15
ATOM     15  C   LIG A   1      -5.926   6.305 131.222  0.00  0.00    +0.012 C 
ATOM     16  C   LIG A   1      -4.689   6.625 130.787  0.00  0.00    -0.073 C 
ATOM     17  C   LIG A   1      -4.352   7.901 130.064  0.00  0.00    +0.038 C 
BRANCH  16  18
ATOM     18  C   LIG A   1      -3.521   5.674 131.014  0.00  0.00    +0.034 C 
BRANCH  18  19
ATOM     19  C   LIG A   1      -2.176   6.292 130.605  0.00  0.00    +0.031 C 
BRANCH  19  20
ATOM     20  C   LIG A   1      -1.210   6.377 131.760  0.00  0.00    -0.028 C 
ATOM     21  C   LIG A   1      -1.116   7.349 132.692  0.00  0.00    -0.080 C 
ATOM     22  C   LIG A   1      -2.014   8.553 132.787  0.00  0.00    +0.038 C 
ATOM     23  C   LIG A   1      -0.050   7.295 133.758  0.00  0.00    +0.038 C 
ENDBRANCH  19  20
ENDBRANCH  18  19
ENDBRANCH  16  18
ENDBRANCH  14  15
ENDBRANCH  13  14
ENDBRANCH   2  13
TORSDOF 9
ENDMDL
MODEL 3
REMARK VINA RESULT:      -6.8      1.370      1.849
REMARK  Name = NuBBE_3
REMARK  12 active torsions:
REMARK  status: ('A' for Active; 'I' for Inactive)
REMARK    1  A    between atoms: O_1  and  C_2
REMARK    2  A    between atoms: C_3  and  O_4
REMARK    3  A    between atoms: O_4  and  C_5
REMARK    4  A    between atoms: C_5  and  C_6
REMARK    5  A    between atoms: C_7  and  C_8
REMARK    6  A    between atoms: C_7  and  C_9
REMARK    7  A    between atoms: C_9  and  C_10
REMARK    8  A    between atoms: C_10  and  C_11
REMARK    9  A    between atoms: C_12  and  C_13
REMARK   10  A    between atoms: C_12  and  C_14
REMARK   11  A    between atoms: C_16  and  C_17
REMARK   12  A    between atoms: C_17  and  O_18
REMARK                            x       y       z     vdW  Elec       q    Type
REMARK                         _______ _______ _______ _____ _____    ______ ____
ROOT
ATOM      1  C   LIG A   1     -11.800   6.628 130.795  0.00  0.00    +0.159 A 
ATOM      2  C   LIG A   1     -10.446   6.852 130.513  0.00  0.00    +0.163 A 
ATOM      3  C   LIG A   1     -10.054   7.039 129.186  0.00  0.00    +0.064 A 
ATOM      4  C   LIG A   1     -11.031   7.068 128.176  0.00  0.00    +0.062 A 
ATOM      5  C   LIG A   1     -12.386   6.871 128.483  0.00  0.00    +0.019 A 
ATOM      6  C   LIG A   1     -12.769   6.638 129.801  0.00  0.00    +0.050 A 
ENDROOT
BRANCH   1   7
ATOM      7  O   LIG A   1     -12.205   6.411 132.084  0.00  0.00    -0.503 OA
ATOM      8  H   LIG A   1     -12.436   5.462 132.123  0.00  0.00    +0.292 HD
ENDBRANCH   1   7
BRANCH   4   9
ATOM      9  C   LIG A   1     -10.608   7.307 126.778  0.00  0.00    +0.337 C 
ATOM     10  O   LIG A   1     -10.997   8.195 126.055  0.00  0.00    -0.245 OA
BRANCH   9  11
ATOM     11  O   LIG A   1      -9.758   6.353 126.344  0.00  0.00    -0.477 OA
ATOM     12  H   LIG A   1      -8.886   6.799 126.305  0.00  0.00    +0.295 HD
ENDBRANCH   9  11
ENDBRANCH   4   9
BRANCH   2  13
ATOM     13  O   LIG A   1      -9.622   6.841 131.609  0.00  0.00    -0.484 OA
BRANCH  13  14
ATOM     14  C   LIG A   1      -8.532   5.913 131.582  0.00  0.00    +0.257 C 
BRANCH  14  15
ATOM     15  C   LIG A   1      -7.349   6.626 130.977  0.00  0.00    +0.012 C 
ATOM     16  C   LIG A   1      -6.085   6.683 131.445  0.00  0.00    -0.073 C 
ATOM     17  C   LIG A   1      -5.620   6.006 132.707  0.00  0.00    +0.038 C 
BRANCH  16  18
ATOM     18  C   LIG A   1      -5.017   7.465 130.691  0.00  0.00    +0.034 C 
BRANCH  18  19
ATOM     19  C   LIG A   1      -3.620   6.847 130.847  0.00  0.00    +0.031 C 
BRANCH  19  20
ATOM     20  C   LIG A   1      -3.156   6.155 129.589  0.00  0.00    -0.028 C 
ATOM     21  C   LIG A   1      -3.188   4.835 129.311  0.00  0.00    -0.080 C 
ATOM     22  C   LIG A   1      -3.749   3.769 130.212  0.00  0.00    +0.038 C 
ATOM     23  C   LIG A   1      -2.634   4.307 128.011  0.00  0.00    +0.038 C 
ENDBRANCH  19  20
ENDBRANCH  18  19
ENDBRANCH  16  18
ENDBRANCH  14  15
ENDBRANCH  13  14
ENDBRANCH   2  13
TORSDOF 9
ENDMDL
MODEL 4
REMARK VINA RESULT:      -6.7      3.949      4.686
REMARK  Name = NuBBE_3
REMARK  12 active torsions:
REMARK  status: ('A' for Active; 'I' for Inactive)
REMARK    1  A    between atoms: O_1  and  C_2
REMARK    2  A    between atoms: C_3  and  O_4
REMARK    3  A    between atoms: O_4  and  C_5
REMARK    4  A    between atoms: C_5  and  C_6
REMARK    5  A    between atoms: C_7  and  C_8
REMARK    6  A    between atoms: C_7  and  C_9
REMARK    7  A    between atoms: C_9  and  C_10
REMARK    8  A    between atoms: C_10  and  C_11
REMARK    9  A    between atoms: C_12  and  C_13
REMARK   10  A    between atoms: C_12  and  C_14
REMARK   11  A    between atoms: C_16  and  C_17
REMARK   12  A    between atoms: C_17  and  O_18
REMARK                            x       y       z     vdW  Elec       q    Type
REMARK                         _______ _______ _______ _____ _____    ______ ____
ROOT
ATOM      1  C   LIG A   1     -12.584   7.221 130.296  0.00  0.00    +0.159 A 
ATOM      2  C   LIG A   1     -11.187   7.141 130.231  0.00  0.00    +0.163 A 
ATOM      3  C   LIG A   1     -10.568   7.134 128.980  0.00  0.00    +0.064 A 
ATOM      4  C   LIG A   1     -11.352   7.276 127.821  0.00  0.00    +0.062 A 
ATOM      5  C   LIG A   1     -12.748   7.384 127.909  0.00  0.00    +0.019 A 
ATOM      6  C   LIG A   1     -13.367   7.345 129.156  0.00  0.00    +0.050 A 
ENDROOT
BRANCH   1   7
ATOM      7  O   LIG A   1     -13.216   7.199 131.510  0.00  0.00    -0.503 OA
ATOM      8  H   LIG A   1     -12.784   6.479 132.010  0.00  0.00    +0.292 HD
ENDBRANCH   1   7
BRANCH   4   9
ATOM      9  C   LIG A   1     -10.681   7.306 126.502  0.00  0.00    +0.337 C 
ATOM     10  O   LIG A   1     -10.946   8.047 125.583  0.00  0.00    -0.245 OA
BRANCH   9  11
ATOM     11  O   LIG A   1      -9.750   6.337 126.394  0.00  0.00    -0.477 OA
ATOM     12  H   LIG A   1      -9.265   6.365 127.244  0.00  0.00    +0.295 HD
ENDBRANCH   9  11
ENDBRANCH   4   9
BRANCH   2  13
ATOM     13  O   LIG A   1     -10.560   7.056 131.447  0.00  0.00    -0.484 OA
BRANCH  13  14
ATOM     14  C   LIG A   1      -9.232   6.518 131.447  0.00  0.00    +0.257 C 
BRANCH  14  15
ATOM     15  C   LIG A   1      -9.307   5.132 132.033  0.00  0.00    +0.012 C 
ATOM     16  C   LIG A   1      -8.804   4.697 133.207  0.00  0.00    -0.073 C 
ATOM     17  C   LIG A   1      -8.053   5.568 134.178  0.00  0.00    +0.038 C 
BRANCH  16  18
ATOM     18  C   LIG A   1      -8.977   3.244 133.631  0.00  0.00    +0.034 C 
BRANCH  18  19
ATOM     19  C   LIG A   1      -7.708   2.412 133.397  0.00  0.00    +0.031 C 
BRANCH  19  20
ATOM     20  C   LIG A   1      -7.494   2.092 131.938  0.00  0.00    -0.028 C 
ATOM     21  C   LIG A   1      -8.097   1.134 131.204  0.00  0.00    -0.080 C 
ATOM     22  C   LIG A   1      -9.163   0.196 131.703  0.00  0.00    +0.038 C 
ATOM     23  C   LIG A   1      -7.724   0.921 129.757  0.00  0.00    +0.038 C 
ENDBRANCH  19  20
ENDBRANCH  18  19
ENDBRANCH  16  18
ENDBRANCH  14  15
ENDBRANCH  13  14
ENDBRANCH   2  13
TORSDOF 9
ENDMDL
MODEL 5
REMARK VINA RESULT:      -6.7      3.237      5.579
REMARK  Name = NuBBE_3
REMARK  12 active torsions:
REMARK  status: ('A' for Active; 'I' for Inactive)
REMARK    1  A    between atoms: O_1  and  C_2
REMARK    2  A    between atoms: C_3  and  O_4
REMARK    3  A    between atoms: O_4  and  C_5
REMARK    4  A    between atoms: C_5  and  C_6
REMARK    5  A    between atoms: C_7  and  C_8
REMARK    6  A    between atoms: C_7  and  C_9
REMARK    7  A    between atoms: C_9  and  C_10
REMARK    8  A    between atoms: C_10  and  C_11
REMARK    9  A    between atoms: C_12  and  C_13
REMARK   10  A    between atoms: C_12  and  C_14
REMARK   11  A    between atoms: C_16  and  C_17
REMARK   12  A    between atoms: C_17  and  O_18
REMARK                            x       y       z     vdW  Elec       q    Type
REMARK                         _______ _______ _______ _____ _____    ______ ____
ROOT
ATOM      1  C   LIG A   1     -12.561   7.429 130.362  0.00  0.00    +0.159 A 
ATOM      2  C   LIG A   1     -11.287   6.855 130.262  0.00  0.00    +0.163 A 
ATOM      3  C   LIG A   1     -10.670   6.793 129.011  0.00  0.00    +0.064 A 
ATOM      4  C   LIG A   1     -11.309   7.366 127.898  0.00  0.00    +0.062 A 
ATOM      5  C   LIG A   1     -12.573   7.961 128.024  0.00  0.00    +0.019 A 
ATOM      6  C   LIG A   1     -13.206   7.982 129.264  0.00  0.00    +0.050 A 
ENDROOT
BRANCH   1   7
ATOM      7  O   LIG A   1     -13.200   7.474 131.572  0.00  0.00    -0.503 OA
ATOM      8  H   LIG A   1     -13.658   8.337 131.587  0.00  0.00    +0.292 HD
ENDBRANCH   1   7
BRANCH   4   9
ATOM      9  C   LIG A   1     -10.628   7.328 126.584  0.00  0.00    +0.337 C 
ATOM     10  O   LIG A   1     -10.841   8.063 125.647  0.00  0.00    -0.245 OA
BRANCH   9  11
ATOM     11  O   LIG A   1      -9.754   6.303 126.504  0.00  0.00    -0.477 OA
ATOM     12  H   LIG A   1      -8.981   6.675 126.031  0.00  0.00    +0.295 HD
ENDBRANCH   9  11
ENDBRANCH   4   9
BRANCH   2  13
ATOM     13  O   LIG A   1     -10.776   6.384 131.444  0.00  0.00    -0.484 OA
BRANCH  13  14
ATOM     14  C   LIG A   1      -9.348   6.299 131.536  0.00  0.00    +0.257 C 
BRANCH  14  15
ATOM     15  C   LIG A   1      -9.012   5.890 132.947  0.00  0.00    +0.012 C 
ATOM     16  C   LIG A   1      -7.792   5.668 133.479  0.00  0.00    -0.073 C 
ATOM     17  C   LIG A   1      -6.500   5.804 132.718  0.00  0.00    +0.038 C 
BRANCH  16  18
ATOM     18  C   LIG A   1      -7.650   5.252 134.938  0.00  0.00    +0.034 C 
BRANCH  18  19
ATOM     19  C   LIG A   1      -6.842   6.266 135.760  0.00  0.00    +0.031 C 
BRANCH  19  20
ATOM     20  C   LIG A   1      -6.778   5.898 137.222  0.00  0.00    -0.028 C 
ATOM     21  C   LIG A   1      -7.487   6.428 138.240  0.00  0.00    -0.080 C 
ATOM     22  C   LIG A   1      -8.543   7.493 138.105  0.00  0.00    +0.038 C 
ATOM     23  C   LIG A   1      -7.260   5.969 139.659  0.00  0.00    +0.038 C 
ENDBRANCH  19  20
ENDBRANCH  18  19
ENDBRANCH  16  18
ENDBRANCH  14  15
ENDBRANCH  13  14
ENDBRANCH   2  13
TORSDOF 9
ENDMDL
MODEL 6
REMARK VINA RESULT:      -6.6      9.645     11.798
REMARK  Name = NuBBE_3
REMARK  12 active torsions:
REMARK  status: ('A' for Active; 'I' for Inactive)
REMARK    1  A    between atoms: O_1  and  C_2
REMARK    2  A    between atoms: C_3  and  O_4
REMARK    3  A    between atoms: O_4  and  C_5
REMARK    4  A    between atoms: C_5  and  C_6
REMARK    5  A    between atoms: C_7  and  C_8
REMARK    6  A    between atoms: C_7  and  C_9
REMARK    7  A    between atoms: C_9  and  C_10
REMARK    8  A    between atoms: C_10  and  C_11
REMARK    9  A    between atoms: C_12  and  C_13
REMARK   10  A    between atoms: C_12  and  C_14
REMARK   11  A    between atoms: C_16  and  C_17
REMARK   12  A    between atoms: C_17  and  O_18
REMARK                            x       y       z     vdW  Elec       q    Type
REMARK                         _______ _______ _______ _____ _____    ______ ____
ROOT
ATOM      1  C   LIG A   1      -8.434  -2.732 124.646  0.00  0.00    +0.159 A 
ATOM      2  C   LIG A   1      -7.513  -1.843 124.076  0.00  0.00    +0.163 A 
ATOM      3  C   LIG A   1      -6.240  -2.309 123.742  0.00  0.00    +0.064 A 
ATOM      4  C   LIG A   1      -5.936  -3.670 123.921  0.00  0.00    +0.062 A 
ATOM      5  C   LIG A   1      -6.882  -4.551 124.468  0.00  0.00    +0.019 A 
ATOM      6  C   LIG A   1      -8.135  -4.074 124.842  0.00  0.00    +0.050 A 
ENDROOT
BRANCH   1   7
ATOM      7  O   LIG A   1      -9.677  -2.291 125.011  0.00  0.00    -0.503 OA
ATOM      8  H   LIG A   1      -9.779  -1.423 124.572  0.00  0.00    +0.292 HD
ENDBRANCH   1   7
BRANCH   4   9
ATOM      9  C   LIG A   1      -4.597  -4.162 123.527  0.00  0.00    +0.337 C 
ATOM     10  O   LIG A   1      -4.272  -5.318 123.389  0.00  0.00    -0.245 OA
BRANCH   9  11
ATOM     11  O   LIG A   1      -3.712  -3.151 123.400  0.00  0.00    -0.477 OA
ATOM     12  H   LIG A   1      -2.961  -3.408 123.974  0.00  0.00    +0.295 HD
ENDBRANCH   9  11
ENDBRANCH   4   9
BRANCH   2  13
ATOM     13  O   LIG A   1      -7.974  -0.560 123.921  0.00  0.00    -0.484 OA
BRANCH  13  14
ATOM     14  C   LIG A   1      -7.529   0.400 124.886  0.00  0.00    +0.257 C 
BRANCH  14  15
ATOM     15  C   LIG A   1      -6.865   1.523 124.131  0.00  0.00    +0.012 C 
ATOM     16  C   LIG A   1      -7.446   2.458 123.351  0.00  0.00    -0.073 C 
ATOM     17  C   LIG A   1      -8.928   2.545 123.098  0.00  0.00    +0.038 C 
BRANCH  16  18
ATOM     18  C   LIG A   1      -6.601   3.520 122.657  0.00  0.00    +0.034 C 
BRANCH  18  19
ATOM     19  C   LIG A   1      -5.955   2.999 121.366  0.00  0.00    +0.031 C 
BRANCH  19  20
ATOM     20  C   LIG A   1      -5.574   4.116 120.426  0.00  0.00    -0.028 C 
ATOM     21  C   LIG A   1      -6.341   4.706 119.486  0.00  0.00    -0.080 C 
ATOM     22  C   LIG A   1      -7.786   4.382 119.213  0.00  0.00    +0.038 C 
ATOM     23  C   LIG A   1      -5.778   5.785 118.595  0.00  0.00    +0.038 C 
ENDBRANCH  19  20
ENDBRANCH  18  19
ENDBRANCH  16  18
ENDBRANCH  14  15
ENDBRANCH  13  14
ENDBRANCH   2  13
TORSDOF 9
ENDMDL
MODEL 7
REMARK VINA RESULT:      -6.6      2.915      4.197
REMARK  Name = NuBBE_3
REMARK  12 active torsions:
REMARK  status: ('A' for Active; 'I' for Inactive)
REMARK    1  A    between atoms: O_1  and  C_2
REMARK    2  A    between atoms: C_3  and  O_4
REMARK    3  A    between atoms: O_4  and  C_5
REMARK    4  A    between atoms: C_5  and  C_6
REMARK    5  A    between atoms: C_7  and  C_8
REMARK    6  A    between atoms: C_7  and  C_9
REMARK    7  A    between atoms: C_9  and  C_10
REMARK    8  A    between atoms: C_10  and  C_11
REMARK    9  A    between atoms: C_12  and  C_13
REMARK   10  A    between atoms: C_12  and  C_14
REMARK   11  A    between atoms: C_16  and  C_17
REMARK   12  A    between atoms: C_17  and  O_18
REMARK                            x       y       z     vdW  Elec       q    Type
REMARK                         _______ _______ _______ _____ _____    ______ ____
ROOT
ATOM      1  C   LIG A   1     -12.580   7.126 130.293  0.00  0.00    +0.159 A 
ATOM      2  C   LIG A   1     -11.187   6.977 130.284  0.00  0.00    +0.163 A 
ATOM      3  C   LIG A   1     -10.520   6.919 129.058  0.00  0.00    +0.064 A 
ATOM      4  C   LIG A   1     -11.252   7.081 127.868  0.00  0.00    +0.062 A 
ATOM      5  C   LIG A   1     -12.643   7.259 127.899  0.00  0.00    +0.019 A 
ATOM      6  C   LIG A   1     -13.311   7.270 129.121  0.00  0.00    +0.050 A 
ENDROOT
BRANCH   1   7
ATOM      7  O   LIG A   1     -13.259   7.154 131.481  0.00  0.00    -0.503 OA
ATOM      8  H   LIG A   1     -12.947   6.369 131.971  0.00  0.00    +0.292 HD
ENDBRANCH   1   7
BRANCH   4   9
ATOM      9  C   LIG A   1     -10.529   7.058 126.577  0.00  0.00    +0.337 C 
ATOM     10  O   LIG A   1      -9.664   6.276 126.255  0.00  0.00    -0.245 OA
BRANCH   9  11
ATOM     11  O   LIG A   1     -10.896   8.084 125.781  0.00  0.00    -0.477 OA
ATOM     12  H   LIG A   1     -10.626   8.887 126.275  0.00  0.00    +0.295 HD
ENDBRANCH   9  11
ENDBRANCH   4   9
BRANCH   2  13
ATOM     13  O   LIG A   1     -10.612   6.879 131.526  0.00  0.00    -0.484 OA
BRANCH  13  14
ATOM     14  C   LIG A   1      -9.229   6.507 131.564  0.00  0.00    +0.257 C 
BRANCH  14  15
ATOM     15  C   LIG A   1      -9.110   5.312 132.473  0.00  0.00    +0.012 C 
ATOM     16  C   LIG A   1      -9.351   4.017 132.180  0.00  0.00    -0.073 C 
ATOM     17  C   LIG A   1      -9.795   3.525 130.829  0.00  0.00    +0.038 C 
BRANCH  16  18
ATOM     18  C   LIG A   1      -9.179   2.939 133.244  0.00  0.00    +0.034 C 
BRANCH  18  19
ATOM     19  C   LIG A   1      -7.752   2.897 133.808  0.00  0.00    +0.031 C 
BRANCH  19  20
ATOM     20  C   LIG A   1      -6.825   2.062 132.960  0.00  0.00    -0.028 C 
ATOM     21  C   LIG A   1      -5.863   2.492 132.116  0.00  0.00    -0.080 C 
ATOM     22  C   LIG A   1      -5.488   3.931 131.884  0.00  0.00    +0.038 C 
ATOM     23  C   LIG A   1      -5.055   1.511 131.304  0.00  0.00    +0.038 C 
ENDBRANCH  19  20
ENDBRANCH  18  19
ENDBRANCH  16  18
ENDBRANCH  14  15
ENDBRANCH  13  14
ENDBRANCH   2  13
TORSDOF 9
ENDMDL
MODEL 8
REMARK VINA RESULT:      -6.4      3.300      4.543
REMARK  Name = NuBBE_3
REMARK  12 active torsions:
REMARK  status: ('A' for Active; 'I' for Inactive)
REMARK    1  A    between atoms: O_1  and  C_2
REMARK    2  A    between atoms: C_3  and  O_4
REMARK    3  A    between atoms: O_4  and  C_5
REMARK    4  A    between atoms: C_5  and  C_6
REMARK    5  A    between atoms: C_7  and  C_8
REMARK    6  A    between atoms: C_7  and  C_9
REMARK    7  A    between atoms: C_9  and  C_10
REMARK    8  A    between atoms: C_10  and  C_11
REMARK    9  A    between atoms: C_12  and  C_13
REMARK   10  A    between atoms: C_12  and  C_14
REMARK   11  A    between atoms: C_16  and  C_17
REMARK   12  A    between atoms: C_17  and  O_18
REMARK                            x       y       z     vdW  Elec       q    Type
REMARK                         _______ _______ _______ _____ _____    ______ ____
ROOT
ATOM      1  C   LIG A   1     -10.858   6.308 131.899  0.00  0.00    +0.159 A 
ATOM      2  C   LIG A   1      -9.751   6.529 131.069  0.00  0.00    +0.163 A 
ATOM      3  C   LIG A   1      -9.930   7.227 129.873  0.00  0.00    +0.064 A 
ATOM      4  C   LIG A   1     -11.198   7.749 129.564  0.00  0.00    +0.062 A 
ATOM      5  C   LIG A   1     -12.289   7.541 130.421  0.00  0.00    +0.019 A 
ATOM      6  C   LIG A   1     -12.117   6.806 131.591  0.00  0.00    +0.050 A 
ENDROOT
BRANCH   1   7
ATOM      7  O   LIG A   1     -10.714   5.600 133.061  0.00  0.00    -0.503 OA
ATOM      8  H   LIG A   1      -9.751   5.472 133.164  0.00  0.00    +0.292 HD
ENDBRANCH   1   7
BRANCH   4   9
ATOM      9  C   LIG A   1     -11.367   8.521 128.312  0.00  0.00    +0.337 C 
ATOM     10  O   LIG A   1     -10.649   8.472 127.339  0.00  0.00    -0.245 OA
BRANCH   9  11
ATOM     11  O   LIG A   1     -12.407   9.376 128.389  0.00  0.00    -0.477 OA
ATOM     12  H   LIG A   1     -12.205  10.070 127.728  0.00  0.00    +0.295 HD
ENDBRANCH   9  11
ENDBRANCH   4   9
BRANCH   2  13
ATOM     13  O   LIG A   1      -8.573   5.999 131.532  0.00  0.00    -0.484 OA
BRANCH  13  14
ATOM     14  C   LIG A   1      -7.983   4.963 130.738  0.00  0.00    +0.257 C 
BRANCH  14  15
ATOM     15  C   LIG A   1      -8.854   3.740 130.874  0.00  0.00    +0.012 C 
ATOM     16  C   LIG A   1      -8.928   2.884 131.915  0.00  0.00    -0.073 C 
ATOM     17  C   LIG A   1      -8.119   3.018 133.177  0.00  0.00    +0.038 C 
BRANCH  16  18
ATOM     18  C   LIG A   1      -9.873   1.690 131.867  0.00  0.00    +0.034 C 
BRANCH  18  19
ATOM     19  C   LIG A   1      -9.122   0.351 131.858  0.00  0.00    +0.031 C 
BRANCH  19  20
ATOM     20  C   LIG A   1      -8.331   0.146 130.589  0.00  0.00    -0.028 C 
ATOM     21  C   LIG A   1      -6.990   0.118 130.446  0.00  0.00    -0.080 C 
ATOM     22  C   LIG A   1      -5.991   0.247 131.564  0.00  0.00    +0.038 C 
ATOM     23  C   LIG A   1      -6.363  -0.051 129.084  0.00  0.00    +0.038 C 
ENDBRANCH  19  20
ENDBRANCH  18  19
ENDBRANCH  16  18
ENDBRANCH  14  15
ENDBRANCH  13  14
ENDBRANCH   2  13
TORSDOF 9
ENDMDL
MODEL 9
REMARK VINA RESULT:      -6.4      8.780     10.335
REMARK  Name = NuBBE_3
REMARK  12 active torsions:
REMARK  status: ('A' for Active; 'I' for Inactive)
REMARK    1  A    between atoms: O_1  and  C_2
REMARK    2  A    between atoms: C_3  and  O_4
REMARK    3  A    between atoms: O_4  and  C_5
REMARK    4  A    between atoms: C_5  and  C_6
REMARK    5  A    between atoms: C_7  and  C_8
REMARK    6  A    between atoms: C_7  and  C_9
REMARK    7  A    between atoms: C_9  and  C_10
REMARK    8  A    between atoms: C_10  and  C_11
REMARK    9  A    between atoms: C_12  and  C_13
REMARK   10  A    between atoms: C_12  and  C_14
REMARK   11  A    between atoms: C_16  and  C_17
REMARK   12  A    between atoms: C_17  and  O_18
REMARK                            x       y       z     vdW  Elec       q    Type
REMARK                         _______ _______ _______ _____ _____    ______ ____
ROOT
ATOM      1  C   LIG A   1      -9.350  -0.399 122.995  0.00  0.00    +0.159 A 
ATOM      2  C   LIG A   1      -7.968  -0.530 123.186  0.00  0.00    +0.163 A 
ATOM      3  C   LIG A   1      -7.189   0.622 123.301  0.00  0.00    +0.064 A 
ATOM      4  C   LIG A   1      -7.815   1.881 123.291  0.00  0.00    +0.062 A 
ATOM      5  C   LIG A   1      -9.204   1.991 123.127  0.00  0.00    +0.019 A 
ATOM      6  C   LIG A   1      -9.974   0.841 122.967  0.00  0.00    +0.050 A 
ENDROOT
BRANCH   1   7
ATOM      7  O   LIG A   1     -10.131  -1.514 122.848  0.00  0.00    -0.503 OA
ATOM      8  H   LIG A   1     -11.026  -1.236 123.124  0.00  0.00    +0.292 HD
ENDBRANCH   1   7
BRANCH   4   9
ATOM      9  C   LIG A   1      -6.984   3.095 123.454  0.00  0.00    +0.337 C 
ATOM     10  O   LIG A   1      -6.431   3.452 124.468  0.00  0.00    -0.245 OA
BRANCH   9  11
ATOM     11  O   LIG A   1      -6.957   3.837 122.327  0.00  0.00    -0.477 OA
ATOM     12  H   LIG A   1      -6.486   3.277 121.675  0.00  0.00    +0.295 HD
ENDBRANCH   9  11
ENDBRANCH   4   9
BRANCH   2  13
ATOM     13  O   LIG A   1      -7.514  -1.824 123.221  0.00  0.00    -0.484 OA
BRANCH  13  14
ATOM     14  C   LIG A   1      -6.524  -2.128 124.210  0.00  0.00    +0.257 C 
BRANCH  14  15
ATOM     15  C   LIG A   1      -7.214  -2.870 125.325  0.00  0.00    +0.012 C 
ATOM     16  C   LIG A   1      -7.754  -2.361 126.453  0.00  0.00    -0.073 C 
ATOM     17  C   LIG A   1      -7.761  -0.897 126.799  0.00  0.00    +0.038 C 
BRANCH  16  18
ATOM     18  C   LIG A   1      -8.411  -3.279 127.477  0.00  0.00    +0.034 C 
BRANCH  18  19
ATOM     19  C   LIG A   1      -8.260  -2.755 128.912  0.00  0.00    +0.031 C 
BRANCH  19  20
ATOM     20  C   LIG A   1      -7.409  -3.661 129.766  0.00  0.00    -0.028 C 
ATOM     21  C   LIG A   1      -6.063  -3.703 129.843  0.00  0.00    -0.080 C 
ATOM     22  C   LIG A   1      -5.120  -2.795 129.099  0.00  0.00    +0.038 C 
ATOM     23  C   LIG A   1      -5.371  -4.714 130.722  0.00  0.00    +0.038 C 
ENDBRANCH  19  20
ENDBRANCH  18  19
ENDBRANCH  16  18
ENDBRANCH  14  15
ENDBRANCH  13  14
ENDBRANCH   2  13
TORSDOF 9
ENDMDL
