MODEL 1
REMARK VINA RESULT:      -7.4      0.000      0.000
REMARK  Name = NuBBE_1319
REMARK  3 active torsions:
REMARK  status: ('A' for Active; 'I' for Inactive)
REMARK    1  A    between atoms: O_1  and  C_2
REMARK    2  A    between atoms: C_18  and  O_21
REMARK    3  A    between atoms: O_21  and  C_22
REMARK                            x       y       z     vdW  Elec       q    Type
REMARK                         _______ _______ _______ _____ _____    ______ ____
ROOT
ATOM      1  C   LIG A   1     -12.729   8.666 128.868  0.00  0.00    +0.120 A 
ATOM      2  C   LIG A   1     -12.812   7.944 130.053  0.00  0.00    +0.091 A 
ATOM      3  C   LIG A   1     -11.706   7.212 130.485  0.00  0.00    +0.131 A 
ATOM      4  C   LIG A   1     -10.531   7.169 129.724  0.00  0.00    +0.035 A 
ATOM      5  C   LIG A   1     -10.467   7.908 128.533  0.00  0.00    +0.014 A 
ATOM      6  C   LIG A   1     -11.565   8.660 128.109  0.00  0.00    +0.046 A 
ATOM      7  C   LIG A   1      -9.376   6.301 130.144  0.00  0.00    +0.218 C 
ATOM      8  C   LIG A   1      -9.634   5.543 131.457  0.00  0.00    +0.105 C 
ATOM      9  C   LIG A   1     -10.603   6.323 132.333  0.00  0.00    +0.241 C 
ATOM     10  O   LIG A   1     -11.852   6.526 131.664  0.00  0.00    -0.491 OA
ATOM     11  C   LIG A   1      -8.252   5.532 131.997  0.00  0.00    +0.005 A 
ATOM     12  C   LIG A   1      -7.486   6.455 131.304  0.00  0.00    +0.129 A 
ATOM     13  O   LIG A   1      -8.171   7.099 130.305  0.00  0.00    -0.483 OA
ATOM     14  C   LIG A   1      -6.170   6.705 131.632  0.00  0.00    +0.091 A 
ATOM     15  C   LIG A   1      -5.599   5.983 132.684  0.00  0.00    +0.124 A 
ATOM     16  C   LIG A   1      -6.370   5.037 133.385  0.00  0.00    +0.046 A 
ATOM     17  C   LIG A   1      -7.711   4.810 133.045  0.00  0.00    +0.011 A 
ENDROOT
BRANCH   1  18
ATOM     18  O   LIG A   1     -13.781   9.404 128.410  0.00  0.00    -0.507 OA
ATOM     19  H   LIG A   1     -14.573   8.843 128.408  0.00  0.00    +0.292 HD
ENDBRANCH   1  18
BRANCH  15  20
ATOM     20  O   LIG A   1      -4.289   6.287 132.935  0.00  0.00    -0.495 OA
ATOM     21  C   LIG A   1      -3.602   7.050 131.950  0.00  0.00    +0.277 C 
ENDBRANCH  15  20
TORSDOF 2
ENDMDL
MODEL 2
REMARK VINA RESULT:      -7.1      8.826     10.253
REMARK  Name = NuBBE_1319
REMARK  3 active torsions:
REMARK  status: ('A' for Active; 'I' for Inactive)
REMARK    1  A    between atoms: O_1  and  C_2
REMARK    2  A    between atoms: C_18  and  O_21
REMARK    3  A    between atoms: O_21  and  C_22
REMARK                            x       y       z     vdW  Elec       q    Type
REMARK                         _______ _______ _______ _____ _____    ______ ____
ROOT
ATOM      1  C   LIG A   1      -5.554   4.762 120.327  0.00  0.00    +0.120 A 
ATOM      2  C   LIG A   1      -5.099   4.666 121.637  0.00  0.00    +0.091 A 
ATOM      3  C   LIG A   1      -5.877   3.996 122.582  0.00  0.00    +0.131 A 
ATOM      4  C   LIG A   1      -7.122   3.456 122.235  0.00  0.00    +0.035 A 
ATOM      5  C   LIG A   1      -7.560   3.561 120.906  0.00  0.00    +0.014 A 
ATOM      6  C   LIG A   1      -6.773   4.211 119.953  0.00  0.00    +0.046 A 
ATOM      7  C   LIG A   1      -8.001   2.821 123.279  0.00  0.00    +0.218 C 
ATOM      8  C   LIG A   1      -7.371   2.819 124.681  0.00  0.00    +0.105 C 
ATOM      9  C   LIG A   1      -5.853   2.796 124.577  0.00  0.00    +0.241 C 
ATOM     10  O   LIG A   1      -5.370   3.933 123.855  0.00  0.00    -0.491 OA
ATOM     11  C   LIG A   1      -7.932   1.543 125.190  0.00  0.00    +0.005 A 
ATOM     12  C   LIG A   1      -8.432   0.812 124.124  0.00  0.00    +0.129 A 
ATOM     13  O   LIG A   1      -8.314   1.449 122.915  0.00  0.00    -0.483 OA
ATOM     14  C   LIG A   1      -8.963  -0.451 124.291  0.00  0.00    +0.091 A 
ATOM     15  C   LIG A   1      -9.011  -0.986 125.582  0.00  0.00    +0.124 A 
ATOM     16  C   LIG A   1      -8.513  -0.242 126.668  0.00  0.00    +0.046 A 
ATOM     17  C   LIG A   1      -7.963   1.032 126.474  0.00  0.00    +0.011 A 
ENDROOT
BRANCH   1  18
ATOM     18  O   LIG A   1      -4.824   5.398 119.367  0.00  0.00    -0.507 OA
ATOM     19  H   LIG A   1      -5.235   5.228 118.503  0.00  0.00    +0.292 HD
ENDBRANCH   1  18
BRANCH  15  20
ATOM     20  O   LIG A   1      -9.561  -2.236 125.656  0.00  0.00    -0.495 OA
ATOM     21  C   LIG A   1      -9.348  -3.104 124.550  0.00  0.00    +0.277 C 
ENDBRANCH  15  20
TORSDOF 2
ENDMDL
MODEL 3
REMARK VINA RESULT:      -7.0      1.570      6.604
REMARK  Name = NuBBE_1319
REMARK  3 active torsions:
REMARK  status: ('A' for Active; 'I' for Inactive)
REMARK    1  A    between atoms: O_1  and  C_2
REMARK    2  A    between atoms: C_18  and  O_21
REMARK    3  A    between atoms: O_21  and  C_22
REMARK                            x       y       z     vdW  Elec       q    Type
REMARK                         _______ _______ _______ _____ _____    ______ ____
ROOT
ATOM      1  C   LIG A   1      -3.907   5.115 131.039  0.00  0.00    +0.120 A 
ATOM      2  C   LIG A   1      -4.953   4.394 131.604  0.00  0.00    +0.091 A 
ATOM      3  C   LIG A   1      -6.221   4.974 131.675  0.00  0.00    +0.131 A 
ATOM      4  C   LIG A   1      -6.440   6.280 131.220  0.00  0.00    +0.035 A 
ATOM      5  C   LIG A   1      -5.371   6.987 130.649  0.00  0.00    +0.014 A 
ATOM      6  C   LIG A   1      -4.107   6.403 130.556  0.00  0.00    +0.046 A 
ATOM      7  C   LIG A   1      -7.784   6.936 131.388  0.00  0.00    +0.218 C 
ATOM      8  C   LIG A   1      -8.825   6.021 132.056  0.00  0.00    +0.105 C 
ATOM      9  C   LIG A   1      -8.511   4.562 131.760  0.00  0.00    +0.241 C 
ATOM     10  O   LIG A   1      -7.209   4.209 132.240  0.00  0.00    -0.491 OA
ATOM     11  C   LIG A   1     -10.042   6.501 131.357  0.00  0.00    +0.005 A 
ATOM     12  C   LIG A   1      -9.666   7.239 130.246  0.00  0.00    +0.129 A 
ATOM     13  O   LIG A   1      -8.308   7.361 130.101  0.00  0.00    -0.483 OA
ATOM     14  C   LIG A   1     -10.594   7.761 129.369  0.00  0.00    +0.091 A 
ATOM     15  C   LIG A   1     -11.951   7.549 129.633  0.00  0.00    +0.124 A 
ATOM     16  C   LIG A   1     -12.337   6.808 130.766  0.00  0.00    +0.046 A 
ATOM     17  C   LIG A   1     -11.377   6.273 131.635  0.00  0.00    +0.011 A 
ENDROOT
BRANCH   1  18
ATOM     18  O   LIG A   1      -2.654   4.587 130.938  0.00  0.00    -0.507 OA
ATOM     19  H   LIG A   1      -2.022   5.314 130.817  0.00  0.00    +0.292 HD
ENDBRANCH   1  18
BRANCH  15  20
ATOM     20  O   LIG A   1     -12.800   8.109 128.719  0.00  0.00    -0.495 OA
ATOM     21  C   LIG A   1     -13.132   9.480 128.899  0.00  0.00    +0.277 C 
ENDBRANCH  15  20
TORSDOF 2
ENDMDL
MODEL 4
REMARK VINA RESULT:      -7.0      2.181      3.441
REMARK  Name = NuBBE_1319
REMARK  3 active torsions:
REMARK  status: ('A' for Active; 'I' for Inactive)
REMARK    1  A    between atoms: O_1  and  C_2
REMARK    2  A    between atoms: C_18  and  O_21
REMARK    3  A    between atoms: O_21  and  C_22
REMARK                            x       y       z     vdW  Elec       q    Type
REMARK                         _______ _______ _______ _____ _____    ______ ____
ROOT
ATOM      1  C   LIG A   1     -12.212   7.765 129.637  0.00  0.00    +0.120 A 
ATOM      2  C   LIG A   1     -10.839   7.862 129.435  0.00  0.00    +0.091 A 
ATOM      3  C   LIG A   1      -9.972   7.234 130.330  0.00  0.00    +0.131 A 
ATOM      4  C   LIG A   1     -10.465   6.542 131.443  0.00  0.00    +0.035 A 
ATOM      5  C   LIG A   1     -11.853   6.453 131.625  0.00  0.00    +0.014 A 
ATOM      6  C   LIG A   1     -12.725   7.061 130.720  0.00  0.00    +0.046 A 
ATOM      7  C   LIG A   1      -9.524   5.950 132.457  0.00  0.00    +0.218 C 
ATOM      8  C   LIG A   1      -8.042   6.168 132.108  0.00  0.00    +0.105 C 
ATOM      9  C   LIG A   1      -7.867   6.277 130.601  0.00  0.00    +0.241 C 
ATOM     10  O   LIG A   1      -8.631   7.365 130.071  0.00  0.00    -0.491 OA
ATOM     11  C   LIG A   1      -7.482   4.911 132.663  0.00  0.00    +0.005 A 
ATOM     12  C   LIG A   1      -8.517   4.019 132.896  0.00  0.00    +0.129 A 
ATOM     13  O   LIG A   1      -9.756   4.522 132.595  0.00  0.00    -0.483 OA
ATOM     14  C   LIG A   1      -8.286   2.739 133.357  0.00  0.00    +0.091 A 
ATOM     15  C   LIG A   1      -6.966   2.352 133.612  0.00  0.00    +0.124 A 
ATOM     16  C   LIG A   1      -5.914   3.259 133.386  0.00  0.00    +0.046 A 
ATOM     17  C   LIG A   1      -6.170   4.549 132.902  0.00  0.00    +0.011 A 
ENDROOT
BRANCH   1  18
ATOM     18  O   LIG A   1     -13.098   8.353 128.785  0.00  0.00    -0.507 OA
ATOM     19  H   LIG A   1     -12.896   9.302 128.736  0.00  0.00    +0.292 HD
ENDBRANCH   1  18
BRANCH  15  20
ATOM     20  O   LIG A   1      -6.831   1.072 134.075  0.00  0.00    -0.495 OA
ATOM     21  C   LIG A   1      -6.731   0.040 133.102  0.00  0.00    +0.277 C 
ENDBRANCH  15  20
TORSDOF 2
ENDMDL
MODEL 5
REMARK VINA RESULT:      -6.7      9.046      9.582
REMARK  Name = NuBBE_1319
REMARK  3 active torsions:
REMARK  status: ('A' for Active; 'I' for Inactive)
REMARK    1  A    between atoms: O_1  and  C_2
REMARK    2  A    between atoms: C_18  and  O_21
REMARK    3  A    between atoms: O_21  and  C_22
REMARK                            x       y       z     vdW  Elec       q    Type
REMARK                         _______ _______ _______ _____ _____    ______ ____
ROOT
ATOM      1  C   LIG A   1      -8.365   2.714 122.695  0.00  0.00    +0.120 A 
ATOM      2  C   LIG A   1      -9.389   2.020 123.330  0.00  0.00    +0.091 A 
ATOM      3  C   LIG A   1      -9.082   0.882 124.076  0.00  0.00    +0.131 A 
ATOM      4  C   LIG A   1      -7.766   0.411 124.161  0.00  0.00    +0.035 A 
ATOM      5  C   LIG A   1      -6.747   1.129 123.516  0.00  0.00    +0.014 A 
ATOM      6  C   LIG A   1      -7.047   2.281 122.787  0.00  0.00    +0.046 A 
ATOM      7  C   LIG A   1      -7.454  -0.871 124.885  0.00  0.00    +0.218 C 
ATOM      8  C   LIG A   1      -8.695  -1.533 125.506  0.00  0.00    +0.105 C 
ATOM      9  C   LIG A   1      -9.739  -0.479 125.848  0.00  0.00    +0.241 C 
ATOM     10  O   LIG A   1     -10.138   0.247 124.681  0.00  0.00    -0.491 OA
ATOM     11  C   LIG A   1      -8.066  -2.130 126.709  0.00  0.00    +0.005 A 
ATOM     12  C   LIG A   1      -6.820  -1.556 126.901  0.00  0.00    +0.129 A 
ATOM     13  O   LIG A   1      -6.484  -0.636 125.942  0.00  0.00    -0.483 OA
ATOM     14  C   LIG A   1      -6.028  -1.876 127.985  0.00  0.00    +0.091 A 
ATOM     15  C   LIG A   1      -6.501  -2.826 128.896  0.00  0.00    +0.124 A 
ATOM     16  C   LIG A   1      -7.762  -3.419 128.699  0.00  0.00    +0.046 A 
ATOM     17  C   LIG A   1      -8.558  -3.066 127.600  0.00  0.00    +0.011 A 
ENDROOT
BRANCH   1  18
ATOM     18  O   LIG A   1      -8.614   3.837 121.964  0.00  0.00    -0.507 OA
ATOM     19  H   LIG A   1      -8.241   4.601 122.435  0.00  0.00    +0.292 HD
ENDBRANCH   1  18
BRANCH  15  20
ATOM     20  O   LIG A   1      -5.649  -3.090 129.933  0.00  0.00    -0.495 OA
ATOM     21  C   LIG A   1      -5.651  -4.415 130.450  0.00  0.00    +0.277 C 
ENDBRANCH  15  20
TORSDOF 2
ENDMDL
MODEL 6
REMARK VINA RESULT:      -6.6      1.441      2.306
REMARK  Name = NuBBE_1319
REMARK  3 active torsions:
REMARK  status: ('A' for Active; 'I' for Inactive)
REMARK    1  A    between atoms: O_1  and  C_2
REMARK    2  A    between atoms: C_18  and  O_21
REMARK    3  A    between atoms: O_21  and  C_22
REMARK                            x       y       z     vdW  Elec       q    Type
REMARK                         _______ _______ _______ _____ _____    ______ ____
ROOT
ATOM      1  C   LIG A   1     -11.984   7.181 130.763  0.00  0.00    +0.120 A 
ATOM      2  C   LIG A   1     -11.462   6.542 131.882  0.00  0.00    +0.091 A 
ATOM      3  C   LIG A   1     -10.112   6.190 131.899  0.00  0.00    +0.131 A 
ATOM      4  C   LIG A   1      -9.290   6.438 130.793  0.00  0.00    +0.035 A 
ATOM      5  C   LIG A   1      -9.836   7.088 129.675  0.00  0.00    +0.014 A 
ATOM      6  C   LIG A   1     -11.181   7.462 129.663  0.00  0.00    +0.046 A 
ATOM      7  C   LIG A   1      -7.860   5.968 130.778  0.00  0.00    +0.218 C 
ATOM      8  C   LIG A   1      -7.444   5.254 132.074  0.00  0.00    +0.105 C 
ATOM      9  C   LIG A   1      -8.260   5.775 133.248  0.00  0.00    +0.241 C 
ATOM     10  O   LIG A   1      -9.660   5.567 133.035  0.00  0.00    -0.491 OA
ATOM     11  C   LIG A   1      -6.023   5.675 132.129  0.00  0.00    +0.005 A 
ATOM     12  C   LIG A   1      -5.830   6.734 131.257  0.00  0.00    +0.129 A 
ATOM     13  O   LIG A   1      -6.959   7.088 130.563  0.00  0.00    -0.483 OA
ATOM     14  C   LIG A   1      -4.613   7.373 131.142  0.00  0.00    +0.091 A 
ATOM     15  C   LIG A   1      -3.546   6.914 131.921  0.00  0.00    +0.124 A 
ATOM     16  C   LIG A   1      -3.735   5.833 132.802  0.00  0.00    +0.046 A 
ATOM     17  C   LIG A   1      -4.985   5.209 132.914  0.00  0.00    +0.011 A 
ENDROOT
BRANCH   1  18
ATOM     18  O   LIG A   1     -13.294   7.554 130.704  0.00  0.00    -0.507 OA
ATOM     19  H   LIG A   1     -13.817   6.925 131.227  0.00  0.00    +0.292 HD
ENDBRANCH   1  18
BRANCH  15  20
ATOM     20  O   LIG A   1      -2.375   7.598 131.738  0.00  0.00    -0.495 OA
ATOM     21  C   LIG A   1      -1.167   6.865 131.891  0.00  0.00    +0.277 C 
ENDBRANCH  15  20
TORSDOF 2
ENDMDL
MODEL 7
REMARK VINA RESULT:      -6.5      2.728      2.755
REMARK  Name = NuBBE_1319
REMARK  3 active torsions:
REMARK  status: ('A' for Active; 'I' for Inactive)
REMARK    1  A    between atoms: O_1  and  C_2
REMARK    2  A    between atoms: C_18  and  O_21
REMARK    3  A    between atoms: O_21  and  C_22
REMARK                            x       y       z     vdW  Elec       q    Type
REMARK                         _______ _______ _______ _____ _____    ______ ____
ROOT
ATOM      1  C   LIG A   1     -12.995   9.489 129.662  0.00  0.00    +0.120 A 
ATOM      2  C   LIG A   1     -12.924   8.684 130.793  0.00  0.00    +0.091 A 
ATOM      3  C   LIG A   1     -12.269   7.454 130.716  0.00  0.00    +0.131 A 
ATOM      4  C   LIG A   1     -11.717   7.009 129.508  0.00  0.00    +0.035 A 
ATOM      5  C   LIG A   1     -11.795   7.840 128.380  0.00  0.00    +0.014 A 
ATOM      6  C   LIG A   1     -12.431   9.081 128.459  0.00  0.00    +0.046 A 
ATOM      7  C   LIG A   1     -11.098   5.641 129.405  0.00  0.00    +0.218 C 
ATOM      8  C   LIG A   1     -11.124   4.864 130.732  0.00  0.00    +0.105 C 
ATOM      9  C   LIG A   1     -11.106   5.828 131.908  0.00  0.00    +0.241 C 
ATOM     10  O   LIG A   1     -12.232   6.711 131.868  0.00  0.00    -0.491 OA
ATOM     11  C   LIG A   1      -9.856   4.108 130.587  0.00  0.00    +0.005 A 
ATOM     12  C   LIG A   1      -9.102   4.678 129.573  0.00  0.00    +0.129 A 
ATOM     13  O   LIG A   1      -9.717   5.739 128.960  0.00  0.00    -0.483 OA
ATOM     14  C   LIG A   1      -7.841   4.219 129.255  0.00  0.00    +0.091 A 
ATOM     15  C   LIG A   1      -7.329   3.132 129.972  0.00  0.00    +0.124 A 
ATOM     16  C   LIG A   1      -8.095   2.545 130.995  0.00  0.00    +0.046 A 
ATOM     17  C   LIG A   1      -9.368   3.038 131.313  0.00  0.00    +0.011 A 
ENDROOT
BRANCH   1  18
ATOM     18  O   LIG A   1     -13.615  10.703 129.692  0.00  0.00    -0.507 OA
ATOM     19  H   LIG A   1     -14.527  10.575 130.001  0.00  0.00    +0.292 HD
ENDBRANCH   1  18
BRANCH  15  20
ATOM     20  O   LIG A   1      -6.078   2.737 129.584  0.00  0.00    -0.495 OA
ATOM     21  C   LIG A   1      -5.460   3.478 128.539  0.00  0.00    +0.277 C 
ENDBRANCH  15  20
TORSDOF 2
ENDMDL
MODEL 8
REMARK VINA RESULT:      -6.5      6.856      9.322
REMARK  Name = NuBBE_1319
REMARK  3 active torsions:
REMARK  status: ('A' for Active; 'I' for Inactive)
REMARK    1  A    between atoms: O_1  and  C_2
REMARK    2  A    between atoms: C_18  and  O_21
REMARK    3  A    between atoms: O_21  and  C_22
REMARK                            x       y       z     vdW  Elec       q    Type
REMARK                         _______ _______ _______ _____ _____    ______ ____
ROOT
ATOM      1  C   LIG A   1      -2.834   4.994 127.716  0.00  0.00    +0.120 A 
ATOM      2  C   LIG A   1      -4.049   5.541 127.319  0.00  0.00    +0.091 A 
ATOM      3  C   LIG A   1      -4.951   4.752 126.604  0.00  0.00    +0.131 A 
ATOM      4  C   LIG A   1      -4.632   3.433 126.254  0.00  0.00    +0.035 A 
ATOM      5  C   LIG A   1      -3.402   2.900 126.669  0.00  0.00    +0.014 A 
ATOM      6  C   LIG A   1      -2.506   3.680 127.403  0.00  0.00    +0.046 A 
ATOM      7  C   LIG A   1      -5.566   2.619 125.400  0.00  0.00    +0.218 C 
ATOM      8  C   LIG A   1      -6.850   3.373 125.018  0.00  0.00    +0.105 C 
ATOM      9  C   LIG A   1      -7.193   4.403 126.084  0.00  0.00    +0.241 C 
ATOM     10  O   LIG A   1      -6.132   5.349 126.246  0.00  0.00    -0.491 OA
ATOM     11  C   LIG A   1      -7.796   2.231 124.995  0.00  0.00    +0.005 A 
ATOM     12  C   LIG A   1      -7.215   1.148 125.637  0.00  0.00    +0.129 A 
ATOM     13  O   LIG A   1      -5.942   1.392 126.084  0.00  0.00    -0.483 OA
ATOM     14  C   LIG A   1      -7.891  -0.040 125.821  0.00  0.00    +0.091 A 
ATOM     15  C   LIG A   1      -9.194  -0.147 125.323  0.00  0.00    +0.124 A 
ATOM     16  C   LIG A   1      -9.784   0.946 124.663  0.00  0.00    +0.046 A 
ATOM     17  C   LIG A   1      -9.085   2.150 124.500  0.00  0.00    +0.011 A 
ENDROOT
BRANCH   1  18
ATOM     18  O   LIG A   1      -1.925   5.723 128.425  0.00  0.00    -0.507 OA
ATOM     19  H   LIG A   1      -1.074   5.694 127.957  0.00  0.00    +0.292 HD
ENDBRANCH   1  18
BRANCH  15  20
ATOM     20  O   LIG A   1      -9.785  -1.361 125.541  0.00  0.00    -0.495 OA
ATOM     21  C   LIG A   1      -8.958  -2.403 126.044  0.00  0.00    +0.277 C 
ENDBRANCH  15  20
TORSDOF 2
ENDMDL
MODEL 9
REMARK VINA RESULT:      -6.5      2.089      2.244
REMARK  Name = NuBBE_1319
REMARK  3 active torsions:
REMARK  status: ('A' for Active; 'I' for Inactive)
REMARK    1  A    between atoms: O_1  and  C_2
REMARK    2  A    between atoms: C_18  and  O_21
REMARK    3  A    between atoms: O_21  and  C_22
REMARK                            x       y       z     vdW  Elec       q    Type
REMARK                         _______ _______ _______ _____ _____    ______ ____
ROOT
ATOM      1  C   LIG A   1     -12.771   7.761 128.516  0.00  0.00    +0.120 A 
ATOM      2  C   LIG A   1     -12.792   6.402 128.809  0.00  0.00    +0.091 A 
ATOM      3  C   LIG A   1     -11.723   5.837 129.504  0.00  0.00    +0.131 A 
ATOM      4  C   LIG A   1     -10.616   6.613 129.875  0.00  0.00    +0.035 A 
ATOM      5  C   LIG A   1     -10.618   7.983 129.573  0.00  0.00    +0.014 A 
ATOM      6  C   LIG A   1     -11.696   8.556 128.897  0.00  0.00    +0.046 A 
ATOM      7  C   LIG A   1      -9.422   5.980 130.537  0.00  0.00    +0.218 C 
ATOM      8  C   LIG A   1      -9.587   4.468 130.766  0.00  0.00    +0.105 C 
ATOM      9  C   LIG A   1     -11.059   4.117 130.926  0.00  0.00    +0.241 C 
ATOM     10  O   LIG A   1     -11.808   4.494 129.766  0.00  0.00    -0.491 OA
ATOM     11  C   LIG A   1      -8.823   4.336 132.030  0.00  0.00    +0.005 A 
ATOM     12  C   LIG A   1      -8.635   5.595 132.579  0.00  0.00    +0.129 A 
ATOM     13  O   LIG A   1      -9.158   6.610 131.820  0.00  0.00    -0.483 OA
ATOM     14  C   LIG A   1      -8.006   5.775 133.794  0.00  0.00    +0.091 A 
ATOM     15  C   LIG A   1      -7.530   4.646 134.469  0.00  0.00    +0.124 A 
ATOM     16  C   LIG A   1      -7.711   3.367 133.910  0.00  0.00    +0.046 A 
ATOM     17  C   LIG A   1      -8.368   3.206 132.683  0.00  0.00    +0.011 A 
ENDROOT
BRANCH   1  18
ATOM     18  O   LIG A   1     -13.798   8.360 127.848  0.00  0.00    -0.507 OA
ATOM     19  H   LIG A   1     -13.702   9.323 127.933  0.00  0.00    +0.292 HD
ENDBRANCH   1  18
BRANCH  15  20
ATOM     20  O   LIG A   1      -6.912   4.917 135.659  0.00  0.00    -0.495 OA
ATOM     21  C   LIG A   1      -6.202   6.145 135.754  0.00  0.00    +0.277 C 
ENDBRANCH  15  20
TORSDOF 2
ENDMDL
