MODEL 1
REMARK VINA RESULT:      -8.5      0.000      0.000
REMARK  Name = NuBBE_1513
REMARK  10 active torsions:
REMARK  status: ('A' for Active; 'I' for Inactive)
REMARK    1  A    between atoms: C_1  and  O_2
REMARK    2  A    between atoms: C_1  and  C_6
REMARK    3  A    between atoms: O_2  and  C_3
REMARK    4  A    between atoms: C_3  and  C_5
REMARK    5  A    between atoms: C_13  and  C_16
REMARK    6  A    between atoms: C_17  and  C_22
REMARK    7  A    between atoms: C_22  and  C_23
REMARK    8  A    between atoms: C_29  and  O_34
REMARK    9  A    between atoms: O_34  and  C_35
REMARK   10  A    between atoms: C_35  and  C_37
REMARK                            x       y       z     vdW  Elec       q    Type
REMARK                         _______ _______ _______ _____ _____    ______ ____
ROOT
ATOM      1  C   LIG A   1      -6.783  -1.405 126.553  0.00  0.00    +0.018 C 
ATOM      2  C   LIG A   1      -6.390  -2.521 127.622  0.00  0.00    +0.002 C 
ATOM      3  C   LIG A   1      -5.041  -2.242 128.355  0.00  0.00    -0.003 C 
ATOM      4  C   LIG A   1      -4.719  -3.300 129.478  0.00  0.00    +0.006 C 
ATOM      5  C   LIG A   1      -5.897  -3.695 130.410  0.00  0.00    -0.019 C 
ATOM      6  C   LIG A   1      -7.183  -3.911 129.617  0.00  0.00    +0.008 C 
ATOM      7  C   LIG A   1      -7.523  -2.821 128.621  0.00  0.00    +0.005 C 
ATOM      8  C   LIG A   1      -5.608  -5.048 131.121  0.00  0.00    +0.012 C 
ATOM      9  C   LIG A   1      -5.929  -2.523 131.438  0.00  0.00    +0.061 C 
ATOM     10  C   LIG A   1      -4.428  -2.277 131.604  0.00  0.00    +0.137 C 
ATOM     11  O   LIG A   1      -3.912  -1.649 132.518  0.00  0.00    -0.297 OA
ATOM     12  C   LIG A   1      -3.623  -2.872 130.466  0.00  0.00    +0.079 C 
ATOM     13  C   LIG A   1      -4.829  -0.753 128.710  0.00  0.00    +0.004 C 
ATOM     14  C   LIG A   1      -6.049   0.128 128.543  0.00  0.00    +0.004 C 
ATOM     15  C   LIG A   1      -6.686   0.046 127.155  0.00  0.00    +0.003 C 
ATOM     16  C   LIG A   1      -8.052   0.760 127.229  0.00  0.00    +0.056 C 
ATOM     17  C   LIG A   1      -8.725   0.866 125.863  0.00  0.00    +0.242 C 
ATOM     18  C   LIG A   1      -8.813  -0.510 125.225  0.00  0.00    +0.174 C 
ATOM     19  O   LIG A   1      -9.428  -0.706 124.175  0.00  0.00    -0.293 OA
ATOM     20  C   LIG A   1      -8.222  -1.666 126.005  0.00  0.00    +0.089 C 
ENDROOT
BRANCH   9  21
ATOM     21  C   LIG A   1      -6.693  -2.789 132.739  0.00  0.00    +0.008 C 
ATOM     22  C   LIG A   1      -7.824  -1.798 132.999  0.00  0.00    +0.004 C 
ENDBRANCH   9  21
BRANCH   1  23
ATOM     23  C   LIG A   1      -5.793  -1.498 125.331  0.00  0.00    +0.240 C 
BRANCH  23  24
ATOM     24  O   LIG A   1      -5.493  -2.874 125.011  0.00  0.00    -0.464 OA
BRANCH  24  25
ATOM     25  C   LIG A   1      -5.212  -3.158 123.708  0.00  0.00    +0.304 C 
ATOM     26  O   LIG A   1      -5.569  -2.504 122.745  0.00  0.00    -0.251 OA
ATOM     27  C   LIG A   1      -4.352  -4.389 123.599  0.00  0.00    +0.136 C 
ENDBRANCH  24  25
ENDBRANCH  23  24
ENDBRANCH   1  23
BRANCH  17  28
ATOM     28  O   LIG A   1      -7.978   1.710 124.981  0.00  0.00    -0.454 OA
BRANCH  28  29
ATOM     29  C   LIG A   1      -8.641   2.800 124.518  0.00  0.00    +0.305 C 
ATOM     30  O   LIG A   1      -8.937   3.796 125.159  0.00  0.00    -0.251 OA
ATOM     31  C   LIG A   1      -8.962   2.593 123.056  0.00  0.00    +0.136 C 
ENDBRANCH  28  29
ENDBRANCH  17  28
TORSDOF 6
ENDMDL
MODEL 2
REMARK VINA RESULT:      -8.1      1.838      3.023
REMARK  Name = NuBBE_1513
REMARK  10 active torsions:
REMARK  status: ('A' for Active; 'I' for Inactive)
REMARK    1  A    between atoms: C_1  and  O_2
REMARK    2  A    between atoms: C_1  and  C_6
REMARK    3  A    between atoms: O_2  and  C_3
REMARK    4  A    between atoms: C_3  and  C_5
REMARK    5  A    between atoms: C_13  and  C_16
REMARK    6  A    between atoms: C_17  and  C_22
REMARK    7  A    between atoms: C_22  and  C_23
REMARK    8  A    between atoms: C_29  and  O_34
REMARK    9  A    between atoms: O_34  and  C_35
REMARK   10  A    between atoms: C_35  and  C_37
REMARK                            x       y       z     vdW  Elec       q    Type
REMARK                         _______ _______ _______ _____ _____    ______ ____
ROOT
ATOM      1  C   LIG A   1      -8.027   0.113 126.642  0.00  0.00    +0.018 C 
ATOM      2  C   LIG A   1      -8.092  -0.625 128.053  0.00  0.00    +0.002 C 
ATOM      3  C   LIG A   1      -7.484  -2.063 128.039  0.00  0.00    -0.003 C 
ATOM      4  C   LIG A   1      -7.464  -2.737 129.464  0.00  0.00    +0.006 C 
ATOM      5  C   LIG A   1      -6.992  -1.842 130.643  0.00  0.00    -0.019 C 
ATOM      6  C   LIG A   1      -7.602  -0.445 130.557  0.00  0.00    +0.008 C 
ATOM      7  C   LIG A   1      -7.509   0.222 129.200  0.00  0.00    +0.005 C 
ATOM      8  C   LIG A   1      -7.468  -2.427 132.004  0.00  0.00    +0.012 C 
ATOM      9  C   LIG A   1      -5.439  -1.907 130.522  0.00  0.00    +0.061 C 
ATOM     10  C   LIG A   1      -5.267  -3.371 130.114  0.00  0.00    +0.137 C 
ATOM     11  O   LIG A   1      -4.221  -4.002 130.171  0.00  0.00    -0.297 OA
ATOM     12  C   LIG A   1      -6.552  -3.968 129.577  0.00  0.00    +0.079 C 
ATOM     13  C   LIG A   1      -6.202  -2.181 127.187  0.00  0.00    +0.004 C 
ATOM     14  C   LIG A   1      -5.602  -0.865 126.739  0.00  0.00    +0.004 C 
ATOM     15  C   LIG A   1      -6.588   0.047 126.008  0.00  0.00    +0.003 C 
ATOM     16  C   LIG A   1      -5.924   1.435 125.875  0.00  0.00    +0.056 C 
ATOM     17  C   LIG A   1      -6.760   2.397 125.035  0.00  0.00    +0.242 C 
ATOM     18  C   LIG A   1      -8.173   2.470 125.589  0.00  0.00    +0.174 C 
ATOM     19  O   LIG A   1      -9.002   3.274 125.160  0.00  0.00    -0.293 OA
ATOM     20  C   LIG A   1      -8.484   1.599 126.789  0.00  0.00    +0.089 C 
ENDROOT
BRANCH   9  21
ATOM     21  C   LIG A   1      -4.649  -1.480 131.763  0.00  0.00    +0.008 C 
ATOM     22  C   LIG A   1      -4.071  -0.071 131.667  0.00  0.00    +0.004 C 
ENDBRANCH   9  21
BRANCH   1  23
ATOM     23  C   LIG A   1      -9.032  -0.590 125.653  0.00  0.00    +0.240 C 
BRANCH  23  24
ATOM     24  O   LIG A   1      -8.328  -1.230 124.566  0.00  0.00    -0.464 OA
BRANCH  24  25
ATOM     25  C   LIG A   1      -8.897  -2.347 124.034  0.00  0.00    +0.304 C 
ATOM     26  O   LIG A   1      -9.848  -2.367 123.273  0.00  0.00    -0.251 OA
ATOM     27  C   LIG A   1      -8.167  -3.587 124.477  0.00  0.00    +0.136 C 
ENDBRANCH  24  25
ENDBRANCH  23  24
ENDBRANCH   1  23
BRANCH  17  28
ATOM     28  O   LIG A   1      -6.846   1.959 123.675  0.00  0.00    -0.454 OA
BRANCH  28  29
ATOM     29  C   LIG A   1      -6.971   2.946 122.752  0.00  0.00    +0.305 C 
ATOM     30  O   LIG A   1      -7.886   3.084 121.956  0.00  0.00    -0.251 OA
ATOM     31  C   LIG A   1      -5.783   3.874 122.864  0.00  0.00    +0.136 C 
ENDBRANCH  28  29
ENDBRANCH  17  28
TORSDOF 6
ENDMDL
MODEL 3
REMARK VINA RESULT:      -7.8      2.455      7.166
REMARK  Name = NuBBE_1513
REMARK  10 active torsions:
REMARK  status: ('A' for Active; 'I' for Inactive)
REMARK    1  A    between atoms: C_1  and  O_2
REMARK    2  A    between atoms: C_1  and  C_6
REMARK    3  A    between atoms: O_2  and  C_3
REMARK    4  A    between atoms: C_3  and  C_5
REMARK    5  A    between atoms: C_13  and  C_16
REMARK    6  A    between atoms: C_17  and  C_22
REMARK    7  A    between atoms: C_22  and  C_23
REMARK    8  A    between atoms: C_29  and  O_34
REMARK    9  A    between atoms: O_34  and  C_35
REMARK   10  A    between atoms: C_35  and  C_37
REMARK                            x       y       z     vdW  Elec       q    Type
REMARK                         _______ _______ _______ _____ _____    ______ ____
ROOT
ATOM      1  C   LIG A   1      -5.601  -1.511 128.580  0.00  0.00    +0.018 C 
ATOM      2  C   LIG A   1      -5.672  -1.313 126.999  0.00  0.00    +0.002 C 
ATOM      3  C   LIG A   1      -6.361  -2.495 126.248  0.00  0.00    -0.003 C 
ATOM      4  C   LIG A   1      -6.513  -2.235 124.701  0.00  0.00    +0.006 C 
ATOM      5  C   LIG A   1      -7.007  -0.823 124.284  0.00  0.00    -0.019 C 
ATOM      6  C   LIG A   1      -6.312   0.268 125.094  0.00  0.00    +0.008 C 
ATOM      7  C   LIG A   1      -6.277   0.044 126.592  0.00  0.00    +0.005 C 
ATOM      8  C   LIG A   1      -6.656  -0.532 122.796  0.00  0.00    +0.012 C 
ATOM      9  C   LIG A   1      -8.551  -0.927 124.481  0.00  0.00    +0.061 C 
ATOM     10  C   LIG A   1      -8.781  -2.360 124.000  0.00  0.00    +0.137 C 
ATOM     11  O   LIG A   1      -9.865  -2.834 123.685  0.00  0.00    -0.297 OA
ATOM     12  C   LIG A   1      -7.502  -3.172 123.989  0.00  0.00    +0.079 C 
ATOM     13  C   LIG A   1      -7.590  -3.064 126.990  0.00  0.00    +0.004 C 
ATOM     14  C   LIG A   1      -8.081  -2.231 128.156  0.00  0.00    +0.004 C 
ATOM     15  C   LIG A   1      -6.997  -1.911 129.186  0.00  0.00    +0.003 C 
ATOM     16  C   LIG A   1      -7.568  -0.839 130.140  0.00  0.00    +0.056 C 
ATOM     17  C   LIG A   1      -6.625  -0.537 131.302  0.00  0.00    +0.242 C 
ATOM     18  C   LIG A   1      -5.248  -0.178 130.767  0.00  0.00    +0.174 C 
ATOM     19  O   LIG A   1      -4.347   0.229 131.502  0.00  0.00    -0.293 OA
ATOM     20  C   LIG A   1      -5.068  -0.212 129.263  0.00  0.00    +0.089 C 
ENDROOT
BRANCH   9  21
ATOM     21  C   LIG A   1      -9.393   0.141 123.776  0.00  0.00    +0.008 C 
ATOM     22  C   LIG A   1      -9.844   1.272 124.696  0.00  0.00    +0.004 C 
ENDBRANCH   9  21
BRANCH   1  23
ATOM     23  C   LIG A   1      -4.577  -2.664 128.903  0.00  0.00    +0.240 C 
BRANCH  23  24
ATOM     24  O   LIG A   1      -5.184  -3.678 129.734  0.00  0.00    -0.464 OA
BRANCH  24  25
ATOM     25  C   LIG A   1      -4.500  -4.054 130.850  0.00  0.00    +0.304 C 
ATOM     26  O   LIG A   1      -3.391  -3.665 131.169  0.00  0.00    -0.251 OA
ATOM     27  C   LIG A   1      -5.315  -5.004 131.687  0.00  0.00    +0.136 C 
ENDBRANCH  24  25
ENDBRANCH  23  24
ENDBRANCH   1  23
BRANCH  17  28
ATOM     28  O   LIG A   1      -6.476  -1.674 132.159  0.00  0.00    -0.454 OA
BRANCH  28  29
ATOM     29  C   LIG A   1      -7.028  -1.548 133.392  0.00  0.00    +0.305 C 
ATOM     30  O   LIG A   1      -6.842  -0.635 134.181  0.00  0.00    -0.251 OA
ATOM     31  C   LIG A   1      -7.930  -2.733 133.648  0.00  0.00    +0.136 C 
ENDBRANCH  28  29
ENDBRANCH  17  28
TORSDOF 6
ENDMDL
MODEL 4
REMARK VINA RESULT:      -7.5      3.674      6.265
REMARK  Name = NuBBE_1513
REMARK  10 active torsions:
REMARK  status: ('A' for Active; 'I' for Inactive)
REMARK    1  A    between atoms: C_1  and  O_2
REMARK    2  A    between atoms: C_1  and  C_6
REMARK    3  A    between atoms: O_2  and  C_3
REMARK    4  A    between atoms: C_3  and  C_5
REMARK    5  A    between atoms: C_13  and  C_16
REMARK    6  A    between atoms: C_17  and  C_22
REMARK    7  A    between atoms: C_22  and  C_23
REMARK    8  A    between atoms: C_29  and  O_34
REMARK    9  A    between atoms: O_34  and  C_35
REMARK   10  A    between atoms: C_35  and  C_37
REMARK                            x       y       z     vdW  Elec       q    Type
REMARK                         _______ _______ _______ _____ _____    ______ ____
ROOT
ATOM      1  C   LIG A   1      -6.775   3.102 128.907  0.00  0.00    +0.018 C 
ATOM      2  C   LIG A   1      -7.332   1.613 129.032  0.00  0.00    +0.002 C 
ATOM      3  C   LIG A   1      -7.405   0.852 127.671  0.00  0.00    -0.003 C 
ATOM      4  C   LIG A   1      -7.860  -0.648 127.828  0.00  0.00    +0.006 C 
ATOM      5  C   LIG A   1      -7.206  -1.450 128.986  0.00  0.00    -0.019 C 
ATOM      6  C   LIG A   1      -7.139  -0.619 130.266  0.00  0.00    +0.008 C 
ATOM      7  C   LIG A   1      -6.595   0.785 130.102  0.00  0.00    +0.005 C 
ATOM      8  C   LIG A   1      -8.057  -2.703 129.341  0.00  0.00    +0.012 C 
ATOM      9  C   LIG A   1      -5.829  -1.865 128.381  0.00  0.00    +0.061 C 
ATOM     10  C   LIG A   1      -6.253  -2.159 126.942  0.00  0.00    +0.137 C 
ATOM     11  O   LIG A   1      -5.596  -2.795 126.128  0.00  0.00    -0.297 OA
ATOM     12  C   LIG A   1      -7.589  -1.531 126.600  0.00  0.00    +0.079 C 
ATOM     13  C   LIG A   1      -6.200   1.130 126.745  0.00  0.00    +0.004 C 
ATOM     14  C   LIG A   1      -5.040   1.854 127.396  0.00  0.00    +0.004 C 
ATOM     15  C   LIG A   1      -5.436   3.162 128.082  0.00  0.00    +0.003 C 
ATOM     16  C   LIG A   1      -4.229   3.625 128.927  0.00  0.00    +0.056 C 
ATOM     17  C   LIG A   1      -4.454   4.999 129.553  0.00  0.00    +0.242 C 
ATOM     18  C   LIG A   1      -5.757   5.002 130.335  0.00  0.00    +0.174 C 
ATOM     19  O   LIG A   1      -6.097   5.957 131.034  0.00  0.00    -0.293 OA
ATOM     20  C   LIG A   1      -6.563   3.720 130.326  0.00  0.00    +0.089 C 
ENDROOT
BRANCH   9  21
ATOM     21  C   LIG A   1      -5.100  -3.009 129.093  0.00  0.00    +0.008 C 
ATOM     22  C   LIG A   1      -3.615  -2.741 129.322  0.00  0.00    +0.004 C 
ENDBRANCH   9  21
BRANCH   1  23
ATOM     23  C   LIG A   1      -7.848   3.986 128.167  0.00  0.00    +0.240 C 
BRANCH  23  24
ATOM     24  O   LIG A   1      -7.291   4.591 126.980  0.00  0.00    -0.464 OA
BRANCH  24  25
ATOM     25  C   LIG A   1      -8.145   4.822 125.944  0.00  0.00    +0.304 C 
ATOM     26  O   LIG A   1      -8.968   5.718 125.888  0.00  0.00    -0.251 OA
ATOM     27  C   LIG A   1      -7.919   3.836 124.829  0.00  0.00    +0.136 C 
ENDBRANCH  24  25
ENDBRANCH  23  24
ENDBRANCH   1  23
BRANCH  17  28
ATOM     28  O   LIG A   1      -4.544   6.018 128.550  0.00  0.00    -0.454 OA
BRANCH  28  29
ATOM     29  C   LIG A   1      -3.709   7.074 128.718  0.00  0.00    +0.305 C 
ATOM     30  O   LIG A   1      -4.014   8.182 129.131  0.00  0.00    -0.251 OA
ATOM     31  C   LIG A   1      -2.313   6.664 128.310  0.00  0.00    +0.136 C 
ENDBRANCH  28  29
ENDBRANCH  17  28
TORSDOF 6
ENDMDL
MODEL 5
REMARK VINA RESULT:      -7.5      1.686      3.849
REMARK  Name = NuBBE_1513
REMARK  10 active torsions:
REMARK  status: ('A' for Active; 'I' for Inactive)
REMARK    1  A    between atoms: C_1  and  O_2
REMARK    2  A    between atoms: C_1  and  C_6
REMARK    3  A    between atoms: O_2  and  C_3
REMARK    4  A    between atoms: C_3  and  C_5
REMARK    5  A    between atoms: C_13  and  C_16
REMARK    6  A    between atoms: C_17  and  C_22
REMARK    7  A    between atoms: C_22  and  C_23
REMARK    8  A    between atoms: C_29  and  O_34
REMARK    9  A    between atoms: O_34  and  C_35
REMARK   10  A    between atoms: C_35  and  C_37
REMARK                            x       y       z     vdW  Elec       q    Type
REMARK                         _______ _______ _______ _____ _____    ______ ____
ROOT
ATOM      1  C   LIG A   1      -6.237  -1.205 127.195  0.00  0.00    +0.018 C 
ATOM      2  C   LIG A   1      -5.289  -1.163 128.475  0.00  0.00    +0.002 C 
ATOM      3  C   LIG A   1      -5.932  -0.461 129.712  0.00  0.00    -0.003 C 
ATOM      4  C   LIG A   1      -5.021  -0.519 130.996  0.00  0.00    +0.006 C 
ATOM      5  C   LIG A   1      -4.346  -1.884 131.301  0.00  0.00    -0.019 C 
ATOM      6  C   LIG A   1      -3.780  -2.518 130.033  0.00  0.00    +0.008 C 
ATOM      7  C   LIG A   1      -4.719  -2.545 128.845  0.00  0.00    +0.005 C 
ATOM      8  C   LIG A   1      -3.133  -1.699 132.258  0.00  0.00    +0.012 C 
ATOM      9  C   LIG A   1      -5.489  -2.682 132.000  0.00  0.00    +0.061 C 
ATOM     10  C   LIG A   1      -6.128  -1.563 132.822  0.00  0.00    +0.137 C 
ATOM     11  O   LIG A   1      -6.889  -1.725 133.766  0.00  0.00    -0.297 OA
ATOM     12  C   LIG A   1      -5.745  -0.189 132.310  0.00  0.00    +0.079 C 
ATOM     13  C   LIG A   1      -7.430  -0.789 129.896  0.00  0.00    +0.004 C 
ATOM     14  C   LIG A   1      -7.952  -1.922 129.038  0.00  0.00    +0.004 C 
ATOM     15  C   LIG A   1      -7.674  -1.744 127.544  0.00  0.00    +0.003 C 
ATOM     16  C   LIG A   1      -8.000  -3.083 126.850  0.00  0.00    +0.056 C 
ATOM     17  C   LIG A   1      -7.895  -2.988 125.330  0.00  0.00    +0.242 C 
ATOM     18  C   LIG A   1      -6.532  -2.439 124.941  0.00  0.00    +0.174 C 
ATOM     19  O   LIG A   1      -6.159  -2.387 123.769  0.00  0.00    -0.293 OA
ATOM     20  C   LIG A   1      -5.592  -2.079 126.073  0.00  0.00    +0.089 C 
ENDROOT
BRANCH   9  21
ATOM     21  C   LIG A   1      -5.056  -3.914 132.803  0.00  0.00    +0.008 C 
ATOM     22  C   LIG A   1      -5.270  -5.233 132.065  0.00  0.00    +0.004 C 
ENDBRANCH   9  21
BRANCH   1  23
ATOM     23  C   LIG A   1      -6.386   0.255 126.622  0.00  0.00    +0.240 C 
BRANCH  23  24
ATOM     24  O   LIG A   1      -7.776   0.639 126.537  0.00  0.00    -0.464 OA
BRANCH  24  25
ATOM     25  C   LIG A   1      -8.146   1.384 125.458  0.00  0.00    +0.304 C 
ATOM     26  O   LIG A   1      -9.099   2.141 125.410  0.00  0.00    -0.251 OA
ATOM     27  C   LIG A   1      -7.190   1.184 124.311  0.00  0.00    +0.136 C 
ENDBRANCH  24  25
ENDBRANCH  23  24
ENDBRANCH   1  23
BRANCH  17  28
ATOM     28  O   LIG A   1      -8.889  -2.108 124.795  0.00  0.00    -0.454 OA
BRANCH  28  29
ATOM     29  C   LIG A   1      -9.404  -2.473 123.594  0.00  0.00    +0.305 C 
ATOM     30  O   LIG A   1      -9.823  -3.578 123.289  0.00  0.00    -0.251 OA
ATOM     31  C   LIG A   1      -9.386  -1.277 122.670  0.00  0.00    +0.136 C 
ENDBRANCH  28  29
ENDBRANCH  17  28
TORSDOF 6
ENDMDL
MODEL 6
REMARK VINA RESULT:      -7.3      2.173      3.891
REMARK  Name = NuBBE_1513
REMARK  10 active torsions:
REMARK  status: ('A' for Active; 'I' for Inactive)
REMARK    1  A    between atoms: C_1  and  O_2
REMARK    2  A    between atoms: C_1  and  C_6
REMARK    3  A    between atoms: O_2  and  C_3
REMARK    4  A    between atoms: C_3  and  C_5
REMARK    5  A    between atoms: C_13  and  C_16
REMARK    6  A    between atoms: C_17  and  C_22
REMARK    7  A    between atoms: C_22  and  C_23
REMARK    8  A    between atoms: C_29  and  O_34
REMARK    9  A    between atoms: O_34  and  C_35
REMARK   10  A    between atoms: C_35  and  C_37
REMARK                            x       y       z     vdW  Elec       q    Type
REMARK                         _______ _______ _______ _____ _____    ______ ____
ROOT
ATOM      1  C   LIG A   1      -6.099  -0.874 127.038  0.00  0.00    +0.018 C 
ATOM      2  C   LIG A   1      -5.201  -0.973 128.351  0.00  0.00    +0.002 C 
ATOM      3  C   LIG A   1      -5.846  -0.306 129.606  0.00  0.00    -0.003 C 
ATOM      4  C   LIG A   1      -4.991  -0.503 130.916  0.00  0.00    +0.006 C 
ATOM      5  C   LIG A   1      -4.419  -1.927 131.158  0.00  0.00    -0.019 C 
ATOM      6  C   LIG A   1      -3.845  -2.519 129.873  0.00  0.00    +0.008 C 
ATOM      7  C   LIG A   1      -4.737  -2.411 128.653  0.00  0.00    +0.005 C 
ATOM      8  C   LIG A   1      -3.235  -1.882 132.167  0.00  0.00    +0.012 C 
ATOM      9  C   LIG A   1      -5.638  -2.687 131.764  0.00  0.00    +0.061 C 
ATOM     10  C   LIG A   1      -6.234  -1.579 132.632  0.00  0.00    +0.137 C 
ATOM     11  O   LIG A   1      -7.041  -1.747 133.537  0.00  0.00    -0.297 OA
ATOM     12  C   LIG A   1      -5.744  -0.205 132.222  0.00  0.00    +0.079 C 
ATOM     13  C   LIG A   1      -7.368  -0.544 129.717  0.00  0.00    +0.004 C 
ATOM     14  C   LIG A   1      -7.928  -1.584 128.771  0.00  0.00    +0.004 C 
ATOM     15  C   LIG A   1      -7.581  -1.335 127.302  0.00  0.00    +0.003 C 
ATOM     16  C   LIG A   1      -7.966  -2.605 126.513  0.00  0.00    +0.056 C 
ATOM     17  C   LIG A   1      -7.795  -2.425 125.007  0.00  0.00    +0.242 C 
ATOM     18  C   LIG A   1      -6.385  -1.946 124.703  0.00  0.00    +0.174 C 
ATOM     19  O   LIG A   1      -5.963  -1.848 123.550  0.00  0.00    -0.293 OA
ATOM     20  C   LIG A   1      -5.468  -1.720 125.887  0.00  0.00    +0.089 C 
ENDROOT
BRANCH   9  21
ATOM     21  C   LIG A   1      -5.317  -3.991 132.502  0.00  0.00    +0.008 C 
ATOM     22  C   LIG A   1      -5.423  -5.235 131.623  0.00  0.00    +0.004 C 
ENDBRANCH   9  21
BRANCH   1  23
ATOM     23  C   LIG A   1      -6.130   0.625 126.554  0.00  0.00    +0.240 C 
BRANCH  23  24
ATOM     24  O   LIG A   1      -4.809   1.078 126.185  0.00  0.00    -0.464 OA
BRANCH  24  25
ATOM     25  C   LIG A   1      -4.411   2.285 126.674  0.00  0.00    +0.304 C 
ATOM     26  O   LIG A   1      -3.404   2.887 126.346  0.00  0.00    -0.251 OA
ATOM     27  C   LIG A   1      -5.409   2.822 127.666  0.00  0.00    +0.136 C 
ENDBRANCH  24  25
ENDBRANCH  23  24
ENDBRANCH   1  23
BRANCH  17  28
ATOM     28  O   LIG A   1      -8.708  -1.449 124.494  0.00  0.00    -0.454 OA
BRANCH  28  29
ATOM     29  C   LIG A   1      -9.420  -1.834 123.406  0.00  0.00    +0.305 C 
ATOM     30  O   LIG A   1      -9.919  -1.100 122.567  0.00  0.00    -0.251 OA
ATOM     31  C   LIG A   1      -9.504  -3.343 123.385  0.00  0.00    +0.136 C 
ENDBRANCH  28  29
ENDBRANCH  17  28
TORSDOF 6
ENDMDL
MODEL 7
REMARK VINA RESULT:      -7.3      3.141      7.079
REMARK  Name = NuBBE_1513
REMARK  10 active torsions:
REMARK  status: ('A' for Active; 'I' for Inactive)
REMARK    1  A    between atoms: C_1  and  O_2
REMARK    2  A    between atoms: C_1  and  C_6
REMARK    3  A    between atoms: O_2  and  C_3
REMARK    4  A    between atoms: C_3  and  C_5
REMARK    5  A    between atoms: C_13  and  C_16
REMARK    6  A    between atoms: C_17  and  C_22
REMARK    7  A    between atoms: C_22  and  C_23
REMARK    8  A    between atoms: C_29  and  O_34
REMARK    9  A    between atoms: O_34  and  C_35
REMARK   10  A    between atoms: C_35  and  C_37
REMARK                            x       y       z     vdW  Elec       q    Type
REMARK                         _______ _______ _______ _____ _____    ______ ____
ROOT
ATOM      1  C   LIG A   1      -7.248   1.254 128.063  0.00  0.00    +0.018 C 
ATOM      2  C   LIG A   1      -7.932   0.094 127.210  0.00  0.00    +0.002 C 
ATOM      3  C   LIG A   1      -7.968   0.378 125.676  0.00  0.00    -0.003 C 
ATOM      4  C   LIG A   1      -8.555  -0.822 124.840  0.00  0.00    +0.006 C 
ATOM      5  C   LIG A   1      -8.055  -2.241 125.227  0.00  0.00    -0.019 C 
ATOM      6  C   LIG A   1      -8.013  -2.419 126.743  0.00  0.00    +0.008 C 
ATOM      7  C   LIG A   1      -7.345  -1.298 127.511  0.00  0.00    +0.005 C 
ATOM      8  C   LIG A   1      -9.029  -3.333 124.700  0.00  0.00    +0.012 C 
ATOM      9  C   LIG A   1      -6.677  -2.328 124.501  0.00  0.00    +0.061 C 
ATOM     10  C   LIG A   1      -7.018  -1.597 123.202  0.00  0.00    +0.137 C 
ATOM     11  O   LIG A   1      -6.358  -1.643 122.172  0.00  0.00    -0.297 OA
ATOM     12  C   LIG A   1      -8.269  -0.753 123.332  0.00  0.00    +0.079 C 
ATOM     13  C   LIG A   1      -6.680   1.044 125.142  0.00  0.00    +0.004 C 
ATOM     14  C   LIG A   1      -5.516   1.061 126.110  0.00  0.00    +0.004 C 
ATOM     15  C   LIG A   1      -5.851   1.675 127.470  0.00  0.00    +0.003 C 
ATOM     16  C   LIG A   1      -4.675   1.364 128.421  0.00  0.00    +0.056 C 
ATOM     17  C   LIG A   1      -4.831   2.047 129.776  0.00  0.00    +0.242 C 
ATOM     18  C   LIG A   1      -6.183   1.698 130.377  0.00  0.00    +0.174 C 
ATOM     19  O   LIG A   1      -6.493   2.026 131.523  0.00  0.00    -0.293 OA
ATOM     20  C   LIG A   1      -7.089   0.808 129.551  0.00  0.00    +0.089 C 
ENDROOT
BRANCH   9  21
ATOM     21  C   LIG A   1      -6.097  -3.735 124.325  0.00  0.00    +0.008 C 
ATOM     22  C   LIG A   1      -4.613  -3.746 123.968  0.00  0.00    +0.004 C 
ENDBRANCH   9  21
BRANCH   1  23
ATOM     23  C   LIG A   1      -8.188   2.518 128.050  0.00  0.00    +0.240 C 
BRANCH  23  24
ATOM     24  O   LIG A   1      -9.218   2.408 129.056  0.00  0.00    -0.464 OA
BRANCH  24  25
ATOM     25  C   LIG A   1      -9.577   3.552 129.702  0.00  0.00    +0.304 C 
ATOM     26  O   LIG A   1     -10.672   3.784 130.181  0.00  0.00    -0.251 OA
ATOM     27  C   LIG A   1      -8.416   4.507 129.791  0.00  0.00    +0.136 C 
ENDBRANCH  24  25
ENDBRANCH  23  24
ENDBRANCH   1  23
BRANCH  17  28
ATOM     28  O   LIG A   1      -4.765   3.472 129.651  0.00  0.00    -0.454 OA
BRANCH  28  29
ATOM     29  C   LIG A   1      -3.581   4.033 130.004  0.00  0.00    +0.305 C 
ATOM     30  O   LIG A   1      -3.110   4.086 131.129  0.00  0.00    -0.251 OA
ATOM     31  C   LIG A   1      -2.916   4.591 128.767  0.00  0.00    +0.136 C 
ENDBRANCH  28  29
ENDBRANCH  17  28
TORSDOF 6
ENDMDL
MODEL 8
REMARK VINA RESULT:      -7.1      3.502      4.873
REMARK  Name = NuBBE_1513
REMARK  10 active torsions:
REMARK  status: ('A' for Active; 'I' for Inactive)
REMARK    1  A    between atoms: C_1  and  O_2
REMARK    2  A    between atoms: C_1  and  C_6
REMARK    3  A    between atoms: O_2  and  C_3
REMARK    4  A    between atoms: C_3  and  C_5
REMARK    5  A    between atoms: C_13  and  C_16
REMARK    6  A    between atoms: C_17  and  C_22
REMARK    7  A    between atoms: C_22  and  C_23
REMARK    8  A    between atoms: C_29  and  O_34
REMARK    9  A    between atoms: O_34  and  C_35
REMARK   10  A    between atoms: C_35  and  C_37
REMARK                            x       y       z     vdW  Elec       q    Type
REMARK                         _______ _______ _______ _____ _____    ______ ____
ROOT
ATOM      1  C   LIG A   1      -7.060   1.618 129.367  0.00  0.00    +0.018 C 
ATOM      2  C   LIG A   1      -6.911   0.032 129.311  0.00  0.00    +0.002 C 
ATOM      3  C   LIG A   1      -5.430  -0.461 129.295  0.00  0.00    -0.003 C 
ATOM      4  C   LIG A   1      -5.303  -2.031 129.344  0.00  0.00    +0.006 C 
ATOM      5  C   LIG A   1      -6.222  -2.766 130.357  0.00  0.00    -0.019 C 
ATOM      6  C   LIG A   1      -7.638  -2.196 130.335  0.00  0.00    +0.008 C 
ATOM      7  C   LIG A   1      -7.732  -0.686 130.399  0.00  0.00    +0.005 C 
ATOM      8  C   LIG A   1      -6.367  -4.269 129.982  0.00  0.00    +0.012 C 
ATOM      9  C   LIG A   1      -5.451  -2.600 131.702  0.00  0.00    +0.061 C 
ATOM     10  C   LIG A   1      -4.014  -2.760 131.203  0.00  0.00    +0.137 C 
ATOM     11  O   LIG A   1      -3.043  -2.996 131.910  0.00  0.00    -0.297 OA
ATOM     12  C   LIG A   1      -3.903  -2.549 129.707  0.00  0.00    +0.079 C 
ATOM     13  C   LIG A   1      -4.501   0.349 130.226  0.00  0.00    +0.004 C 
ATOM     14  C   LIG A   1      -5.207   1.285 131.185  0.00  0.00    +0.004 C 
ATOM     15  C   LIG A   1      -6.175   2.253 130.503  0.00  0.00    +0.003 C 
ATOM     16  C   LIG A   1      -7.012   2.927 131.612  0.00  0.00    +0.056 C 
ATOM     17  C   LIG A   1      -7.923   4.022 131.064  0.00  0.00    +0.242 C 
ATOM     18  C   LIG A   1      -8.777   3.466 129.936  0.00  0.00    +0.174 C 
ATOM     19  O   LIG A   1      -9.681   4.121 129.416  0.00  0.00    -0.293 OA
ATOM     20  C   LIG A   1      -8.557   2.014 129.564  0.00  0.00    +0.089 C 
ENDROOT
BRANCH   9  21
ATOM     21  C   LIG A   1      -5.857  -3.552 132.832  0.00  0.00    +0.008 C 
ATOM     22  C   LIG A   1      -6.831  -2.934 133.833  0.00  0.00    +0.004 C 
ENDBRANCH   9  21
BRANCH   1  23
ATOM     23  C   LIG A   1      -6.594   2.222 127.988  0.00  0.00    +0.240 C 
BRANCH  23  24
ATOM     24  O   LIG A   1      -5.398   3.016 128.147  0.00  0.00    -0.464 OA
BRANCH  24  25
ATOM     25  C   LIG A   1      -4.328   2.685 127.371  0.00  0.00    +0.304 C 
ATOM     26  O   LIG A   1      -4.375   2.066 126.323  0.00  0.00    -0.251 OA
ATOM     27  C   LIG A   1      -3.050   3.222 127.958  0.00  0.00    +0.136 C 
ENDBRANCH  24  25
ENDBRANCH  23  24
ENDBRANCH   1  23
BRANCH  17  28
ATOM     28  O   LIG A   1      -7.162   5.115 130.537  0.00  0.00    -0.454 OA
BRANCH  28  29
ATOM     29  C   LIG A   1      -7.459   6.333 131.055  0.00  0.00    +0.305 C 
ATOM     30  O   LIG A   1      -7.135   7.417 130.593  0.00  0.00    -0.251 OA
ATOM     31  C   LIG A   1      -8.271   6.145 132.315  0.00  0.00    +0.136 C 
ENDBRANCH  28  29
ENDBRANCH  17  28
TORSDOF 6
ENDMDL
MODEL 9
REMARK VINA RESULT:      -7.0      2.504      3.981
REMARK  Name = NuBBE_1513
REMARK  10 active torsions:
REMARK  status: ('A' for Active; 'I' for Inactive)
REMARK    1  A    between atoms: C_1  and  O_2
REMARK    2  A    between atoms: C_1  and  C_6
REMARK    3  A    between atoms: O_2  and  C_3
REMARK    4  A    between atoms: C_3  and  C_5
REMARK    5  A    between atoms: C_13  and  C_16
REMARK    6  A    between atoms: C_17  and  C_22
REMARK    7  A    between atoms: C_22  and  C_23
REMARK    8  A    between atoms: C_29  and  O_34
REMARK    9  A    between atoms: O_34  and  C_35
REMARK   10  A    between atoms: C_35  and  C_37
REMARK                            x       y       z     vdW  Elec       q    Type
REMARK                         _______ _______ _______ _____ _____    ______ ____
ROOT
ATOM      1  C   LIG A   1      -7.582   1.048 124.885  0.00  0.00    +0.018 C 
ATOM      2  C   LIG A   1      -7.887   0.532 126.362  0.00  0.00    +0.002 C 
ATOM      3  C   LIG A   1      -6.792  -0.421 126.934  0.00  0.00    -0.003 C 
ATOM      4  C   LIG A   1      -7.059  -0.839 128.430  0.00  0.00    +0.006 C 
ATOM      5  C   LIG A   1      -7.503   0.296 129.394  0.00  0.00    -0.019 C 
ATOM      6  C   LIG A   1      -8.544   1.201 128.741  0.00  0.00    +0.008 C 
ATOM      7  C   LIG A   1      -8.208   1.676 127.342  0.00  0.00    +0.005 C 
ATOM      8  C   LIG A   1      -8.190  -0.292 130.660  0.00  0.00    +0.012 C 
ATOM      9  C   LIG A   1      -6.151   0.981 129.762  0.00  0.00    +0.061 C 
ATOM     10  C   LIG A   1      -5.249  -0.250 129.853  0.00  0.00    +0.137 C 
ATOM     11  O   LIG A   1      -4.151  -0.283 130.393  0.00  0.00    -0.297 OA
ATOM     12  C   LIG A   1      -5.848  -1.451 129.150  0.00  0.00    +0.079 C 
ATOM     13  C   LIG A   1      -5.352   0.006 126.569  0.00  0.00    +0.004 C 
ATOM     14  C   LIG A   1      -5.223   1.389 125.968  0.00  0.00    +0.004 C 
ATOM     15  C   LIG A   1      -6.121   1.620 124.751  0.00  0.00    +0.003 C 
ATOM     16  C   LIG A   1      -6.093   3.131 124.436  0.00  0.00    +0.056 C 
ATOM     17  C   LIG A   1      -6.844   3.468 123.150  0.00  0.00    +0.242 C 
ATOM     18  C   LIG A   1      -8.255   2.906 123.216  0.00  0.00    +0.174 C 
ATOM     19  O   LIG A   1      -9.098   3.153 122.353  0.00  0.00    -0.293 OA
ATOM     20  C   LIG A   1      -8.625   2.131 124.464  0.00  0.00    +0.089 C 
ENDROOT
BRANCH   9  21
ATOM     21  C   LIG A   1      -6.166   1.872 131.009  0.00  0.00    +0.008 C 
ATOM     22  C   LIG A   1      -5.748   1.147 132.285  0.00  0.00    +0.004 C 
ENDBRANCH   9  21
BRANCH   1  23
ATOM     23  C   LIG A   1      -7.730  -0.158 123.882  0.00  0.00    +0.240 C 
BRANCH  23  24
ATOM     24  O   LIG A   1      -8.941  -0.901 124.141  0.00  0.00    -0.464 OA
BRANCH  24  25
ATOM     25  C   LIG A   1      -8.906  -2.242 123.906  0.00  0.00    +0.304 C 
ATOM     26  O   LIG A   1      -9.853  -2.929 123.566  0.00  0.00    -0.251 OA
ATOM     27  C   LIG A   1      -7.513  -2.784 124.083  0.00  0.00    +0.136 C 
ENDBRANCH  24  25
ENDBRANCH  23  24
ENDBRANCH   1  23
BRANCH  17  28
ATOM     28  O   LIG A   1      -6.199   2.896 122.007  0.00  0.00    -0.454 OA
BRANCH  28  29
ATOM     29  C   LIG A   1      -5.978   3.750 120.976  0.00  0.00    +0.305 C 
ATOM     30  O   LIG A   1      -6.639   3.841 119.954  0.00  0.00    -0.251 OA
ATOM     31  C   LIG A   1      -4.765   4.594 121.292  0.00  0.00    +0.136 C 
ENDBRANCH  28  29
ENDBRANCH  17  28
TORSDOF 6
ENDMDL
