MODEL 1
REMARK VINA RESULT:      -6.3      0.000      0.000
REMARK  Name = NuBBE_1013
REMARK  3 active torsions:
REMARK  status: ('A' for Active; 'I' for Inactive)
REMARK    1  A    between atoms: C_1  and  C_2
REMARK    2  A    between atoms: C_6  and  C_13
REMARK    3  A    between atoms: C_8  and  O_12
REMARK                            x       y       z     vdW  Elec       q    Type
REMARK                         _______ _______ _______ _____ _____    ______ ____
ROOT
ATOM      1  C   LIG A   1     -13.156   9.547 128.864  0.00  0.00    +0.086 C 
ATOM      2  C   LIG A   1     -12.135   8.458 128.972  0.00  0.00    +0.106 A 
ATOM      3  C   LIG A   1     -11.426   8.037 127.920  0.00  0.00    +0.092 A 
ATOM      4  C   LIG A   1     -10.437   6.960 128.080  0.00  0.00    +0.193 A 
ATOM      5  C   LIG A   1     -10.270   6.389 129.442  0.00  0.00    +0.067 A 
ATOM      6  C   LIG A   1      -9.359   5.357 129.763  0.00  0.00    -0.033 A 
ATOM      7  C   LIG A   1      -9.299   4.899 131.098  0.00  0.00    +0.049 A 
ATOM      8  C   LIG A   1     -10.116   5.451 132.078  0.00  0.00    +0.121 A 
ATOM      9  C   LIG A   1     -11.007   6.463 131.766  0.00  0.00    +0.092 A 
ATOM     10  C   LIG A   1     -11.083   6.931 130.452  0.00  0.00    +0.142 A 
ATOM     11  O   LIG A   1     -11.999   7.937 130.244  0.00  0.00    -0.460 OA
ATOM     12  C   LIG A   1      -8.422   4.678 128.802  0.00  0.00    +0.045 C 
ATOM     13  O   LIG A   1      -9.814   6.595 127.093  0.00  0.00    -0.287 OA
ENDROOT
BRANCH   8  14
ATOM     14  O   LIG A   1     -10.067   5.018 133.369  0.00  0.00    -0.507 OA
ATOM     15  H   LIG A   1     -10.972   4.850 133.682  0.00  0.00    +0.292 HD
ENDBRANCH   8  14
TORSDOF 1
ENDMDL
MODEL 2
REMARK VINA RESULT:      -6.2      7.456      9.304
REMARK  Name = NuBBE_1013
REMARK  3 active torsions:
REMARK  status: ('A' for Active; 'I' for Inactive)
REMARK    1  A    between atoms: C_1  and  C_2
REMARK    2  A    between atoms: C_6  and  C_13
REMARK    3  A    between atoms: C_8  and  O_12
REMARK                            x       y       z     vdW  Elec       q    Type
REMARK                         _______ _______ _______ _____ _____    ______ ____
ROOT
ATOM      1  C   LIG A   1      -7.180   4.380 118.388  0.00  0.00    +0.086 C 
ATOM      2  C   LIG A   1      -6.836   4.202 119.833  0.00  0.00    +0.106 A 
ATOM      3  C   LIG A   1      -5.634   4.519 120.325  0.00  0.00    +0.092 A 
ATOM      4  C   LIG A   1      -5.345   4.321 121.753  0.00  0.00    +0.193 A 
ATOM      5  C   LIG A   1      -6.439   3.772 122.596  0.00  0.00    +0.067 A 
ATOM      6  C   LIG A   1      -6.326   3.530 123.985  0.00  0.00    -0.033 A 
ATOM      7  C   LIG A   1      -7.440   3.001 124.672  0.00  0.00    +0.049 A 
ATOM      8  C   LIG A   1      -8.627   2.725 124.001  0.00  0.00    +0.121 A 
ATOM      9  C   LIG A   1      -8.740   2.963 122.643  0.00  0.00    +0.092 A 
ATOM     10  C   LIG A   1      -7.650   3.485 121.943  0.00  0.00    +0.142 A 
ATOM     11  O   LIG A   1      -7.863   3.686 120.598  0.00  0.00    -0.460 OA
ATOM     12  C   LIG A   1      -5.105   3.784 124.827  0.00  0.00    +0.045 C 
ATOM     13  O   LIG A   1      -4.232   4.614 122.165  0.00  0.00    -0.287 OA
ENDROOT
BRANCH   8  14
ATOM     14  O   LIG A   1      -9.709   2.214 124.653  0.00  0.00    -0.507 OA
ATOM     15  H   LIG A   1      -9.526   1.292 124.898  0.00  0.00    +0.292 HD
ENDBRANCH   8  14
TORSDOF 1
ENDMDL
MODEL 3
REMARK VINA RESULT:      -5.9      1.410      5.101
REMARK  Name = NuBBE_1013
REMARK  3 active torsions:
REMARK  status: ('A' for Active; 'I' for Inactive)
REMARK    1  A    between atoms: C_1  and  C_2
REMARK    2  A    between atoms: C_6  and  C_13
REMARK    3  A    between atoms: C_8  and  O_12
REMARK                            x       y       z     vdW  Elec       q    Type
REMARK                         _______ _______ _______ _____ _____    ______ ____
ROOT
ATOM      1  C   LIG A   1      -8.354   3.651 130.534  0.00  0.00    +0.086 C 
ATOM      2  C   LIG A   1      -9.302   4.787 130.310  0.00  0.00    +0.106 A 
ATOM      3  C   LIG A   1     -10.052   5.295 131.293  0.00  0.00    +0.092 A 
ATOM      4  C   LIG A   1     -10.971   6.410 131.018  0.00  0.00    +0.193 A 
ATOM      5  C   LIG A   1     -11.009   6.931 129.627  0.00  0.00    +0.067 A 
ATOM      6  C   LIG A   1     -11.831   8.000 129.202  0.00  0.00    -0.033 A 
ATOM      7  C   LIG A   1     -11.777   8.397 127.848  0.00  0.00    +0.049 A 
ATOM      8  C   LIG A   1     -10.933   7.754 126.949  0.00  0.00    +0.121 A 
ATOM      9  C   LIG A   1     -10.127   6.709 127.363  0.00  0.00    +0.092 A 
ATOM     10  C   LIG A   1     -10.165   6.298 128.698  0.00  0.00    +0.142 A 
ATOM     11  O   LIG A   1      -9.327   5.252 129.010  0.00  0.00    -0.460 OA
ATOM     12  C   LIG A   1     -12.784   8.778 130.069  0.00  0.00    +0.045 C 
ATOM     13  O   LIG A   1     -11.648   6.843 131.940  0.00  0.00    -0.287 OA
ENDROOT
BRANCH   8  14
ATOM     14  O   LIG A   1     -10.873   8.129 125.640  0.00  0.00    -0.507 OA
ATOM     15  H   LIG A   1     -11.762   8.375 125.339  0.00  0.00    +0.292 HD
ENDBRANCH   8  14
TORSDOF 1
ENDMDL
MODEL 4
REMARK VINA RESULT:      -5.8     10.247     11.258
REMARK  Name = NuBBE_1013
REMARK  3 active torsions:
REMARK  status: ('A' for Active; 'I' for Inactive)
REMARK    1  A    between atoms: C_1  and  C_2
REMARK    2  A    between atoms: C_6  and  C_13
REMARK    3  A    between atoms: C_8  and  O_12
REMARK                            x       y       z     vdW  Elec       q    Type
REMARK                         _______ _______ _______ _____ _____    ______ ____
ROOT
ATOM      1  C   LIG A   1      -7.861  -2.989 129.785  0.00  0.00    +0.086 C 
ATOM      2  C   LIG A   1      -7.563  -2.760 128.336  0.00  0.00    +0.106 A 
ATOM      3  C   LIG A   1      -6.407  -2.234 127.920  0.00  0.00    +0.092 A 
ATOM      4  C   LIG A   1      -6.165  -2.026 126.484  0.00  0.00    +0.193 A 
ATOM      5  C   LIG A   1      -7.246  -2.431 125.549  0.00  0.00    +0.067 A 
ATOM      6  C   LIG A   1      -7.168  -2.305 124.143  0.00  0.00    -0.033 A 
ATOM      7  C   LIG A   1      -8.268  -2.724 123.364  0.00  0.00    +0.049 A 
ATOM      8  C   LIG A   1      -9.406  -3.254 123.963  0.00  0.00    +0.121 A 
ATOM      9  C   LIG A   1      -9.483  -3.381 125.339  0.00  0.00    +0.092 A 
ATOM     10  C   LIG A   1      -8.407  -2.971 126.129  0.00  0.00    +0.142 A 
ATOM     11  O   LIG A   1      -8.582  -3.138 127.484  0.00  0.00    -0.460 OA
ATOM     12  C   LIG A   1      -6.000  -1.752 123.372  0.00  0.00    +0.045 C 
ATOM     13  O   LIG A   1      -5.099  -1.533 126.142  0.00  0.00    -0.287 OA
ENDROOT
BRANCH   8  14
ATOM     14  O   LIG A   1     -10.474  -3.663 123.222  0.00  0.00    -0.507 OA
ATOM     15  H   LIG A   1     -10.562  -4.627 123.298  0.00  0.00    +0.292 HD
ENDBRANCH   8  14
TORSDOF 1
ENDMDL
MODEL 5
REMARK VINA RESULT:      -5.6      2.013      2.285
REMARK  Name = NuBBE_1013
REMARK  3 active torsions:
REMARK  status: ('A' for Active; 'I' for Inactive)
REMARK    1  A    between atoms: C_1  and  C_2
REMARK    2  A    between atoms: C_6  and  C_13
REMARK    3  A    between atoms: C_8  and  O_12
REMARK                            x       y       z     vdW  Elec       q    Type
REMARK                         _______ _______ _______ _____ _____    ______ ____
ROOT
ATOM      1  C   LIG A   1     -13.522   6.999 128.242  0.00  0.00    +0.086 C 
ATOM      2  C   LIG A   1     -12.216   6.694 128.907  0.00  0.00    +0.106 A 
ATOM      3  C   LIG A   1     -11.224   7.588 128.974  0.00  0.00    +0.092 A 
ATOM      4  C   LIG A   1      -9.958   7.236 129.636  0.00  0.00    +0.193 A 
ATOM      5  C   LIG A   1      -9.852   5.872 130.216  0.00  0.00    +0.067 A 
ATOM      6  C   LIG A   1      -8.709   5.382 130.889  0.00  0.00    -0.033 A 
ATOM      7  C   LIG A   1      -8.734   4.063 131.392  0.00  0.00    +0.049 A 
ATOM      8  C   LIG A   1      -9.858   3.260 131.233  0.00  0.00    +0.121 A 
ATOM      9  C   LIG A   1     -10.978   3.738 130.576  0.00  0.00    +0.092 A 
ATOM     10  C   LIG A   1     -10.976   5.040 130.069  0.00  0.00    +0.142 A 
ATOM     11  O   LIG A   1     -12.136   5.421 129.434  0.00  0.00    -0.460 OA
ATOM     12  C   LIG A   1      -7.434   6.144 131.128  0.00  0.00    +0.045 C 
ATOM     13  O   LIG A   1      -9.070   8.076 129.670  0.00  0.00    -0.287 OA
ENDROOT
BRANCH   8  14
ATOM     14  O   LIG A   1      -9.894   1.986 131.714  0.00  0.00    -0.507 OA
ATOM     15  H   LIG A   1     -10.714   1.557 131.417  0.00  0.00    +0.292 HD
ENDBRANCH   8  14
TORSDOF 1
ENDMDL
MODEL 6
REMARK VINA RESULT:      -5.6      8.382     10.308
REMARK  Name = NuBBE_1013
REMARK  3 active torsions:
REMARK  status: ('A' for Active; 'I' for Inactive)
REMARK    1  A    between atoms: C_1  and  C_2
REMARK    2  A    between atoms: C_6  and  C_13
REMARK    3  A    between atoms: C_8  and  O_12
REMARK                            x       y       z     vdW  Elec       q    Type
REMARK                         _______ _______ _______ _____ _____    ______ ____
ROOT
ATOM      1  C   LIG A   1      -7.430   3.203 123.723  0.00  0.00    +0.086 C 
ATOM      2  C   LIG A   1      -7.794   1.753 123.649  0.00  0.00    +0.106 A 
ATOM      3  C   LIG A   1      -8.987   1.338 123.214  0.00  0.00    +0.092 A 
ATOM      4  C   LIG A   1      -9.295  -0.099 123.165  0.00  0.00    +0.193 A 
ATOM      5  C   LIG A   1      -8.230  -1.037 123.606  0.00  0.00    +0.067 A 
ATOM      6  C   LIG A   1      -8.364  -2.444 123.613  0.00  0.00    -0.033 A 
ATOM      7  C   LIG A   1      -7.276  -3.225 124.060  0.00  0.00    +0.049 A 
ATOM      8  C   LIG A   1      -6.095  -2.626 124.484  0.00  0.00    +0.121 A 
ATOM      9  C   LIG A   1      -5.961  -1.249 124.476  0.00  0.00    +0.092 A 
ATOM     10  C   LIG A   1      -7.025  -0.457 124.038  0.00  0.00    +0.142 A 
ATOM     11  O   LIG A   1      -6.793   0.900 124.068  0.00  0.00    -0.460 OA
ATOM     12  C   LIG A   1      -9.582  -3.215 123.181  0.00  0.00    +0.045 C 
ATOM     13  O   LIG A   1     -10.401  -0.441 122.770  0.00  0.00    -0.287 OA
ENDROOT
BRANCH   8  14
ATOM     14  O   LIG A   1      -5.038  -3.369 124.918  0.00  0.00    -0.507 OA
ATOM     15  H   LIG A   1      -4.241  -3.102 124.431  0.00  0.00    +0.292 HD
ENDBRANCH   8  14
TORSDOF 1
ENDMDL
MODEL 7
REMARK VINA RESULT:      -5.5      7.085      8.670
REMARK  Name = NuBBE_1013
REMARK  3 active torsions:
REMARK  status: ('A' for Active; 'I' for Inactive)
REMARK    1  A    between atoms: C_1  and  C_2
REMARK    2  A    between atoms: C_6  and  C_13
REMARK    3  A    between atoms: C_8  and  O_12
REMARK                            x       y       z     vdW  Elec       q    Type
REMARK                         _______ _______ _______ _____ _____    ______ ____
ROOT
ATOM      1  C   LIG A   1      -5.641   4.534 120.195  0.00  0.00    +0.086 C 
ATOM      2  C   LIG A   1      -6.050   4.085 121.564  0.00  0.00    +0.106 A 
ATOM      3  C   LIG A   1      -5.275   4.268 122.636  0.00  0.00    +0.092 A 
ATOM      4  C   LIG A   1      -5.722   3.805 123.958  0.00  0.00    +0.193 A 
ATOM      5  C   LIG A   1      -7.053   3.148 124.032  0.00  0.00    +0.067 A 
ATOM      6  C   LIG A   1      -7.630   2.654 125.224  0.00  0.00    -0.033 A 
ATOM      7  C   LIG A   1      -8.903   2.045 125.159  0.00  0.00    +0.049 A 
ATOM      8  C   LIG A   1      -9.579   1.934 123.948  0.00  0.00    +0.121 A 
ATOM      9  C   LIG A   1      -9.016   2.419 122.780  0.00  0.00    +0.092 A 
ATOM     10  C   LIG A   1      -7.758   3.024 122.822  0.00  0.00    +0.142 A 
ATOM     11  O   LIG A   1      -7.286   3.472 121.609  0.00  0.00    -0.460 OA
ATOM     12  C   LIG A   1      -7.008   2.711 126.593  0.00  0.00    +0.045 C 
ATOM     13  O   LIG A   1      -4.982   3.982 124.915  0.00  0.00    -0.287 OA
ENDROOT
BRANCH   8  14
ATOM     14  O   LIG A   1     -10.807   1.349 123.872  0.00  0.00    -0.507 OA
ATOM     15  H   LIG A   1     -11.001   1.138 122.944  0.00  0.00    +0.292 HD
ENDBRANCH   8  14
TORSDOF 1
ENDMDL
MODEL 8
REMARK VINA RESULT:      -5.5      3.579      5.641
REMARK  Name = NuBBE_1013
REMARK  3 active torsions:
REMARK  status: ('A' for Active; 'I' for Inactive)
REMARK    1  A    between atoms: C_1  and  C_2
REMARK    2  A    between atoms: C_6  and  C_13
REMARK    3  A    between atoms: C_8  and  O_12
REMARK                            x       y       z     vdW  Elec       q    Type
REMARK                         _______ _______ _______ _____ _____    ______ ____
ROOT
ATOM      1  C   LIG A   1      -4.097   7.903 129.917  0.00  0.00    +0.086 C 
ATOM      2  C   LIG A   1      -5.080   7.243 130.832  0.00  0.00    +0.106 A 
ATOM      3  C   LIG A   1      -4.700   6.580 131.929  0.00  0.00    +0.092 A 
ATOM      4  C   LIG A   1      -5.706   5.945 132.793  0.00  0.00    +0.193 A 
ATOM      5  C   LIG A   1      -7.130   6.087 132.393  0.00  0.00    +0.067 A 
ATOM      6  C   LIG A   1      -8.216   5.544 133.118  0.00  0.00    -0.033 A 
ATOM      7  C   LIG A   1      -9.525   5.746 132.628  0.00  0.00    +0.049 A 
ATOM      8  C   LIG A   1      -9.745   6.467 131.459  0.00  0.00    +0.121 A 
ATOM      9  C   LIG A   1      -8.684   7.001 130.750  0.00  0.00    +0.092 A 
ATOM     10  C   LIG A   1      -7.381   6.812 131.215  0.00  0.00    +0.142 A 
ATOM     11  O   LIG A   1      -6.396   7.381 130.440  0.00  0.00    -0.460 OA
ATOM     12  C   LIG A   1      -8.116   4.749 134.391  0.00  0.00    +0.045 C 
ATOM     13  O   LIG A   1      -5.320   5.340 133.783  0.00  0.00    -0.287 OA
ENDROOT
BRANCH   8  14
ATOM     14  O   LIG A   1     -11.004   6.669 130.976  0.00  0.00    -0.507 OA
ATOM     15  H   LIG A   1     -11.530   5.865 131.115  0.00  0.00    +0.292 HD
ENDBRANCH   8  14
TORSDOF 1
ENDMDL
MODEL 9
REMARK VINA RESULT:      -5.5      7.440      8.963
REMARK  Name = NuBBE_1013
REMARK  3 active torsions:
REMARK  status: ('A' for Active; 'I' for Inactive)
REMARK    1  A    between atoms: C_1  and  C_2
REMARK    2  A    between atoms: C_6  and  C_13
REMARK    3  A    between atoms: C_8  and  O_12
REMARK                            x       y       z     vdW  Elec       q    Type
REMARK                         _______ _______ _______ _____ _____    ______ ____
ROOT
ATOM      1  C   LIG A   1      -5.333   5.249 119.481  0.00  0.00    +0.086 C 
ATOM      2  C   LIG A   1      -6.091   4.582 120.586  0.00  0.00    +0.106 A 
ATOM      3  C   LIG A   1      -7.299   4.042 120.398  0.00  0.00    +0.092 A 
ATOM      4  C   LIG A   1      -8.004   3.402 121.519  0.00  0.00    +0.193 A 
ATOM      5  C   LIG A   1      -7.311   3.383 122.833  0.00  0.00    +0.067 A 
ATOM      6  C   LIG A   1      -7.848   2.802 124.005  0.00  0.00    -0.033 A 
ATOM      7  C   LIG A   1      -7.089   2.853 125.195  0.00  0.00    +0.049 A 
ATOM      8  C   LIG A   1      -5.837   3.460 125.216  0.00  0.00    +0.121 A 
ATOM      9  C   LIG A   1      -5.309   4.028 124.070  0.00  0.00    +0.092 A 
ATOM     10  C   LIG A   1      -6.044   3.989 122.882  0.00  0.00    +0.142 A 
ATOM     11  O   LIG A   1      -5.433   4.580 121.799  0.00  0.00    -0.460 OA
ATOM     12  C   LIG A   1      -9.183   2.117 124.117  0.00  0.00    +0.045 C 
ATOM     13  O   LIG A   1      -9.112   2.928 121.311  0.00  0.00    -0.287 OA
ENDROOT
BRANCH   8  14
ATOM     14  O   LIG A   1      -5.095   3.516 126.358  0.00  0.00    -0.507 OA
ATOM     15  H   LIG A   1      -5.486   2.923 127.020  0.00  0.00    +0.292 HD
ENDBRANCH   8  14
TORSDOF 1
ENDMDL
