MODEL 1
REMARK VINA RESULT:      -6.4      0.000      0.000
REMARK  Name = NuBBE_344
REMARK  9 active torsions:
REMARK  status: ('A' for Active; 'I' for Inactive)
REMARK    1  A    between atoms: C_2  and  O_3
REMARK    2  A    between atoms: C_2  and  C_5
REMARK    3  A    between atoms: O_3  and  C_4
REMARK    4  A    between atoms: C_7  and  C_8
REMARK    5  A    between atoms: C_8  and  C_9
REMARK    6  A    between atoms: C_10  and  C_11
REMARK    7  A    between atoms: C_10  and  C_12
REMARK    8  A    between atoms: C_16  and  O_17
REMARK    9  A    between atoms: O_17  and  C_18
REMARK                            x       y       z     vdW  Elec       q    Type
REMARK                         _______ _______ _______ _____ _____    ______ ____
ROOT
ATOM      1  C   LIG A   1      -8.771   5.765 132.824  0.00  0.00    +0.101 A 
ATOM      2  C   LIG A   1     -10.130   5.911 132.460  0.00  0.00    +0.030 A 
ATOM      3  C   LIG A   1     -10.501   6.561 131.278  0.00  0.00    +0.023 A 
ATOM      4  C   LIG A   1      -9.500   7.067 130.447  0.00  0.00    +0.015 A 
ATOM      5  C   LIG A   1      -8.152   6.922 130.792  0.00  0.00    +0.047 A 
ATOM      6  C   LIG A   1      -7.767   6.250 131.962  0.00  0.00    +0.134 A 
ENDROOT
BRANCH   1   8
ATOM      7  O   LIG A   1      -7.939   5.529 135.090  0.00  0.00    -0.245 OA
ATOM      8  C   LIG A   1      -8.461   5.043 134.095  0.00  0.00    +0.343 C 
BRANCH   8   9
ATOM      9  O   LIG A   1      -8.843   3.748 133.945  0.00  0.00    -0.464 OA
ATOM     10  C   LIG A   1      -7.866   2.801 133.500  0.00  0.00    +0.280 C 
ENDBRANCH   8   9
ENDBRANCH   1   8
BRANCH   3  11
ATOM     11  C   LIG A   1     -11.951   6.644 130.918  0.00  0.00    +0.186 C 
ATOM     12  O   LIG A   1     -12.788   6.866 131.785  0.00  0.00    -0.287 OA
BRANCH  11  13
ATOM     13  C   LIG A   1     -12.298   6.500 129.472  0.00  0.00    +0.050 C 
ATOM     14  C   LIG A   1     -12.669   7.463 128.604  0.00  0.00    -0.072 C 
ATOM     15  C   LIG A   1     -12.822   8.931 128.905  0.00  0.00    +0.039 C 
ATOM     16  C   LIG A   1     -12.979   7.091 127.176  0.00  0.00    +0.039 C 
ENDBRANCH  11  13
ENDBRANCH   3  11
BRANCH   6  17
ATOM     17  O   LIG A   1      -6.447   6.085 132.302  0.00  0.00    -0.494 OA
ATOM     18  C   LIG A   1      -5.489   6.649 131.403  0.00  0.00    +0.277 C 
ENDBRANCH   6  17
TORSDOF 5
ENDMDL
MODEL 2
REMARK VINA RESULT:      -6.3      9.387     10.948
REMARK  Name = NuBBE_344
REMARK  9 active torsions:
REMARK  status: ('A' for Active; 'I' for Inactive)
REMARK    1  A    between atoms: C_2  and  O_3
REMARK    2  A    between atoms: C_2  and  C_5
REMARK    3  A    between atoms: O_3  and  C_4
REMARK    4  A    between atoms: C_7  and  C_8
REMARK    5  A    between atoms: C_8  and  C_9
REMARK    6  A    between atoms: C_10  and  C_11
REMARK    7  A    between atoms: C_10  and  C_12
REMARK    8  A    between atoms: C_16  and  O_17
REMARK    9  A    between atoms: O_17  and  C_18
REMARK                            x       y       z     vdW  Elec       q    Type
REMARK                         _______ _______ _______ _____ _____    ______ ____
ROOT
ATOM      1  C   LIG A   1      -8.358   1.872 123.638  0.00  0.00    +0.101 A 
ATOM      2  C   LIG A   1      -8.290   0.478 123.410  0.00  0.00    +0.030 A 
ATOM      3  C   LIG A   1      -8.595  -0.441 124.418  0.00  0.00    +0.023 A 
ATOM      4  C   LIG A   1      -8.977   0.039 125.671  0.00  0.00    +0.015 A 
ATOM      5  C   LIG A   1      -9.056   1.416 125.909  0.00  0.00    +0.047 A 
ATOM      6  C   LIG A   1      -8.776   2.346 124.898  0.00  0.00    +0.134 A 
ENDROOT
BRANCH   1   8
ATOM      7  O   LIG A   1      -8.838   3.421 121.834  0.00  0.00    -0.245 OA
ATOM      8  C   LIG A   1      -8.032   2.784 122.501  0.00  0.00    +0.343 C 
BRANCH   8   9
ATOM      9  O   LIG A   1      -6.685   2.768 122.324  0.00  0.00    -0.464 OA
ATOM     10  C   LIG A   1      -5.935   3.917 122.728  0.00  0.00    +0.280 C 
ENDBRANCH   8   9
ENDBRANCH   1   8
BRANCH   3  11
ATOM     11  C   LIG A   1      -8.553  -1.905 124.106  0.00  0.00    +0.186 C 
ATOM     12  O   LIG A   1      -9.550  -2.597 124.270  0.00  0.00    -0.287 OA
BRANCH  11  13
ATOM     13  C   LIG A   1      -7.275  -2.440 123.547  0.00  0.00    +0.050 C 
ATOM     14  C   LIG A   1      -6.099  -2.620 124.182  0.00  0.00    -0.072 C 
ATOM     15  C   LIG A   1      -5.804  -2.315 125.627  0.00  0.00    +0.039 C 
ATOM     16  C   LIG A   1      -4.924  -3.177 123.417  0.00  0.00    +0.039 C 
ENDBRANCH  11  13
ENDBRANCH   3  11
BRANCH   6  17
ATOM     17  O   LIG A   1      -8.868   3.700 125.112  0.00  0.00    -0.494 OA
ATOM     18  C   LIG A   1      -7.849   4.279 125.932  0.00  0.00    +0.277 C 
ENDBRANCH   6  17
TORSDOF 5
ENDMDL
MODEL 3
REMARK VINA RESULT:      -6.0      8.571     11.381
REMARK  Name = NuBBE_344
REMARK  9 active torsions:
REMARK  status: ('A' for Active; 'I' for Inactive)
REMARK    1  A    between atoms: C_2  and  O_3
REMARK    2  A    between atoms: C_2  and  C_5
REMARK    3  A    between atoms: O_3  and  C_4
REMARK    4  A    between atoms: C_7  and  C_8
REMARK    5  A    between atoms: C_8  and  C_9
REMARK    6  A    between atoms: C_10  and  C_11
REMARK    7  A    between atoms: C_10  and  C_12
REMARK    8  A    between atoms: C_16  and  O_17
REMARK    9  A    between atoms: O_17  and  C_18
REMARK                            x       y       z     vdW  Elec       q    Type
REMARK                         _______ _______ _______ _____ _____    ______ ____
ROOT
ATOM      1  C   LIG A   1      -8.509  -1.266 126.244  0.00  0.00    +0.101 A 
ATOM      2  C   LIG A   1      -7.863  -1.198 127.500  0.00  0.00    +0.030 A 
ATOM      3  C   LIG A   1      -7.880  -2.280 128.387  0.00  0.00    +0.023 A 
ATOM      4  C   LIG A   1      -8.548  -3.446 128.011  0.00  0.00    +0.015 A 
ATOM      5  C   LIG A   1      -9.184  -3.529 126.768  0.00  0.00    +0.047 A 
ATOM      6  C   LIG A   1      -9.153  -2.460 125.861  0.00  0.00    +0.134 A 
ENDROOT
BRANCH   1   8
ATOM      7  O   LIG A   1      -7.491   0.218 124.618  0.00  0.00    -0.245 OA
ATOM      8  C   LIG A   1      -8.428  -0.071 125.351  0.00  0.00    +0.343 C 
BRANCH   8   9
ATOM      9  O   LIG A   1      -9.569   0.649 125.510  0.00  0.00    -0.464 OA
ATOM     10  C   LIG A   1     -10.089   1.352 124.377  0.00  0.00    +0.280 C 
ENDBRANCH   8   9
ENDBRANCH   1   8
BRANCH   3  11
ATOM     11  C   LIG A   1      -7.138  -2.170 129.682  0.00  0.00    +0.186 C 
ATOM     12  O   LIG A   1      -6.895  -1.069 130.160  0.00  0.00    -0.287 OA
BRANCH  11  13
ATOM     13  C   LIG A   1      -6.773  -3.450 130.362  0.00  0.00    +0.050 C 
ATOM     14  C   LIG A   1      -5.593  -4.102 130.333  0.00  0.00    -0.072 C 
ATOM     15  C   LIG A   1      -4.353  -3.677 129.592  0.00  0.00    +0.039 C 
ATOM     16  C   LIG A   1      -5.443  -5.392 131.098  0.00  0.00    +0.039 C 
ENDBRANCH  11  13
ENDBRANCH   3  11
BRANCH   6  17
ATOM     17  O   LIG A   1      -9.757  -2.535 124.630  0.00  0.00    -0.494 OA
ATOM     18  C   LIG A   1      -9.036  -3.238 123.615  0.00  0.00    +0.277 C 
ENDBRANCH   6  17
TORSDOF 5
ENDMDL
MODEL 4
REMARK VINA RESULT:      -6.0      1.635      2.916
REMARK  Name = NuBBE_344
REMARK  9 active torsions:
REMARK  status: ('A' for Active; 'I' for Inactive)
REMARK    1  A    between atoms: C_2  and  O_3
REMARK    2  A    between atoms: C_2  and  C_5
REMARK    3  A    between atoms: O_3  and  C_4
REMARK    4  A    between atoms: C_7  and  C_8
REMARK    5  A    between atoms: C_8  and  C_9
REMARK    6  A    between atoms: C_10  and  C_11
REMARK    7  A    between atoms: C_10  and  C_12
REMARK    8  A    between atoms: C_16  and  O_17
REMARK    9  A    between atoms: O_17  and  C_18
REMARK                            x       y       z     vdW  Elec       q    Type
REMARK                         _______ _______ _______ _____ _____    ______ ____
ROOT
ATOM      1  C   LIG A   1      -7.913   6.128 131.623  0.00  0.00    +0.101 A 
ATOM      2  C   LIG A   1      -8.453   6.537 130.382  0.00  0.00    +0.030 A 
ATOM      3  C   LIG A   1      -9.829   6.720 130.210  0.00  0.00    +0.023 A 
ATOM      4  C   LIG A   1     -10.676   6.493 131.295  0.00  0.00    +0.015 A 
ATOM      5  C   LIG A   1     -10.155   6.095 132.531  0.00  0.00    +0.047 A 
ATOM      6  C   LIG A   1      -8.775   5.934 132.722  0.00  0.00    +0.134 A 
ENDROOT
BRANCH   1   8
ATOM      7  O   LIG A   1      -5.624   6.874 131.922  0.00  0.00    -0.245 OA
ATOM      8  C   LIG A   1      -6.431   5.973 131.725  0.00  0.00    +0.343 C 
BRANCH   8   9
ATOM      9  O   LIG A   1      -6.133   4.661 131.541  0.00  0.00    -0.464 OA
ATOM     10  C   LIG A   1      -5.331   4.003 132.527  0.00  0.00    +0.280 C 
ENDBRANCH   8   9
ENDBRANCH   1   8
BRANCH   3  11
ATOM     11  C   LIG A   1     -10.339   7.201 128.888  0.00  0.00    +0.186 C 
ATOM     12  O   LIG A   1     -10.012   6.628 127.857  0.00  0.00    -0.287 OA
BRANCH  11  13
ATOM     13  C   LIG A   1     -11.289   8.354 128.910  0.00  0.00    +0.050 C 
ATOM     14  C   LIG A   1     -12.623   8.339 128.712  0.00  0.00    -0.072 C 
ATOM     15  C   LIG A   1     -13.472   7.130 128.417  0.00  0.00    +0.039 C 
ATOM     16  C   LIG A   1     -13.394   9.633 128.778  0.00  0.00    +0.039 C 
ENDBRANCH  11  13
ENDBRANCH   3  11
BRANCH   6  17
ATOM     17  O   LIG A   1      -8.249   5.562 133.934  0.00  0.00    -0.494 OA
ATOM     18  C   LIG A   1      -8.559   4.239 134.377  0.00  0.00    +0.277 C 
ENDBRANCH   6  17
TORSDOF 5
ENDMDL
MODEL 5
REMARK VINA RESULT:      -5.9      9.600     12.204
REMARK  Name = NuBBE_344
REMARK  9 active torsions:
REMARK  status: ('A' for Active; 'I' for Inactive)
REMARK    1  A    between atoms: C_2  and  O_3
REMARK    2  A    between atoms: C_2  and  C_5
REMARK    3  A    between atoms: O_3  and  C_4
REMARK    4  A    between atoms: C_7  and  C_8
REMARK    5  A    between atoms: C_8  and  C_9
REMARK    6  A    between atoms: C_10  and  C_11
REMARK    7  A    between atoms: C_10  and  C_12
REMARK    8  A    between atoms: C_16  and  O_17
REMARK    9  A    between atoms: O_17  and  C_18
REMARK                            x       y       z     vdW  Elec       q    Type
REMARK                         _______ _______ _______ _____ _____    ______ ____
ROOT
ATOM      1  C   LIG A   1      -6.889  -2.469 125.443  0.00  0.00    +0.101 A 
ATOM      2  C   LIG A   1      -6.531  -2.095 126.759  0.00  0.00    +0.030 A 
ATOM      3  C   LIG A   1      -7.293  -2.491 127.862  0.00  0.00    +0.023 A 
ATOM      4  C   LIG A   1      -8.427  -3.276 127.648  0.00  0.00    +0.015 A 
ATOM      5  C   LIG A   1      -8.789  -3.659 126.352  0.00  0.00    +0.047 A 
ATOM      6  C   LIG A   1      -8.018  -3.289 125.241  0.00  0.00    +0.134 A 
ENDROOT
BRANCH   1   8
ATOM      7  O   LIG A   1      -6.299  -1.186 123.471  0.00  0.00    -0.245 OA
ATOM      8  C   LIG A   1      -6.010  -2.017 124.323  0.00  0.00    +0.343 C 
BRANCH   8   9
ATOM      9  O   LIG A   1      -4.842  -2.705 124.404  0.00  0.00    -0.464 OA
ATOM     10  C   LIG A   1      -4.713  -3.912 123.646  0.00  0.00    +0.280 C 
ENDBRANCH   8   9
ENDBRANCH   1   8
BRANCH   3  11
ATOM     11  C   LIG A   1      -6.839  -2.107 129.236  0.00  0.00    +0.186 C 
ATOM     12  O   LIG A   1      -6.738  -0.926 129.542  0.00  0.00    -0.287 OA
BRANCH  11  13
ATOM     13  C   LIG A   1      -6.580  -3.221 130.198  0.00  0.00    +0.050 C 
ATOM     14  C   LIG A   1      -5.449  -3.938 130.356  0.00  0.00    -0.072 C 
ATOM     15  C   LIG A   1      -4.168  -3.774 129.582  0.00  0.00    +0.039 C 
ATOM     16  C   LIG A   1      -5.406  -5.030 131.396  0.00  0.00    +0.039 C 
ENDBRANCH  11  13
ENDBRANCH   3  11
BRANCH   6  17
ATOM     17  O   LIG A   1      -8.351  -3.674 123.966  0.00  0.00    -0.494 OA
ATOM     18  C   LIG A   1      -9.519  -3.066 123.408  0.00  0.00    +0.277 C 
ENDBRANCH   6  17
TORSDOF 5
ENDMDL
MODEL 6
REMARK VINA RESULT:      -5.8      8.961     10.510
REMARK  Name = NuBBE_344
REMARK  9 active torsions:
REMARK  status: ('A' for Active; 'I' for Inactive)
REMARK    1  A    between atoms: C_2  and  O_3
REMARK    2  A    between atoms: C_2  and  C_5
REMARK    3  A    between atoms: O_3  and  C_4
REMARK    4  A    between atoms: C_7  and  C_8
REMARK    5  A    between atoms: C_8  and  C_9
REMARK    6  A    between atoms: C_10  and  C_11
REMARK    7  A    between atoms: C_10  and  C_12
REMARK    8  A    between atoms: C_16  and  O_17
REMARK    9  A    between atoms: O_17  and  C_18
REMARK                            x       y       z     vdW  Elec       q    Type
REMARK                         _______ _______ _______ _____ _____    ______ ____
ROOT
ATOM      1  C   LIG A   1      -6.978   2.184 125.088  0.00  0.00    +0.101 A 
ATOM      2  C   LIG A   1      -7.314   0.813 125.002  0.00  0.00    +0.030 A 
ATOM      3  C   LIG A   1      -6.471  -0.176 125.518  0.00  0.00    +0.023 A 
ATOM      4  C   LIG A   1      -5.278   0.210 126.131  0.00  0.00    +0.015 A 
ATOM      5  C   LIG A   1      -4.938   1.564 126.229  0.00  0.00    +0.047 A 
ATOM      6  C   LIG A   1      -5.788   2.566 125.738  0.00  0.00    +0.134 A 
ENDROOT
BRANCH   1   8
ATOM      7  O   LIG A   1      -8.877   3.693 125.126  0.00  0.00    -0.245 OA
ATOM      8  C   LIG A   1      -7.943   3.177 124.526  0.00  0.00    +0.343 C 
BRANCH   8   9
ATOM      9  O   LIG A   1      -7.615   3.390 123.225  0.00  0.00    -0.464 OA
ATOM     10  C   LIG A   1      -8.554   3.004 122.217  0.00  0.00    +0.280 C 
ENDBRANCH   8   9
ENDBRANCH   1   8
BRANCH   3  11
ATOM     11  C   LIG A   1      -6.899  -1.609 125.443  0.00  0.00    +0.186 C 
ATOM     12  O   LIG A   1      -8.053  -1.920 125.705  0.00  0.00    -0.287 OA
BRANCH  11  13
ATOM     13  C   LIG A   1      -5.874  -2.597 124.988  0.00  0.00    +0.050 C 
ATOM     14  C   LIG A   1      -5.449  -2.838 123.731  0.00  0.00    -0.072 C 
ATOM     15  C   LIG A   1      -5.923  -2.152 122.478  0.00  0.00    +0.039 C 
ATOM     16  C   LIG A   1      -4.397  -3.893 123.497  0.00  0.00    +0.039 C 
ENDBRANCH  11  13
ENDBRANCH   3  11
BRANCH   6  17
ATOM     17  O   LIG A   1      -5.474   3.898 125.845  0.00  0.00    -0.494 OA
ATOM     18  C   LIG A   1      -4.222   4.204 126.464  0.00  0.00    +0.277 C 
ENDBRANCH   6  17
TORSDOF 5
ENDMDL
MODEL 7
REMARK VINA RESULT:      -5.8      2.291      2.678
REMARK  Name = NuBBE_344
REMARK  9 active torsions:
REMARK  status: ('A' for Active; 'I' for Inactive)
REMARK    1  A    between atoms: C_2  and  O_3
REMARK    2  A    between atoms: C_2  and  C_5
REMARK    3  A    between atoms: O_3  and  C_4
REMARK    4  A    between atoms: C_7  and  C_8
REMARK    5  A    between atoms: C_8  and  C_9
REMARK    6  A    between atoms: C_10  and  C_11
REMARK    7  A    between atoms: C_10  and  C_12
REMARK    8  A    between atoms: C_16  and  O_17
REMARK    9  A    between atoms: O_17  and  C_18
REMARK                            x       y       z     vdW  Elec       q    Type
REMARK                         _______ _______ _______ _____ _____    ______ ____
ROOT
ATOM      1  C   LIG A   1      -9.080   4.205 130.228  0.00  0.00    +0.101 A 
ATOM      2  C   LIG A   1     -10.398   4.697 130.373  0.00  0.00    +0.030 A 
ATOM      3  C   LIG A   1     -10.645   6.029 130.720  0.00  0.00    +0.023 A 
ATOM      4  C   LIG A   1      -9.559   6.882 130.922  0.00  0.00    +0.015 A 
ATOM      5  C   LIG A   1      -8.250   6.410 130.775  0.00  0.00    +0.047 A 
ATOM      6  C   LIG A   1      -7.991   5.083 130.402  0.00  0.00    +0.134 A 
ENDROOT
BRANCH   1   8
ATOM      7  O   LIG A   1      -9.101   2.300 128.726  0.00  0.00    -0.245 OA
ATOM      8  C   LIG A   1      -8.906   2.773 129.839  0.00  0.00    +0.343 C 
BRANCH   8   9
ATOM      9  O   LIG A   1      -8.513   2.084 130.942  0.00  0.00    -0.464 OA
ATOM     10  C   LIG A   1      -9.520   1.452 131.740  0.00  0.00    +0.280 C 
ENDBRANCH   8   9
ENDBRANCH   1   8
BRANCH   3  11
ATOM     11  C   LIG A   1     -12.060   6.507 130.812  0.00  0.00    +0.186 C 
ATOM     12  O   LIG A   1     -12.550   6.772 131.902  0.00  0.00    -0.287 OA
BRANCH  11  13
ATOM     13  C   LIG A   1     -12.797   6.688 129.524  0.00  0.00    +0.050 C 
ATOM     14  C   LIG A   1     -13.097   7.840 128.891  0.00  0.00    -0.072 C 
ATOM     15  C   LIG A   1     -12.750   9.232 129.350  0.00  0.00    +0.039 C 
ATOM     16  C   LIG A   1     -13.857   7.791 127.590  0.00  0.00    +0.039 C 
ENDBRANCH  11  13
ENDBRANCH   3  11
BRANCH   6  17
ATOM     17  O   LIG A   1      -6.712   4.613 130.236  0.00  0.00    -0.494 OA
ATOM     18  C   LIG A   1      -5.906   4.548 131.415  0.00  0.00    +0.277 C 
ENDBRANCH   6  17
TORSDOF 5
ENDMDL
MODEL 8
REMARK VINA RESULT:      -5.8      9.782     10.635
REMARK  Name = NuBBE_344
REMARK  9 active torsions:
REMARK  status: ('A' for Active; 'I' for Inactive)
REMARK    1  A    between atoms: C_2  and  O_3
REMARK    2  A    between atoms: C_2  and  C_5
REMARK    3  A    between atoms: O_3  and  C_4
REMARK    4  A    between atoms: C_7  and  C_8
REMARK    5  A    between atoms: C_8  and  C_9
REMARK    6  A    between atoms: C_10  and  C_11
REMARK    7  A    between atoms: C_10  and  C_12
REMARK    8  A    between atoms: C_16  and  O_17
REMARK    9  A    between atoms: O_17  and  C_18
REMARK                            x       y       z     vdW  Elec       q    Type
REMARK                         _______ _______ _______ _____ _____    ______ ____
ROOT
ATOM      1  C   LIG A   1      -6.570  -0.689 123.937  0.00  0.00    +0.101 A 
ATOM      2  C   LIG A   1      -7.159   0.492 123.428  0.00  0.00    +0.030 A 
ATOM      3  C   LIG A   1      -7.135   1.688 124.152  0.00  0.00    +0.023 A 
ATOM      4  C   LIG A   1      -6.509   1.706 125.399  0.00  0.00    +0.015 A 
ATOM      5  C   LIG A   1      -5.916   0.547 125.911  0.00  0.00    +0.047 A 
ATOM      6  C   LIG A   1      -5.913  -0.652 125.183  0.00  0.00    +0.134 A 
ENDROOT
BRANCH   1   8
ATOM      7  O   LIG A   1      -5.689  -2.420 122.484  0.00  0.00    -0.245 OA
ATOM      8  C   LIG A   1      -6.627  -1.919 123.091  0.00  0.00    +0.343 C 
BRANCH   8   9
ATOM      9  O   LIG A   1      -7.908  -2.373 123.098  0.00  0.00    -0.464 OA
ATOM     10  C   LIG A   1      -8.290  -3.307 124.113  0.00  0.00    +0.280 C 
ENDBRANCH   8   9
ENDBRANCH   1   8
BRANCH   3  11
ATOM     11  C   LIG A   1      -7.731   2.919 123.544  0.00  0.00    +0.186 C 
ATOM     12  O   LIG A   1      -8.473   3.634 124.205  0.00  0.00    -0.287 OA
BRANCH  11  13
ATOM     13  C   LIG A   1      -7.333   3.240 122.139  0.00  0.00    +0.050 C 
ATOM     14  C   LIG A   1      -6.220   3.872 121.713  0.00  0.00    -0.072 C 
ATOM     15  C   LIG A   1      -5.109   4.409 122.575  0.00  0.00    +0.039 C 
ATOM     16  C   LIG A   1      -6.019   4.095 120.235  0.00  0.00    +0.039 C 
ENDBRANCH  11  13
ENDBRANCH   3  11
BRANCH   6  17
ATOM     17  O   LIG A   1      -5.317  -1.792 125.665  0.00  0.00    -0.494 OA
ATOM     18  C   LIG A   1      -5.660  -2.164 127.003  0.00  0.00    +0.277 C 
ENDBRANCH   6  17
TORSDOF 5
ENDMDL
MODEL 9
REMARK VINA RESULT:      -5.6      8.445     10.312
REMARK  Name = NuBBE_344
REMARK  9 active torsions:
REMARK  status: ('A' for Active; 'I' for Inactive)
REMARK    1  A    between atoms: C_2  and  O_3
REMARK    2  A    between atoms: C_2  and  C_5
REMARK    3  A    between atoms: O_3  and  C_4
REMARK    4  A    between atoms: C_7  and  C_8
REMARK    5  A    between atoms: C_8  and  C_9
REMARK    6  A    between atoms: C_10  and  C_11
REMARK    7  A    between atoms: C_10  and  C_12
REMARK    8  A    between atoms: C_16  and  O_17
REMARK    9  A    between atoms: O_17  and  C_18
REMARK                            x       y       z     vdW  Elec       q    Type
REMARK                         _______ _______ _______ _____ _____    ______ ____
ROOT
ATOM      1  C   LIG A   1      -7.571  -1.246 128.677  0.00  0.00    +0.101 A 
ATOM      2  C   LIG A   1      -7.696  -1.491 127.290  0.00  0.00    +0.030 A 
ATOM      3  C   LIG A   1      -8.207  -2.700 126.808  0.00  0.00    +0.023 A 
ATOM      4  C   LIG A   1      -8.601  -3.677 127.724  0.00  0.00    +0.015 A 
ATOM      5  C   LIG A   1      -8.488  -3.444 129.099  0.00  0.00    +0.047 A 
ATOM      6  C   LIG A   1      -8.001  -2.226 129.594  0.00  0.00    +0.134 A 
ENDROOT
BRANCH   1   8
ATOM      7  O   LIG A   1      -7.684   1.009 129.565  0.00  0.00    -0.245 OA
ATOM      8  C   LIG A   1      -7.031   0.079 129.107  0.00  0.00    +0.343 C 
BRANCH   8   9
ATOM      9  O   LIG A   1      -5.691   0.078 128.883  0.00  0.00    -0.464 OA
ATOM     10  C   LIG A   1      -4.825  -0.299 129.959  0.00  0.00    +0.280 C 
ENDBRANCH   8   9
ENDBRANCH   1   8
BRANCH   3  11
ATOM     11  C   LIG A   1      -8.363  -2.887 125.330  0.00  0.00    +0.186 C 
ATOM     12  O   LIG A   1      -9.352  -2.448 124.757  0.00  0.00    -0.287 OA
BRANCH  11  13
ATOM     13  C   LIG A   1      -7.245  -3.572 124.614  0.00  0.00    +0.050 C 
ATOM     14  C   LIG A   1      -6.030  -3.076 124.298  0.00  0.00    -0.072 C 
ATOM     15  C   LIG A   1      -5.520  -1.693 124.603  0.00  0.00    +0.039 C 
ATOM     16  C   LIG A   1      -5.045  -3.950 123.564  0.00  0.00    +0.039 C 
ENDBRANCH  11  13
ENDBRANCH   3  11
BRANCH   6  17
ATOM     17  O   LIG A   1      -7.904  -1.978 130.942  0.00  0.00    -0.494 OA
ATOM     18  C   LIG A   1      -7.158  -2.929 131.706  0.00  0.00    +0.277 C 
ENDBRANCH   6  17
TORSDOF 5
ENDMDL
