MODEL 1
REMARK VINA RESULT:      -7.8      0.000      0.000
REMARK  Name = NuBBE_2172
REMARK  8 active torsions:
REMARK  status: ('A' for Active; 'I' for Inactive)
REMARK    1  A    between atoms: C_6  and  O_7
REMARK    2  A    between atoms: O_7  and  C_8
REMARK    3  A    between atoms: C_8  and  C_9
REMARK    4  A    between atoms: C_10  and  C_11
REMARK    5  A    between atoms: C_10  and  C_12
REMARK    6  A    between atoms: C_13  and  O_14
REMARK    7  A    between atoms: O_14  and  C_15
REMARK    8  A    between atoms: C_19  and  C_20
REMARK                            x       y       z     vdW  Elec       q    Type
REMARK                         _______ _______ _______ _____ _____    ______ ____
ROOT
ATOM      1  O   LIG A   1      -7.013   0.302 123.187  0.00  0.00    -0.286 OA
ATOM      2  C   LIG A   1      -7.430   1.010 124.092  0.00  0.00    +0.200 A 
ATOM      3  C   LIG A   1      -7.554   0.483 125.465  0.00  0.00    +0.068 A 
ATOM      4  C   LIG A   1      -7.167  -0.819 125.752  0.00  0.00    +0.019 A 
ATOM      5  C   LIG A   1      -7.268  -1.295 127.067  0.00  0.00    +0.050 A 
ATOM      6  C   LIG A   1      -7.762  -0.484 128.101  0.00  0.00    +0.166 A 
ATOM      7  C   LIG A   1      -8.128   0.846 127.801  0.00  0.00    +0.205 A 
ATOM      8  C   LIG A   1      -8.033   1.311 126.466  0.00  0.00    +0.183 A 
ATOM      9  O   LIG A   1      -8.426   2.610 126.213  0.00  0.00    -0.458 OA
ATOM     10  C   LIG A   1      -8.282   3.105 124.944  0.00  0.00    +0.208 A 
ATOM     11  C   LIG A   1      -7.816   2.422 123.877  0.00  0.00    +0.064 A 
ENDROOT
BRANCH  11  12
ATOM     12  C   LIG A   1      -7.682   3.063 122.567  0.00  0.00    -0.008 A 
ATOM     13  C   LIG A   1      -8.803   3.155 121.710  0.00  0.00    +0.012 A 
ATOM     14  C   LIG A   1      -8.692   3.745 120.446  0.00  0.00    +0.050 A 
ATOM     15  C   LIG A   1      -7.458   4.227 120.071  0.00  0.00    +0.166 A 
ATOM     16  O   LIG A   1      -7.165   4.823 118.884  0.00  0.00    -0.453 OA
ATOM     17  C   LIG A   1      -5.761   5.105 119.061  0.00  0.00    +0.466 C 
ATOM     18  O   LIG A   1      -5.246   4.676 120.339  0.00  0.00    -0.453 OA
ATOM     19  C   LIG A   1      -6.364   4.141 120.899  0.00  0.00    +0.167 A 
ATOM     20  C   LIG A   1      -6.439   3.566 122.150  0.00  0.00    +0.058 A 
ENDBRANCH  11  12
BRANCH   7  21
ATOM     21  O   LIG A   1      -8.673   1.758 128.668  0.00  0.00    -0.488 OA
ATOM     22  C   LIG A   1      -7.790   2.458 129.531  0.00  0.00    +0.277 C 
ENDBRANCH   7  21
BRANCH   6  23
ATOM     23  O   LIG A   1      -7.869  -0.946 129.395  0.00  0.00    -0.484 OA
BRANCH  23  24
ATOM     24  C   LIG A   1      -6.631  -1.144 130.099  0.00  0.00    +0.257 C 
BRANCH  24  25
ATOM     25  C   LIG A   1      -6.518  -2.587 130.515  0.00  0.00    +0.012 C 
ATOM     26  C   LIG A   1      -5.604  -3.499 130.126  0.00  0.00    -0.076 C 
ATOM     27  C   LIG A   1      -4.507  -3.242 129.128  0.00  0.00    +0.038 C 
ATOM     28  C   LIG A   1      -5.612  -4.909 130.670  0.00  0.00    +0.038 C 
ENDBRANCH  24  25
ENDBRANCH  23  24
ENDBRANCH   6  23
TORSDOF 5
ENDMDL
MODEL 2
REMARK VINA RESULT:      -7.7      3.951      6.226
REMARK  Name = NuBBE_2172
REMARK  8 active torsions:
REMARK  status: ('A' for Active; 'I' for Inactive)
REMARK    1  A    between atoms: C_6  and  O_7
REMARK    2  A    between atoms: O_7  and  C_8
REMARK    3  A    between atoms: C_8  and  C_9
REMARK    4  A    between atoms: C_10  and  C_11
REMARK    5  A    between atoms: C_10  and  C_12
REMARK    6  A    between atoms: C_13  and  O_14
REMARK    7  A    between atoms: O_14  and  C_15
REMARK    8  A    between atoms: C_19  and  C_20
REMARK                            x       y       z     vdW  Elec       q    Type
REMARK                         _______ _______ _______ _____ _____    ______ ____
ROOT
ATOM      1  O   LIG A   1      -5.355   1.120 128.240  0.00  0.00    -0.286 OA
ATOM      2  C   LIG A   1      -5.810   1.360 127.131  0.00  0.00    +0.200 A 
ATOM      3  C   LIG A   1      -6.788   0.450 126.504  0.00  0.00    +0.068 A 
ATOM      4  C   LIG A   1      -7.229  -0.678 127.184  0.00  0.00    +0.019 A 
ATOM      5  C   LIG A   1      -8.178  -1.517 126.583  0.00  0.00    +0.050 A 
ATOM      6  C   LIG A   1      -8.686  -1.247 125.302  0.00  0.00    +0.166 A 
ATOM      7  C   LIG A   1      -8.247  -0.083 124.633  0.00  0.00    +0.205 A 
ATOM      8  C   LIG A   1      -7.279   0.750 125.245  0.00  0.00    +0.183 A 
ATOM      9  O   LIG A   1      -6.861   1.863 124.544  0.00  0.00    -0.458 OA
ATOM     10  C   LIG A   1      -5.975   2.721 125.142  0.00  0.00    +0.208 A 
ATOM     11  C   LIG A   1      -5.427   2.566 126.366  0.00  0.00    +0.064 A 
ENDROOT
BRANCH  11  12
ATOM     12  C   LIG A   1      -4.505   3.563 126.915  0.00  0.00    -0.008 A 
ATOM     13  C   LIG A   1      -3.110   3.336 126.867  0.00  0.00    +0.012 A 
ATOM     14  C   LIG A   1      -2.214   4.266 127.404  0.00  0.00    +0.050 A 
ATOM     15  C   LIG A   1      -2.739   5.402 127.979  0.00  0.00    +0.166 A 
ATOM     16  O   LIG A   1      -2.022   6.406 128.551  0.00  0.00    -0.453 OA
ATOM     17  C   LIG A   1      -3.082   7.294 128.965  0.00  0.00    +0.466 C 
ATOM     18  O   LIG A   1      -4.399   6.808 128.635  0.00  0.00    -0.453 OA
ATOM     19  C   LIG A   1      -4.094   5.630 128.028  0.00  0.00    +0.167 A 
ATOM     20  C   LIG A   1      -5.004   4.734 127.508  0.00  0.00    +0.058 A 
ENDBRANCH  11  12
BRANCH   7  21
ATOM     21  O   LIG A   1      -8.596   0.309 123.366  0.00  0.00    -0.488 OA
ATOM     22  C   LIG A   1      -9.836   0.979 123.200  0.00  0.00    +0.277 C 
ENDBRANCH   7  21
BRANCH   6  23
ATOM     23  O   LIG A   1      -9.615  -2.070 124.703  0.00  0.00    -0.484 OA
BRANCH  23  24
ATOM     24  C   LIG A   1      -9.111  -2.960 123.692  0.00  0.00    +0.257 C 
BRANCH  24  25
ATOM     25  C   LIG A   1      -7.757  -3.471 124.107  0.00  0.00    +0.012 C 
ATOM     26  C   LIG A   1      -6.547  -3.107 123.635  0.00  0.00    -0.076 C 
ATOM     27  C   LIG A   1      -6.320  -2.111 122.529  0.00  0.00    +0.038 C 
ATOM     28  C   LIG A   1      -5.271  -3.699 124.190  0.00  0.00    +0.038 C 
ENDBRANCH  24  25
ENDBRANCH  23  24
ENDBRANCH   6  23
TORSDOF 5
ENDMDL
MODEL 3
REMARK VINA RESULT:      -7.5      3.620     10.014
REMARK  Name = NuBBE_2172
REMARK  8 active torsions:
REMARK  status: ('A' for Active; 'I' for Inactive)
REMARK    1  A    between atoms: C_6  and  O_7
REMARK    2  A    between atoms: O_7  and  C_8
REMARK    3  A    between atoms: C_8  and  C_9
REMARK    4  A    between atoms: C_10  and  C_11
REMARK    5  A    between atoms: C_10  and  C_12
REMARK    6  A    between atoms: C_13  and  O_14
REMARK    7  A    between atoms: O_14  and  C_15
REMARK    8  A    between atoms: C_19  and  C_20
REMARK                            x       y       z     vdW  Elec       q    Type
REMARK                         _______ _______ _______ _____ _____    ______ ____
ROOT
ATOM      1  O   LIG A   1      -9.033  -3.918 129.149  0.00  0.00    -0.286 OA
ATOM      2  C   LIG A   1      -8.081  -3.387 128.596  0.00  0.00    +0.200 A 
ATOM      3  C   LIG A   1      -8.153  -3.004 127.173  0.00  0.00    +0.068 A 
ATOM      4  C   LIG A   1      -9.321  -3.215 126.451  0.00  0.00    +0.019 A 
ATOM      5  C   LIG A   1      -9.380  -2.821 125.107  0.00  0.00    +0.050 A 
ATOM      6  C   LIG A   1      -8.278  -2.227 124.470  0.00  0.00    +0.166 A 
ATOM      7  C   LIG A   1      -7.106  -1.995 125.223  0.00  0.00    +0.205 A 
ATOM      8  C   LIG A   1      -7.055  -2.409 126.576  0.00  0.00    +0.183 A 
ATOM      9  O   LIG A   1      -5.881  -2.185 127.268  0.00  0.00    -0.458 OA
ATOM     10  C   LIG A   1      -5.827  -2.516 128.596  0.00  0.00    +0.208 A 
ATOM     11  C   LIG A   1      -6.821  -3.085 129.310  0.00  0.00    +0.064 A 
ENDROOT
BRANCH  11  12
ATOM     12  C   LIG A   1      -6.660  -3.373 130.738  0.00  0.00    -0.008 A 
ATOM     13  C   LIG A   1      -5.829  -4.439 131.152  0.00  0.00    +0.012 A 
ATOM     14  C   LIG A   1      -5.677  -4.744 132.509  0.00  0.00    +0.050 A 
ATOM     15  C   LIG A   1      -6.365  -3.972 133.418  0.00  0.00    +0.166 A 
ATOM     16  O   LIG A   1      -6.341  -4.126 134.769  0.00  0.00    -0.453 OA
ATOM     17  C   LIG A   1      -7.226  -3.063 135.179  0.00  0.00    +0.466 C 
ATOM     18  O   LIG A   1      -7.757  -2.301 134.076  0.00  0.00    -0.453 OA
ATOM     19  C   LIG A   1      -7.174  -2.933 133.023  0.00  0.00    +0.167 A 
ATOM     20  C   LIG A   1      -7.345  -2.607 131.694  0.00  0.00    +0.058 A 
ENDBRANCH  11  12
BRANCH   7  21
ATOM     21  O   LIG A   1      -5.927  -1.475 124.756  0.00  0.00    -0.488 OA
ATOM     22  C   LIG A   1      -5.081  -2.329 124.001  0.00  0.00    +0.277 C 
ENDBRANCH   7  21
BRANCH   6  23
ATOM     23  O   LIG A   1      -8.327  -1.842 123.147  0.00  0.00    -0.484 OA
BRANCH  23  24
ATOM     24  C   LIG A   1      -9.428  -0.994 122.777  0.00  0.00    +0.257 C 
BRANCH  24  25
ATOM     25  C   LIG A   1      -9.025   0.448 122.944  0.00  0.00    +0.012 C 
ATOM     26  C   LIG A   1      -9.197   1.244 124.019  0.00  0.00    -0.076 C 
ATOM     27  C   LIG A   1      -9.893   0.832 125.289  0.00  0.00    +0.038 C 
ATOM     28  C   LIG A   1      -8.699   2.671 124.035  0.00  0.00    +0.038 C 
ENDBRANCH  24  25
ENDBRANCH  23  24
ENDBRANCH   6  23
TORSDOF 5
ENDMDL
MODEL 4
REMARK VINA RESULT:      -7.5      3.021     10.046
REMARK  Name = NuBBE_2172
REMARK  8 active torsions:
REMARK  status: ('A' for Active; 'I' for Inactive)
REMARK    1  A    between atoms: C_6  and  O_7
REMARK    2  A    between atoms: O_7  and  C_8
REMARK    3  A    between atoms: C_8  and  C_9
REMARK    4  A    between atoms: C_10  and  C_11
REMARK    5  A    between atoms: C_10  and  C_12
REMARK    6  A    between atoms: C_13  and  O_14
REMARK    7  A    between atoms: O_14  and  C_15
REMARK    8  A    between atoms: C_19  and  C_20
REMARK                            x       y       z     vdW  Elec       q    Type
REMARK                         _______ _______ _______ _____ _____    ______ ____
ROOT
ATOM      1  O   LIG A   1      -4.839  -1.857 128.986  0.00  0.00    -0.286 OA
ATOM      2  C   LIG A   1      -5.927  -2.178 128.533  0.00  0.00    +0.200 A 
ATOM      3  C   LIG A   1      -6.355  -1.715 127.199  0.00  0.00    +0.068 A 
ATOM      4  C   LIG A   1      -5.507  -0.932 126.426  0.00  0.00    +0.019 A 
ATOM      5  C   LIG A   1      -5.919  -0.523 125.150  0.00  0.00    +0.050 A 
ATOM      6  C   LIG A   1      -7.178  -0.879 124.639  0.00  0.00    +0.166 A 
ATOM      7  C   LIG A   1      -8.019  -1.696 125.425  0.00  0.00    +0.205 A 
ATOM      8  C   LIG A   1      -7.596  -2.093 126.717  0.00  0.00    +0.183 A 
ATOM      9  O   LIG A   1      -8.462  -2.871 127.461  0.00  0.00    -0.458 OA
ATOM     10  C   LIG A   1      -8.050  -3.322 128.687  0.00  0.00    +0.208 A 
ATOM     11  C   LIG A   1      -6.865  -3.048 129.274  0.00  0.00    +0.064 A 
ENDROOT
BRANCH  11  12
ATOM     12  C   LIG A   1      -6.521  -3.609 130.583  0.00  0.00    -0.008 A 
ATOM     13  C   LIG A   1      -5.644  -4.715 130.668  0.00  0.00    +0.012 A 
ATOM     14  C   LIG A   1      -5.318  -5.278 131.906  0.00  0.00    +0.050 A 
ATOM     15  C   LIG A   1      -5.881  -4.719 133.031  0.00  0.00    +0.166 A 
ATOM     16  O   LIG A   1      -5.683  -5.136 134.310  0.00  0.00    -0.453 OA
ATOM     17  C   LIG A   1      -6.507  -4.198 135.033  0.00  0.00    +0.466 C 
ATOM     18  O   LIG A   1      -7.176  -3.246 134.180  0.00  0.00    -0.453 OA
ATOM     19  C   LIG A   1      -6.734  -3.643 132.957  0.00  0.00    +0.167 A 
ATOM     20  C   LIG A   1      -7.075  -3.065 131.752  0.00  0.00    +0.058 A 
ENDBRANCH  11  12
BRANCH   7  21
ATOM     21  O   LIG A   1      -9.292  -2.098 125.110  0.00  0.00    -0.488 OA
ATOM     22  C   LIG A   1      -9.439  -3.132 124.148  0.00  0.00    +0.277 C 
ENDBRANCH   7  21
BRANCH   6  23
ATOM     23  O   LIG A   1      -7.592  -0.476 123.388  0.00  0.00    -0.484 OA
BRANCH  23  24
ATOM     24  C   LIG A   1      -8.328   0.758 123.333  0.00  0.00    +0.257 C 
BRANCH  24  25
ATOM     25  C   LIG A   1      -7.385   1.887 123.010  0.00  0.00    +0.012 C 
ATOM     26  C   LIG A   1      -6.897   2.830 123.842  0.00  0.00    -0.076 C 
ATOM     27  C   LIG A   1      -7.254   2.959 125.298  0.00  0.00    +0.038 C 
ATOM     28  C   LIG A   1      -5.924   3.882 123.360  0.00  0.00    +0.038 C 
ENDBRANCH  24  25
ENDBRANCH  23  24
ENDBRANCH   6  23
TORSDOF 5
ENDMDL
MODEL 5
REMARK VINA RESULT:      -7.5      3.903      6.162
REMARK  Name = NuBBE_2172
REMARK  8 active torsions:
REMARK  status: ('A' for Active; 'I' for Inactive)
REMARK    1  A    between atoms: C_6  and  O_7
REMARK    2  A    between atoms: O_7  and  C_8
REMARK    3  A    between atoms: C_8  and  C_9
REMARK    4  A    between atoms: C_10  and  C_11
REMARK    5  A    between atoms: C_10  and  C_12
REMARK    6  A    between atoms: C_13  and  O_14
REMARK    7  A    between atoms: O_14  and  C_15
REMARK    8  A    between atoms: C_19  and  C_20
REMARK                            x       y       z     vdW  Elec       q    Type
REMARK                         _______ _______ _______ _____ _____    ______ ____
ROOT
ATOM      1  O   LIG A   1      -6.813   3.258 125.675  0.00  0.00    -0.286 OA
ATOM      2  C   LIG A   1      -6.557   2.250 126.317  0.00  0.00    +0.200 A 
ATOM      3  C   LIG A   1      -7.348   1.018 126.131  0.00  0.00    +0.068 A 
ATOM      4  C   LIG A   1      -8.376   0.981 125.199  0.00  0.00    +0.019 A 
ATOM      5  C   LIG A   1      -9.100  -0.206 125.018  0.00  0.00    +0.050 A 
ATOM      6  C   LIG A   1      -8.815  -1.358 125.769  0.00  0.00    +0.166 A 
ATOM      7  C   LIG A   1      -7.750  -1.313 126.695  0.00  0.00    +0.205 A 
ATOM      8  C   LIG A   1      -7.035  -0.105 126.877  0.00  0.00    +0.183 A 
ATOM      9  O   LIG A   1      -6.018  -0.100 127.812  0.00  0.00    -0.458 OA
ATOM     10  C   LIG A   1      -5.268   1.036 127.961  0.00  0.00    +0.208 A 
ATOM     11  C   LIG A   1      -5.447   2.196 127.293  0.00  0.00    +0.064 A 
ENDROOT
BRANCH  11  12
ATOM     12  C   LIG A   1      -4.565   3.343 127.516  0.00  0.00    -0.008 A 
ATOM     13  C   LIG A   1      -3.207   3.275 127.124  0.00  0.00    +0.012 A 
ATOM     14  C   LIG A   1      -2.342   4.351 127.347  0.00  0.00    +0.050 A 
ATOM     15  C   LIG A   1      -2.859   5.471 127.959  0.00  0.00    +0.166 A 
ATOM     16  O   LIG A   1      -2.168   6.604 128.258  0.00  0.00    -0.453 OA
ATOM     17  C   LIG A   1      -3.203   7.400 128.871  0.00  0.00    +0.466 C 
ATOM     18  O   LIG A   1      -4.482   6.735 128.926  0.00  0.00    -0.453 OA
ATOM     19  C   LIG A   1      -4.178   5.545 128.342  0.00  0.00    +0.167 A 
ATOM     20  C   LIG A   1      -5.056   4.502 128.137  0.00  0.00    +0.058 A 
ENDBRANCH  11  12
BRANCH   7  21
ATOM     21  O   LIG A   1      -7.365  -2.320 127.543  0.00  0.00    -0.488 OA
ATOM     22  C   LIG A   1      -8.181  -2.578 128.676  0.00  0.00    +0.277 C 
ENDBRANCH   7  21
BRANCH   6  23
ATOM     23  O   LIG A   1      -9.525  -2.526 125.600  0.00  0.00    -0.484 OA
BRANCH  23  24
ATOM     24  C   LIG A   1      -9.237  -3.274 124.406  0.00  0.00    +0.257 C 
BRANCH  24  25
ATOM     25  C   LIG A   1      -7.805  -3.739 124.443  0.00  0.00    +0.012 C 
ATOM     26  C   LIG A   1      -6.742  -3.221 123.794  0.00  0.00    -0.076 C 
ATOM     27  C   LIG A   1      -6.802  -2.059 122.840  0.00  0.00    +0.038 C 
ATOM     28  C   LIG A   1      -5.353  -3.792 123.969  0.00  0.00    +0.038 C 
ENDBRANCH  24  25
ENDBRANCH  23  24
ENDBRANCH   6  23
TORSDOF 5
ENDMDL
MODEL 6
REMARK VINA RESULT:      -7.5      1.027      2.243
REMARK  Name = NuBBE_2172
REMARK  8 active torsions:
REMARK  status: ('A' for Active; 'I' for Inactive)
REMARK    1  A    between atoms: C_6  and  O_7
REMARK    2  A    between atoms: O_7  and  C_8
REMARK    3  A    between atoms: C_8  and  C_9
REMARK    4  A    between atoms: C_10  and  C_11
REMARK    5  A    between atoms: C_10  and  C_12
REMARK    6  A    between atoms: C_13  and  O_14
REMARK    7  A    between atoms: O_14  and  C_15
REMARK    8  A    between atoms: C_19  and  C_20
REMARK                            x       y       z     vdW  Elec       q    Type
REMARK                         _______ _______ _______ _____ _____    ______ ____
ROOT
ATOM      1  O   LIG A   1      -7.746   3.816 125.159  0.00  0.00    -0.286 OA
ATOM      2  C   LIG A   1      -7.640   2.606 125.023  0.00  0.00    +0.200 A 
ATOM      3  C   LIG A   1      -7.669   1.711 126.196  0.00  0.00    +0.068 A 
ATOM      4  C   LIG A   1      -7.849   2.233 127.470  0.00  0.00    +0.019 A 
ATOM      5  C   LIG A   1      -7.900   1.365 128.570  0.00  0.00    +0.050 A 
ATOM      6  C   LIG A   1      -7.761  -0.023 128.412  0.00  0.00    +0.166 A 
ATOM      7  C   LIG A   1      -7.604  -0.543 127.109  0.00  0.00    +0.205 A 
ATOM      8  C   LIG A   1      -7.542   0.345 126.007  0.00  0.00    +0.183 A 
ATOM      9  O   LIG A   1      -7.362  -0.205 124.753  0.00  0.00    -0.458 OA
ATOM     10  C   LIG A   1      -7.365   0.626 123.665  0.00  0.00    +0.208 A 
ATOM     11  C   LIG A   1      -7.495   1.970 123.696  0.00  0.00    +0.064 A 
ENDROOT
BRANCH  11  12
ATOM     12  C   LIG A   1      -7.508   2.758 122.461  0.00  0.00    -0.008 A 
ATOM     13  C   LIG A   1      -8.729   2.989 121.786  0.00  0.00    +0.012 A 
ATOM     14  C   LIG A   1      -8.762   3.722 120.595  0.00  0.00    +0.050 A 
ATOM     15  C   LIG A   1      -7.568   4.205 120.108  0.00  0.00    +0.166 A 
ATOM     16  O   LIG A   1      -7.409   4.929 118.968  0.00  0.00    -0.453 OA
ATOM     17  C   LIG A   1      -5.983   5.143 118.978  0.00  0.00    +0.466 C 
ATOM     18  O   LIG A   1      -5.321   4.548 120.113  0.00  0.00    -0.453 OA
ATOM     19  C   LIG A   1      -6.377   3.985 120.760  0.00  0.00    +0.167 A 
ATOM     20  C   LIG A   1      -6.310   3.267 121.935  0.00  0.00    +0.058 A 
ENDBRANCH  11  12
BRANCH   7  21
ATOM     21  O   LIG A   1      -7.406  -1.858 126.773  0.00  0.00    -0.488 OA
ATOM     22  C   LIG A   1      -8.540  -2.712 126.754  0.00  0.00    +0.277 C 
ENDBRANCH   7  21
BRANCH   6  23
ATOM     23  O   LIG A   1      -7.805  -0.882 129.489  0.00  0.00    -0.484 OA
BRANCH  23  24
ATOM     24  C   LIG A   1      -6.585  -1.019 130.237  0.00  0.00    +0.257 C 
BRANCH  24  25
ATOM     25  C   LIG A   1      -6.089  -2.437 130.129  0.00  0.00    +0.012 C 
ATOM     26  C   LIG A   1      -6.213  -3.435 131.027  0.00  0.00    -0.076 C 
ATOM     27  C   LIG A   1      -6.860  -3.298 132.379  0.00  0.00    +0.038 C 
ATOM     28  C   LIG A   1      -5.683  -4.823 130.745  0.00  0.00    +0.038 C 
ENDBRANCH  24  25
ENDBRANCH  23  24
ENDBRANCH   6  23
TORSDOF 5
ENDMDL
MODEL 7
REMARK VINA RESULT:      -7.3      2.390      4.022
REMARK  Name = NuBBE_2172
REMARK  8 active torsions:
REMARK  status: ('A' for Active; 'I' for Inactive)
REMARK    1  A    between atoms: C_6  and  O_7
REMARK    2  A    between atoms: O_7  and  C_8
REMARK    3  A    between atoms: C_8  and  C_9
REMARK    4  A    between atoms: C_10  and  C_11
REMARK    5  A    between atoms: C_10  and  C_12
REMARK    6  A    between atoms: C_13  and  O_14
REMARK    7  A    between atoms: O_14  and  C_15
REMARK    8  A    between atoms: C_19  and  C_20
REMARK                            x       y       z     vdW  Elec       q    Type
REMARK                         _______ _______ _______ _____ _____    ______ ____
ROOT
ATOM      1  O   LIG A   1      -5.964   5.252 124.603  0.00  0.00    -0.286 OA
ATOM      2  C   LIG A   1      -6.136   4.077 124.895  0.00  0.00    +0.200 A 
ATOM      3  C   LIG A   1      -5.987   3.618 126.289  0.00  0.00    +0.068 A 
ATOM      4  C   LIG A   1      -5.679   4.524 127.295  0.00  0.00    +0.019 A 
ATOM      5  C   LIG A   1      -5.567   4.074 128.618  0.00  0.00    +0.050 A 
ATOM      6  C   LIG A   1      -5.749   2.720 128.947  0.00  0.00    +0.166 A 
ATOM      7  C   LIG A   1      -6.086   1.814 127.918  0.00  0.00    +0.205 A 
ATOM      8  C   LIG A   1      -6.184   2.280 126.585  0.00  0.00    +0.183 A 
ATOM      9  O   LIG A   1      -6.492   1.354 125.607  0.00  0.00    -0.458 OA
ATOM     10  C   LIG A   1      -6.658   1.789 124.318  0.00  0.00    +0.208 A 
ATOM     11  C   LIG A   1      -6.513   3.061 123.889  0.00  0.00    +0.064 A 
ENDROOT
BRANCH  11  12
ATOM     12  C   LIG A   1      -6.741   3.417 122.486  0.00  0.00    -0.008 A 
ATOM     13  C   LIG A   1      -5.645   3.760 121.660  0.00  0.00    +0.012 A 
ATOM     14  C   LIG A   1      -5.842   4.123 120.323  0.00  0.00    +0.050 A 
ATOM     15  C   LIG A   1      -7.134   4.135 119.847  0.00  0.00    +0.166 A 
ATOM     16  O   LIG A   1      -7.512   4.465 118.583  0.00  0.00    -0.453 OA
ATOM     17  C   LIG A   1      -8.942   4.299 118.675  0.00  0.00    +0.466 C 
ATOM     18  O   LIG A   1      -9.388   3.876 119.981  0.00  0.00    -0.453 OA
ATOM     19  C   LIG A   1      -8.204   3.802 120.644  0.00  0.00    +0.167 A 
ATOM     20  C   LIG A   1      -8.044   3.440 121.965  0.00  0.00    +0.058 A 
ENDBRANCH  11  12
BRANCH   7  21
ATOM     21  O   LIG A   1      -6.251   0.459 128.047  0.00  0.00    -0.488 OA
ATOM     22  C   LIG A   1      -7.487  -0.010 128.563  0.00  0.00    +0.277 C 
ENDBRANCH   7  21
BRANCH   6  23
ATOM     23  O   LIG A   1      -5.635   2.270 130.245  0.00  0.00    -0.484 OA
BRANCH  23  24
ATOM     24  C   LIG A   1      -6.333   3.034 131.242  0.00  0.00    +0.257 C 
BRANCH  24  25
ATOM     25  C   LIG A   1      -7.510   2.241 131.745  0.00  0.00    +0.012 C 
ATOM     26  C   LIG A   1      -8.769   2.218 131.262  0.00  0.00    -0.076 C 
ATOM     27  C   LIG A   1      -9.260   3.049 130.107  0.00  0.00    +0.038 C 
ATOM     28  C   LIG A   1      -9.833   1.332 131.868  0.00  0.00    +0.038 C 
ENDBRANCH  24  25
ENDBRANCH  23  24
ENDBRANCH   6  23
TORSDOF 5
ENDMDL
MODEL 8
REMARK VINA RESULT:      -7.3      2.014      9.051
REMARK  Name = NuBBE_2172
REMARK  8 active torsions:
REMARK  status: ('A' for Active; 'I' for Inactive)
REMARK    1  A    between atoms: C_6  and  O_7
REMARK    2  A    between atoms: O_7  and  C_8
REMARK    3  A    between atoms: C_8  and  C_9
REMARK    4  A    between atoms: C_10  and  C_11
REMARK    5  A    between atoms: C_10  and  C_12
REMARK    6  A    between atoms: C_13  and  O_14
REMARK    7  A    between atoms: O_14  and  C_15
REMARK    8  A    between atoms: C_19  and  C_20
REMARK                            x       y       z     vdW  Elec       q    Type
REMARK                         _______ _______ _______ _____ _____    ______ ____
ROOT
ATOM      1  O   LIG A   1      -9.092  -1.308 125.952  0.00  0.00    -0.286 OA
ATOM      2  C   LIG A   1      -8.236  -0.437 125.899  0.00  0.00    +0.200 A 
ATOM      3  C   LIG A   1      -8.322   0.643 124.896  0.00  0.00    +0.068 A 
ATOM      4  C   LIG A   1      -9.398   0.699 124.019  0.00  0.00    +0.019 A 
ATOM      5  C   LIG A   1      -9.476   1.746 123.091  0.00  0.00    +0.050 A 
ATOM      6  C   LIG A   1      -8.482   2.737 123.021  0.00  0.00    +0.166 A 
ATOM      7  C   LIG A   1      -7.408   2.681 123.935  0.00  0.00    +0.205 A 
ATOM      8  C   LIG A   1      -7.334   1.612 124.860  0.00  0.00    +0.183 A 
ATOM      9  O   LIG A   1      -6.253   1.584 125.718  0.00  0.00    -0.458 OA
ATOM     10  C   LIG A   1      -6.191   0.596 126.666  0.00  0.00    +0.208 A 
ATOM     11  C   LIG A   1      -7.087  -0.400 126.829  0.00  0.00    +0.064 A 
ENDROOT
BRANCH  11  12
ATOM     12  C   LIG A   1      -6.933  -1.391 127.897  0.00  0.00    -0.008 A 
ATOM     13  C   LIG A   1      -8.016  -1.667 128.764  0.00  0.00    +0.012 A 
ATOM     14  C   LIG A   1      -7.883  -2.594 129.803  0.00  0.00    +0.050 A 
ATOM     15  C   LIG A   1      -6.666  -3.222 129.949  0.00  0.00    +0.166 A 
ATOM     16  O   LIG A   1      -6.356  -4.143 130.900  0.00  0.00    -0.453 OA
ATOM     17  C   LIG A   1      -4.983  -4.431 130.562  0.00  0.00    +0.466 C 
ATOM     18  O   LIG A   1      -4.503  -3.685 129.425  0.00  0.00    -0.453 OA
ATOM     19  C   LIG A   1      -5.609  -2.959 129.109  0.00  0.00    +0.167 A 
ATOM     20  C   LIG A   1      -5.707  -2.051 128.076  0.00  0.00    +0.058 A 
ENDBRANCH  11  12
BRANCH   7  21
ATOM     21  O   LIG A   1      -6.331   3.529 123.979  0.00  0.00    -0.488 OA
ATOM     22  C   LIG A   1      -6.424   4.673 124.814  0.00  0.00    +0.277 C 
ENDBRANCH   7  21
BRANCH   6  23
ATOM     23  O   LIG A   1      -8.550   3.766 122.107  0.00  0.00    -0.484 OA
BRANCH  23  24
ATOM     24  C   LIG A   1      -8.722   3.380 120.733  0.00  0.00    +0.257 C 
BRANCH  24  25
ATOM     25  C   LIG A   1      -7.887   4.276 119.855  0.00  0.00    +0.012 C 
ATOM     26  C   LIG A   1      -6.543   4.375 119.803  0.00  0.00    -0.076 C 
ATOM     27  C   LIG A   1      -5.590   3.608 120.680  0.00  0.00    +0.038 C 
ATOM     28  C   LIG A   1      -5.856   5.309 118.832  0.00  0.00    +0.038 C 
ENDBRANCH  24  25
ENDBRANCH  23  24
ENDBRANCH   6  23
TORSDOF 5
ENDMDL
MODEL 9
REMARK VINA RESULT:      -7.2      6.127      7.332
REMARK  Name = NuBBE_2172
REMARK  8 active torsions:
REMARK  status: ('A' for Active; 'I' for Inactive)
REMARK    1  A    between atoms: C_6  and  O_7
REMARK    2  A    between atoms: O_7  and  C_8
REMARK    3  A    between atoms: C_8  and  C_9
REMARK    4  A    between atoms: C_10  and  C_11
REMARK    5  A    between atoms: C_10  and  C_12
REMARK    6  A    between atoms: C_13  and  O_14
REMARK    7  A    between atoms: O_14  and  C_15
REMARK    8  A    between atoms: C_19  and  C_20
REMARK                            x       y       z     vdW  Elec       q    Type
REMARK                         _______ _______ _______ _____ _____    ______ ____
ROOT
ATOM      1  O   LIG A   1      -9.337   2.884 128.760  0.00  0.00    -0.286 OA
ATOM      2  C   LIG A   1      -9.052   2.818 129.946  0.00  0.00    +0.200 A 
ATOM      3  C   LIG A   1      -8.396   1.618 130.499  0.00  0.00    +0.068 A 
ATOM      4  C   LIG A   1      -8.064   0.556 129.666  0.00  0.00    +0.019 A 
ATOM      5  C   LIG A   1      -7.419  -0.565 130.204  0.00  0.00    +0.050 A 
ATOM      6  C   LIG A   1      -7.108  -0.645 131.571  0.00  0.00    +0.166 A 
ATOM      7  C   LIG A   1      -7.428   0.452 132.401  0.00  0.00    +0.205 A 
ATOM      8  C   LIG A   1      -8.091   1.574 131.848  0.00  0.00    +0.183 A 
ATOM      9  O   LIG A   1      -8.407   2.613 132.702  0.00  0.00    -0.458 OA
ATOM     10  C   LIG A   1      -8.990   3.738 132.180  0.00  0.00    +0.208 A 
ATOM     11  C   LIG A   1      -9.328   3.926 130.887  0.00  0.00    +0.064 A 
ENDROOT
BRANCH  11  12
ATOM     12  C   LIG A   1      -9.926   5.185 130.436  0.00  0.00    -0.008 A 
ATOM     13  C   LIG A   1      -9.113   6.330 130.264  0.00  0.00    +0.012 A 
ATOM     14  C   LIG A   1      -9.667   7.547 129.854  0.00  0.00    +0.050 A 
ATOM     15  C   LIG A   1     -11.024   7.588 129.627  0.00  0.00    +0.166 A 
ATOM     16  O   LIG A   1     -11.731   8.680 129.231  0.00  0.00    -0.453 OA
ATOM     17  C   LIG A   1     -13.064   8.131 129.162  0.00  0.00    +0.466 C 
ATOM     18  O   LIG A   1     -13.128   6.733 129.515  0.00  0.00    -0.453 OA
ATOM     19  C   LIG A   1     -11.821   6.479 129.791  0.00  0.00    +0.167 A 
ATOM     20  C   LIG A   1     -11.306   5.264 130.194  0.00  0.00    +0.058 A 
ENDBRANCH  11  12
BRANCH   7  21
ATOM     21  O   LIG A   1      -7.244   0.528 133.758  0.00  0.00    -0.488 OA
ATOM     22  C   LIG A   1      -5.944   0.844 134.232  0.00  0.00    +0.277 C 
ENDBRANCH   7  21
BRANCH   6  23
ATOM     23  O   LIG A   1      -6.477  -1.747 132.108  0.00  0.00    -0.484 OA
BRANCH  23  24
ATOM     24  C   LIG A   1      -7.334  -2.825 132.520  0.00  0.00    +0.257 C 
BRANCH  24  25
ATOM     25  C   LIG A   1      -6.542  -3.803 133.348  0.00  0.00    +0.012 C 
ATOM     26  C   LIG A   1      -5.677  -4.748 132.923  0.00  0.00    -0.076 C 
ATOM     27  C   LIG A   1      -5.364  -5.039 131.481  0.00  0.00    +0.038 C 
ATOM     28  C   LIG A   1      -4.932  -5.632 133.897  0.00  0.00    +0.038 C 
ENDBRANCH  24  25
ENDBRANCH  23  24
ENDBRANCH   6  23
TORSDOF 5
ENDMDL
