MODEL 1
REMARK VINA RESULT:      -7.2      0.000      0.000
REMARK  Name = NuBBE_1236
REMARK  5 active torsions:
REMARK  status: ('A' for Active; 'I' for Inactive)
REMARK    1  A    between atoms: C_5  and  O_6
REMARK    2  A    between atoms: C_7  and  O_8
REMARK    3  A    between atoms: O_8  and  C_9
REMARK    4  A    between atoms: C_10  and  O_11
REMARK    5  A    between atoms: O_11  and  C_12
REMARK                            x       y       z     vdW  Elec       q    Type
REMARK                         _______ _______ _______ _____ _____    ______ ____
ROOT
ATOM      1  H   LIG A   1      -8.504   7.974 129.018  0.00  0.00    +0.166 HD
ATOM      2  N   LIG A   1      -9.180   7.720 129.728  0.00  0.00    -0.354 N 
ATOM      3  C   LIG A   1      -8.713   6.949 130.808  0.00  0.00    +0.058 A 
ATOM      4  C   LIG A   1      -9.614   6.291 131.660  0.00  0.00    +0.091 A 
ATOM      5  C   LIG A   1      -9.156   5.555 132.771  0.00  0.00    +0.175 A 
ATOM      6  C   LIG A   1      -7.781   5.485 133.044  0.00  0.00    +0.204 A 
ATOM      7  C   LIG A   1      -6.882   6.181 132.203  0.00  0.00    +0.167 A 
ATOM      8  C   LIG A   1      -7.348   6.901 131.097  0.00  0.00    +0.076 A 
ATOM      9  C   LIG A   1     -10.531   7.770 129.354  0.00  0.00    +0.051 A 
ATOM     10  C   LIG A   1     -10.943   8.517 128.248  0.00  0.00    +0.026 A 
ATOM     11  C   LIG A   1     -12.299   8.602 127.916  0.00  0.00    +0.002 A 
ATOM     12  C   LIG A   1     -13.256   7.953 128.698  0.00  0.00    +0.001 A 
ATOM     13  C   LIG A   1     -12.861   7.225 129.819  0.00  0.00    +0.014 A 
ATOM     14  C   LIG A   1     -11.504   7.144 130.146  0.00  0.00    +0.046 A 
ATOM     15  C   LIG A   1     -11.064   6.383 131.340  0.00  0.00    +0.201 A 
ATOM     16  O   LIG A   1     -11.885   5.822 132.063  0.00  0.00    -0.286 OA
ENDROOT
BRANCH   5  17
ATOM     17  O   LIG A   1     -10.057   4.910 133.584  0.00  0.00    -0.503 OA
ATOM     18  H   LIG A   1     -10.564   4.263 133.042  0.00  0.00    +0.292 HD
ENDBRANCH   5  17
BRANCH   6  19
ATOM     19  O   LIG A   1      -7.171   4.812 134.075  0.00  0.00    -0.488 OA
ATOM     20  C   LIG A   1      -7.260   5.326 135.394  0.00  0.00    +0.277 C 
ENDBRANCH   6  19
BRANCH   7  21
ATOM     21  O   LIG A   1      -5.543   6.066 132.503  0.00  0.00    -0.491 OA
ATOM     22  C   LIG A   1      -4.641   6.703 131.608  0.00  0.00    +0.277 C 
ENDBRANCH   7  21
TORSDOF 3
ENDMDL
MODEL 2
REMARK VINA RESULT:      -7.0      8.753      9.910
REMARK  Name = NuBBE_1236
REMARK  5 active torsions:
REMARK  status: ('A' for Active; 'I' for Inactive)
REMARK    1  A    between atoms: C_5  and  O_6
REMARK    2  A    between atoms: C_7  and  O_8
REMARK    3  A    between atoms: O_8  and  C_9
REMARK    4  A    between atoms: C_10  and  O_11
REMARK    5  A    between atoms: O_11  and  C_12
REMARK                            x       y       z     vdW  Elec       q    Type
REMARK                         _______ _______ _______ _____ _____    ______ ____
ROOT
ATOM      1  H   LIG A   1      -9.265   3.291 121.385  0.00  0.00    +0.166 HD
ATOM      2  N   LIG A   1      -8.272   3.344 121.579  0.00  0.00    -0.354 N 
ATOM      3  C   LIG A   1      -7.872   3.167 122.915  0.00  0.00    +0.058 A 
ATOM      4  C   LIG A   1      -6.580   3.529 123.329  0.00  0.00    +0.091 A 
ATOM      5  C   LIG A   1      -6.155   3.313 124.655  0.00  0.00    +0.175 A 
ATOM      6  C   LIG A   1      -7.026   2.713 125.579  0.00  0.00    +0.204 A 
ATOM      7  C   LIG A   1      -8.313   2.317 125.145  0.00  0.00    +0.167 A 
ATOM      8  C   LIG A   1      -8.726   2.546 123.828  0.00  0.00    +0.076 A 
ATOM      9  C   LIG A   1      -7.482   4.004 120.626  0.00  0.00    +0.051 A 
ATOM     10  C   LIG A   1      -7.939   4.193 119.320  0.00  0.00    +0.026 A 
ATOM     11  C   LIG A   1      -7.121   4.806 118.365  0.00  0.00    +0.002 A 
ATOM     12  C   LIG A   1      -5.833   5.221 118.706  0.00  0.00    +0.001 A 
ATOM     13  C   LIG A   1      -5.355   5.016 119.999  0.00  0.00    +0.014 A 
ATOM     14  C   LIG A   1      -6.177   4.402 120.948  0.00  0.00    +0.046 A 
ATOM     15  C   LIG A   1      -5.683   4.165 122.326  0.00  0.00    +0.201 A 
ATOM     16  O   LIG A   1      -4.544   4.496 122.650  0.00  0.00    -0.286 OA
ENDROOT
BRANCH   5  17
ATOM     17  O   LIG A   1      -4.890   3.687 125.040  0.00  0.00    -0.503 OA
ATOM     18  H   LIG A   1      -4.894   3.861 126.009  0.00  0.00    +0.292 HD
ENDBRANCH   5  17
BRANCH   6  19
ATOM     19  O   LIG A   1      -6.776   2.437 126.901  0.00  0.00    -0.488 OA
ATOM     20  C   LIG A   1      -6.802   3.489 127.852  0.00  0.00    +0.277 C 
ENDBRANCH   6  19
BRANCH   7  21
ATOM     21  O   LIG A   1      -9.135   1.751 126.093  0.00  0.00    -0.491 OA
ATOM     22  C   LIG A   1      -9.734   0.509 125.745  0.00  0.00    +0.277 C 
ENDBRANCH   7  21
TORSDOF 3
ENDMDL
MODEL 3
REMARK VINA RESULT:      -6.9      9.112      9.890
REMARK  Name = NuBBE_1236
REMARK  5 active torsions:
REMARK  status: ('A' for Active; 'I' for Inactive)
REMARK    1  A    between atoms: C_5  and  O_6
REMARK    2  A    between atoms: C_7  and  O_8
REMARK    3  A    between atoms: O_8  and  C_9
REMARK    4  A    between atoms: C_10  and  O_11
REMARK    5  A    between atoms: O_11  and  C_12
REMARK                            x       y       z     vdW  Elec       q    Type
REMARK                         _______ _______ _______ _____ _____    ______ ____
ROOT
ATOM      1  H   LIG A   1      -4.676   3.950 122.781  0.00  0.00    +0.166 HD
ATOM      2  N   LIG A   1      -5.662   3.922 122.551  0.00  0.00    -0.354 N 
ATOM      3  C   LIG A   1      -6.493   3.167 123.397  0.00  0.00    +0.058 A 
ATOM      4  C   LIG A   1      -7.791   2.811 122.994  0.00  0.00    +0.091 A 
ATOM      5  C   LIG A   1      -8.647   2.095 123.854  0.00  0.00    +0.175 A 
ATOM      6  C   LIG A   1      -8.208   1.740 125.140  0.00  0.00    +0.204 A 
ATOM      7  C   LIG A   1      -6.914   2.134 125.552  0.00  0.00    +0.167 A 
ATOM      8  C   LIG A   1      -6.069   2.837 124.685  0.00  0.00    +0.076 A 
ATOM      9  C   LIG A   1      -6.007   4.243 121.229  0.00  0.00    +0.051 A 
ATOM     10  C   LIG A   1      -5.130   4.960 120.412  0.00  0.00    +0.026 A 
ATOM     11  C   LIG A   1      -5.508   5.320 119.114  0.00  0.00    +0.002 A 
ATOM     12  C   LIG A   1      -6.771   4.979 118.629  0.00  0.00    +0.001 A 
ATOM     13  C   LIG A   1      -7.665   4.285 119.443  0.00  0.00    +0.014 A 
ATOM     14  C   LIG A   1      -7.282   3.929 120.740  0.00  0.00    +0.046 A 
ATOM     15  C   LIG A   1      -8.223   3.200 121.624  0.00  0.00    +0.201 A 
ATOM     16  O   LIG A   1      -9.351   2.908 121.235  0.00  0.00    -0.286 OA
ENDROOT
BRANCH   5  17
ATOM     17  O   LIG A   1      -9.908   1.748 123.433  0.00  0.00    -0.503 OA
ATOM     18  H   LIG A   1     -10.268   1.066 124.045  0.00  0.00    +0.292 HD
ENDBRANCH   5  17
BRANCH   6  19
ATOM     19  O   LIG A   1      -8.908   1.043 126.095  0.00  0.00    -0.488 OA
ATOM     20  C   LIG A   1      -9.030  -0.366 125.982  0.00  0.00    +0.277 C 
ENDBRANCH   6  19
BRANCH   7  21
ATOM     21  O   LIG A   1      -6.525   1.746 126.814  0.00  0.00    -0.491 OA
ATOM     22  C   LIG A   1      -5.406   0.872 126.887  0.00  0.00    +0.277 C 
ENDBRANCH   7  21
TORSDOF 3
ENDMDL
MODEL 4
REMARK VINA RESULT:      -6.8      2.770      6.492
REMARK  Name = NuBBE_1236
REMARK  5 active torsions:
REMARK  status: ('A' for Active; 'I' for Inactive)
REMARK    1  A    between atoms: C_5  and  O_6
REMARK    2  A    between atoms: C_7  and  O_8
REMARK    3  A    between atoms: O_8  and  C_9
REMARK    4  A    between atoms: C_10  and  O_11
REMARK    5  A    between atoms: O_11  and  C_12
REMARK                            x       y       z     vdW  Elec       q    Type
REMARK                         _______ _______ _______ _____ _____    ______ ____
ROOT
ATOM      1  H   LIG A   1     -11.202   5.744 133.021  0.00  0.00    +0.166 HD
ATOM      2  N   LIG A   1     -10.472   5.691 132.321  0.00  0.00    -0.354 N 
ATOM      3  C   LIG A   1     -10.771   6.206 131.047  0.00  0.00    +0.058 A 
ATOM      4  C   LIG A   1      -9.959   5.900 129.943  0.00  0.00    +0.091 A 
ATOM      5  C   LIG A   1     -10.224   6.449 128.673  0.00  0.00    +0.175 A 
ATOM      6  C   LIG A   1     -11.307   7.327 128.503  0.00  0.00    +0.204 A 
ATOM      7  C   LIG A   1     -12.098   7.660 129.628  0.00  0.00    +0.167 A 
ATOM      8  C   LIG A   1     -11.830   7.101 130.882  0.00  0.00    +0.076 A 
ATOM      9  C   LIG A   1      -9.455   4.751 132.545  0.00  0.00    +0.051 A 
ATOM     10  C   LIG A   1      -9.222   4.236 133.823  0.00  0.00    +0.026 A 
ATOM     11  C   LIG A   1      -8.171   3.339 134.043  0.00  0.00    +0.002 A 
ATOM     12  C   LIG A   1      -7.335   2.963 132.991  0.00  0.00    +0.001 A 
ATOM     13  C   LIG A   1      -7.542   3.489 131.717  0.00  0.00    +0.014 A 
ATOM     14  C   LIG A   1      -8.593   4.386 131.502  0.00  0.00    +0.046 A 
ATOM     15  C   LIG A   1      -8.822   4.964 130.157  0.00  0.00    +0.201 A 
ATOM     16  O   LIG A   1      -8.088   4.672 129.215  0.00  0.00    -0.286 OA
ENDROOT
BRANCH   5  17
ATOM     17  O   LIG A   1      -9.423   6.125 127.605  0.00  0.00    -0.503 OA
ATOM     18  H   LIG A   1      -9.306   6.926 127.044  0.00  0.00    +0.292 HD
ENDBRANCH   5  17
BRANCH   6  19
ATOM     19  O   LIG A   1     -11.705   7.943 127.341  0.00  0.00    -0.488 OA
ATOM     20  C   LIG A   1     -12.381   7.189 126.348  0.00  0.00    +0.277 C 
ENDBRANCH   6  19
BRANCH   7  21
ATOM     21  O   LIG A   1     -13.157   8.510 129.405  0.00  0.00    -0.491 OA
ATOM     22  C   LIG A   1     -13.035   9.822 129.940  0.00  0.00    +0.277 C 
ENDBRANCH   7  21
TORSDOF 3
ENDMDL
MODEL 5
REMARK VINA RESULT:      -6.6      9.047     10.231
REMARK  Name = NuBBE_1236
REMARK  5 active torsions:
REMARK  status: ('A' for Active; 'I' for Inactive)
REMARK    1  A    between atoms: C_5  and  O_6
REMARK    2  A    between atoms: C_7  and  O_8
REMARK    3  A    between atoms: O_8  and  C_9
REMARK    4  A    between atoms: C_10  and  O_11
REMARK    5  A    between atoms: O_11  and  C_12
REMARK                            x       y       z     vdW  Elec       q    Type
REMARK                         _______ _______ _______ _____ _____    ______ ____
ROOT
ATOM      1  H   LIG A   1      -7.790   0.586 128.329  0.00  0.00    +0.166 HD
ATOM      2  N   LIG A   1      -7.929   0.053 127.479  0.00  0.00    -0.354 N 
ATOM      3  C   LIG A   1      -8.289   0.773 126.326  0.00  0.00    +0.058 A 
ATOM      4  C   LIG A   1      -8.804   0.111 125.200  0.00  0.00    +0.091 A 
ATOM      5  C   LIG A   1      -9.123   0.819 124.025  0.00  0.00    +0.175 A 
ATOM      6  C   LIG A   1      -8.914   2.206 123.966  0.00  0.00    +0.204 A 
ATOM      7  C   LIG A   1      -8.360   2.861 125.091  0.00  0.00    +0.167 A 
ATOM      8  C   LIG A   1      -8.056   2.148 126.256  0.00  0.00    +0.076 A 
ATOM      9  C   LIG A   1      -8.183  -1.318 127.633  0.00  0.00    +0.051 A 
ATOM     10  C   LIG A   1      -7.845  -1.984 128.814  0.00  0.00    +0.026 A 
ATOM     11  C   LIG A   1      -8.054  -3.361 128.934  0.00  0.00    +0.002 A 
ATOM     12  C   LIG A   1      -8.588  -4.087 127.869  0.00  0.00    +0.001 A 
ATOM     13  C   LIG A   1      -8.906  -3.440 126.677  0.00  0.00    +0.014 A 
ATOM     14  C   LIG A   1      -8.694  -2.063 126.561  0.00  0.00    +0.046 A 
ATOM     15  C   LIG A   1      -9.017  -1.359 125.297  0.00  0.00    +0.201 A 
ATOM     16  O   LIG A   1      -9.465  -1.975 124.332  0.00  0.00    -0.286 OA
ENDROOT
BRANCH   5  17
ATOM     17  O   LIG A   1      -9.637   0.151 122.939  0.00  0.00    -0.503 OA
ATOM     18  H   LIG A   1     -10.317   0.719 122.511  0.00  0.00    +0.292 HD
ENDBRANCH   5  17
BRANCH   6  19
ATOM     19  O   LIG A   1      -9.174   3.043 122.908  0.00  0.00    -0.488 OA
ATOM     20  C   LIG A   1      -8.221   3.165 121.864  0.00  0.00    +0.277 C 
ENDBRANCH   6  19
BRANCH   7  21
ATOM     21  O   LIG A   1      -8.191   4.223 124.989  0.00  0.00    -0.491 OA
ATOM     22  C   LIG A   1      -6.885   4.717 125.254  0.00  0.00    +0.277 C 
ENDBRANCH   7  21
TORSDOF 3
ENDMDL
MODEL 6
REMARK VINA RESULT:      -6.6      3.384      4.235
REMARK  Name = NuBBE_1236
REMARK  5 active torsions:
REMARK  status: ('A' for Active; 'I' for Inactive)
REMARK    1  A    between atoms: C_5  and  O_6
REMARK    2  A    between atoms: C_7  and  O_8
REMARK    3  A    between atoms: O_8  and  C_9
REMARK    4  A    between atoms: C_10  and  O_11
REMARK    5  A    between atoms: O_11  and  C_12
REMARK                            x       y       z     vdW  Elec       q    Type
REMARK                         _______ _______ _______ _____ _____    ______ ____
ROOT
ATOM      1  H   LIG A   1     -11.409   5.601 132.433  0.00  0.00    +0.166 HD
ATOM      2  N   LIG A   1     -11.232   5.692 131.440  0.00  0.00    -0.354 N 
ATOM      3  C   LIG A   1     -10.198   4.906 130.901  0.00  0.00    +0.058 A 
ATOM      4  C   LIG A   1      -9.675   5.186 129.629  0.00  0.00    +0.091 A 
ATOM      5  C   LIG A   1      -8.671   4.375 129.062  0.00  0.00    +0.175 A 
ATOM      6  C   LIG A   1      -8.192   3.261 129.769  0.00  0.00    +0.204 A 
ATOM      7  C   LIG A   1      -8.750   2.963 131.034  0.00  0.00    +0.167 A 
ATOM      8  C   LIG A   1      -9.740   3.781 131.590  0.00  0.00    +0.076 A 
ATOM      9  C   LIG A   1     -11.703   6.861 130.824  0.00  0.00    +0.051 A 
ATOM     10  C   LIG A   1     -12.704   7.633 131.418  0.00  0.00    +0.026 A 
ATOM     11  C   LIG A   1     -13.202   8.767 130.768  0.00  0.00    +0.002 A 
ATOM     12  C   LIG A   1     -12.714   9.130 129.512  0.00  0.00    +0.001 A 
ATOM     13  C   LIG A   1     -11.733   8.354 128.897  0.00  0.00    +0.014 A 
ATOM     14  C   LIG A   1     -11.239   7.220 129.551  0.00  0.00    +0.046 A 
ATOM     15  C   LIG A   1     -10.203   6.376 128.909  0.00  0.00    +0.201 A 
ATOM     16  O   LIG A   1      -9.771   6.655 127.792  0.00  0.00    -0.286 OA
ENDROOT
BRANCH   5  17
ATOM     17  O   LIG A   1      -8.166   4.677 127.820  0.00  0.00    -0.503 OA
ATOM     18  H   LIG A   1      -7.969   3.837 127.348  0.00  0.00    +0.292 HD
ENDBRANCH   5  17
BRANCH   6  19
ATOM     19  O   LIG A   1      -7.221   2.376 129.367  0.00  0.00    -0.488 OA
ATOM     20  C   LIG A   1      -7.541   1.371 128.418  0.00  0.00    +0.277 C 
ENDBRANCH   6  19
BRANCH   7  21
ATOM     21  O   LIG A   1      -8.233   1.871 131.693  0.00  0.00    -0.491 OA
ATOM     22  C   LIG A   1      -9.107   0.761 131.853  0.00  0.00    +0.277 C 
ENDBRANCH   7  21
TORSDOF 3
ENDMDL
MODEL 7
REMARK VINA RESULT:      -6.5      2.221      3.258
REMARK  Name = NuBBE_1236
REMARK  5 active torsions:
REMARK  status: ('A' for Active; 'I' for Inactive)
REMARK    1  A    between atoms: C_5  and  O_6
REMARK    2  A    between atoms: C_7  and  O_8
REMARK    3  A    between atoms: O_8  and  C_9
REMARK    4  A    between atoms: C_10  and  O_11
REMARK    5  A    between atoms: O_11  and  C_12
REMARK                            x       y       z     vdW  Elec       q    Type
REMARK                         _______ _______ _______ _____ _____    ______ ____
ROOT
ATOM      1  H   LIG A   1     -12.322   4.632 130.388  0.00  0.00    +0.166 HD
ATOM      2  N   LIG A   1     -11.589   5.251 130.062  0.00  0.00    -0.354 N 
ATOM      3  C   LIG A   1     -10.319   5.100 130.647  0.00  0.00    +0.058 A 
ATOM      4  C   LIG A   1      -9.339   6.095 130.497  0.00  0.00    +0.091 A 
ATOM      5  C   LIG A   1      -8.049   5.930 131.041  0.00  0.00    +0.175 A 
ATOM      6  C   LIG A   1      -7.727   4.751 131.731  0.00  0.00    +0.204 A 
ATOM      7  C   LIG A   1      -8.707   3.737 131.845  0.00  0.00    +0.167 A 
ATOM      8  C   LIG A   1      -9.987   3.916 131.309  0.00  0.00    +0.076 A 
ATOM      9  C   LIG A   1     -12.001   6.432 129.427  0.00  0.00    +0.051 A 
ATOM     10  C   LIG A   1     -13.288   6.551 128.897  0.00  0.00    +0.026 A 
ATOM     11  C   LIG A   1     -13.670   7.714 128.220  0.00  0.00    +0.002 A 
ATOM     12  C   LIG A   1     -12.762   8.761 128.054  0.00  0.00    +0.001 A 
ATOM     13  C   LIG A   1     -11.467   8.645 128.556  0.00  0.00    +0.014 A 
ATOM     14  C   LIG A   1     -11.091   7.480 129.231  0.00  0.00    +0.046 A 
ATOM     15  C   LIG A   1      -9.715   7.333 129.763  0.00  0.00    +0.201 A 
ATOM     16  O   LIG A   1      -8.885   8.227 129.611  0.00  0.00    -0.286 OA
ENDROOT
BRANCH   5  17
ATOM     17  O   LIG A   1      -7.111   6.923 130.892  0.00  0.00    -0.503 OA
ATOM     18  H   LIG A   1      -7.330   7.658 131.509  0.00  0.00    +0.292 HD
ENDBRANCH   5  17
BRANCH   6  19
ATOM     19  O   LIG A   1      -6.528   4.434 132.321  0.00  0.00    -0.488 OA
ATOM     20  C   LIG A   1      -5.432   4.043 131.511  0.00  0.00    +0.277 C 
ENDBRANCH   6  19
BRANCH   7  21
ATOM     21  O   LIG A   1      -8.347   2.609 132.546  0.00  0.00    -0.491 OA
ATOM     22  C   LIG A   1      -8.923   1.385 132.107  0.00  0.00    +0.277 C 
ENDBRANCH   7  21
TORSDOF 3
ENDMDL
MODEL 8
REMARK VINA RESULT:      -6.4      2.175      2.304
REMARK  Name = NuBBE_1236
REMARK  5 active torsions:
REMARK  status: ('A' for Active; 'I' for Inactive)
REMARK    1  A    between atoms: C_5  and  O_6
REMARK    2  A    between atoms: C_7  and  O_8
REMARK    3  A    between atoms: O_8  and  C_9
REMARK    4  A    between atoms: C_10  and  O_11
REMARK    5  A    between atoms: O_11  and  C_12
REMARK                            x       y       z     vdW  Elec       q    Type
REMARK                         _______ _______ _______ _____ _____    ______ ____
ROOT
ATOM      1  H   LIG A   1      -9.365   5.745 127.960  0.00  0.00    +0.166 HD
ATOM      2  N   LIG A   1      -9.640   6.021 128.895  0.00  0.00    -0.354 N 
ATOM      3  C   LIG A   1      -9.247   5.179 129.950  0.00  0.00    +0.058 A 
ATOM      4  C   LIG A   1      -9.835   5.300 131.220  0.00  0.00    +0.091 A 
ATOM      5  C   LIG A   1      -9.414   4.492 132.294  0.00  0.00    +0.175 A 
ATOM      6  C   LIG A   1      -8.382   3.560 132.105  0.00  0.00    +0.204 A 
ATOM      7  C   LIG A   1      -7.768   3.469 130.834  0.00  0.00    +0.167 A 
ATOM      8  C   LIG A   1      -8.202   4.271 129.772  0.00  0.00    +0.076 A 
ATOM      9  C   LIG A   1     -10.714   6.918 128.994  0.00  0.00    +0.051 A 
ATOM     10  C   LIG A   1     -11.096   7.705 127.904  0.00  0.00    +0.026 A 
ATOM     11  C   LIG A   1     -12.134   8.633 128.031  0.00  0.00    +0.002 A 
ATOM     12  C   LIG A   1     -12.788   8.794 129.253  0.00  0.00    +0.001 A 
ATOM     13  C   LIG A   1     -12.401   8.033 130.355  0.00  0.00    +0.014 A 
ATOM     14  C   LIG A   1     -11.362   7.107 130.222  0.00  0.00    +0.046 A 
ATOM     15  C   LIG A   1     -10.928   6.296 131.385  0.00  0.00    +0.201 A 
ATOM     16  O   LIG A   1     -11.468   6.432 132.481  0.00  0.00    -0.286 OA
ENDROOT
BRANCH   5  17
ATOM     17  O   LIG A   1     -10.013   4.620 133.525  0.00  0.00    -0.503 OA
ATOM     18  H   LIG A   1     -10.974   4.788 133.391  0.00  0.00    +0.292 HD
ENDBRANCH   5  17
BRANCH   6  19
ATOM     19  O   LIG A   1      -7.858   2.698 133.038  0.00  0.00    -0.488 OA
ATOM     20  C   LIG A   1      -6.978   3.196 134.032  0.00  0.00    +0.277 C 
ENDBRANCH   6  19
BRANCH   7  21
ATOM     21  O   LIG A   1      -6.774   2.527 130.695  0.00  0.00    -0.491 OA
ATOM     22  C   LIG A   1      -7.030   1.473 129.777  0.00  0.00    +0.277 C 
ENDBRANCH   7  21
TORSDOF 3
ENDMDL
MODEL 9
REMARK VINA RESULT:      -6.3      9.082      9.659
REMARK  Name = NuBBE_1236
REMARK  5 active torsions:
REMARK  status: ('A' for Active; 'I' for Inactive)
REMARK    1  A    between atoms: C_5  and  O_6
REMARK    2  A    between atoms: C_7  and  O_8
REMARK    3  A    between atoms: O_8  and  C_9
REMARK    4  A    between atoms: C_10  and  O_11
REMARK    5  A    between atoms: O_11  and  C_12
REMARK                            x       y       z     vdW  Elec       q    Type
REMARK                         _______ _______ _______ _____ _____    ______ ____
ROOT
ATOM      1  H   LIG A   1      -7.424   0.006 122.247  0.00  0.00    +0.166 HD
ATOM      2  N   LIG A   1      -7.776   0.141 123.187  0.00  0.00    -0.354 N 
ATOM      3  C   LIG A   1      -7.316   1.273 123.884  0.00  0.00    +0.058 A 
ATOM      4  C   LIG A   1      -7.492   1.378 125.273  0.00  0.00    +0.091 A 
ATOM      5  C   LIG A   1      -7.076   2.529 125.972  0.00  0.00    +0.175 A 
ATOM      6  C   LIG A   1      -6.489   3.596 125.274  0.00  0.00    +0.204 A 
ATOM      7  C   LIG A   1      -6.350   3.499 123.870  0.00  0.00    +0.167 A 
ATOM      8  C   LIG A   1      -6.758   2.347 123.189  0.00  0.00    +0.076 A 
ATOM      9  C   LIG A   1      -8.300  -0.990 123.830  0.00  0.00    +0.051 A 
ATOM     10  C   LIG A   1      -8.706  -2.109 123.098  0.00  0.00    +0.026 A 
ATOM     11  C   LIG A   1      -9.275  -3.210 123.745  0.00  0.00    +0.002 A 
ATOM     12  C   LIG A   1      -9.459  -3.195 125.129  0.00  0.00    +0.001 A 
ATOM     13  C   LIG A   1      -9.081  -2.075 125.868  0.00  0.00    +0.014 A 
ATOM     14  C   LIG A   1      -8.513  -0.977 125.215  0.00  0.00    +0.046 A 
ATOM     15  C   LIG A   1      -8.115   0.228 125.982  0.00  0.00    +0.201 A 
ATOM     16  O   LIG A   1      -8.286   0.281 127.198  0.00  0.00    -0.286 OA
ENDROOT
BRANCH   5  17
ATOM     17  O   LIG A   1      -7.248   2.603 127.334  0.00  0.00    -0.503 OA
ATOM     18  H   LIG A   1      -7.119   1.706 127.717  0.00  0.00    +0.292 HD
ENDBRANCH   5  17
BRANCH   6  19
ATOM     19  O   LIG A   1      -6.027   4.779 125.798  0.00  0.00    -0.488 OA
ATOM     20  C   LIG A   1      -4.837   4.784 126.569  0.00  0.00    +0.277 C 
ENDBRANCH   6  19
BRANCH   7  21
ATOM     21  O   LIG A   1      -5.752   4.564 123.235  0.00  0.00    -0.491 OA
ATOM     22  C   LIG A   1      -5.263   4.320 121.923  0.00  0.00    +0.277 C 
ENDBRANCH   7  21
TORSDOF 3
ENDMDL
