MODEL 1
REMARK VINA RESULT:      -6.3      0.000      0.000
REMARK  Name = NuBBE_2181
REMARK  14 active torsions:
REMARK  status: ('A' for Active; 'I' for Inactive)
REMARK    1  A    between atoms: C_1  and  C_3
REMARK    2  A    between atoms: C_1  and  C_14
REMARK    3  A    between atoms: C_1  and  C_15
REMARK    4  A    between atoms: C_3  and  C_4
REMARK    5  A    between atoms: C_6  and  O_7
REMARK    6  A    between atoms: O_7  and  C_8
REMARK    7  A    between atoms: C_9  and  O_12
REMARK    8  A    between atoms: O_12  and  C_13
REMARK    9  A    between atoms: C_15  and  O_16
REMARK   10  A    between atoms: O_16  and  C_17
REMARK   11  A    between atoms: C_18  and  O_27
REMARK   12  A    between atoms: C_22  and  C_24
REMARK   13  A    between atoms: C_24  and  C_25
REMARK   14  A    between atoms: O_27  and  C_28
REMARK                            x       y       z     vdW  Elec       q    Type
REMARK                         _______ _______ _______ _____ _____    ______ ____
ROOT
ATOM      1  C   LIG A   1      -8.670  -0.987 124.290  0.00  0.00    +0.147 C 
ATOM      2  C   LIG A   1      -7.335  -0.640 123.615  0.00  0.00    +0.137 C 
ATOM      3  C   LIG A   1      -6.538   0.349 124.063  0.00  0.00    +0.095 C 
ATOM      4  C   LIG A   1      -6.907   1.180 125.227  0.00  0.00    +0.185 C 
ATOM      5  O   LIG A   1      -6.152   2.088 125.588  0.00  0.00    -0.287 OA
ATOM      6  C   LIG A   1      -8.190   0.904 125.918  0.00  0.00    +0.002 C 
ATOM      7  C   LIG A   1      -8.981  -0.086 125.467  0.00  0.00    +0.023 C 
ENDROOT
BRANCH   1   8
ATOM      8  C   LIG A   1      -8.642  -2.497 124.751  0.00  0.00    +0.034 C 
ATOM      9  C   LIG A   1      -9.512  -3.402 123.853  0.00  0.00    +0.011 C 
BRANCH   8  10
ATOM     10  C   LIG A   1      -9.019  -2.651 126.246  0.00  0.00    +0.042 C 
BRANCH  10  11
ATOM     11  C   LIG A   1      -7.839  -2.703 127.185  0.00  0.00    -0.043 A 
ATOM     12  C   LIG A   1      -8.012  -3.078 128.526  0.00  0.00    +0.053 A 
ATOM     13  C   LIG A   1      -6.933  -3.093 129.418  0.00  0.00    +0.162 A 
ATOM     14  C   LIG A   1      -5.649  -2.760 128.946  0.00  0.00    +0.162 A 
ATOM     15  C   LIG A   1      -5.478  -2.420 127.598  0.00  0.00    +0.050 A 
ATOM     16  C   LIG A   1      -6.563  -2.382 126.727  0.00  0.00    +0.007 A 
BRANCH  13  17
ATOM     17  O   LIG A   1      -7.063  -3.423 130.745  0.00  0.00    -0.491 OA
ATOM     18  C   LIG A   1      -7.460  -2.376 131.628  0.00  0.00    +0.277 C 
ENDBRANCH  13  17
BRANCH  14  19
ATOM     19  O   LIG A   1      -4.601  -2.794 129.837  0.00  0.00    -0.491 OA
ATOM     20  C   LIG A   1      -3.407  -3.395 129.337  0.00  0.00    +0.277 C 
ENDBRANCH  14  19
ENDBRANCH  10  11
ENDBRANCH   8  10
ENDBRANCH   1   8
BRANCH   1  21
ATOM     21  O   LIG A   1      -9.735  -0.875 123.322  0.00  0.00    -0.364 OA
ATOM     22  C   LIG A   1      -9.988   0.427 122.806  0.00  0.00    +0.195 C 
ENDBRANCH   1  21
BRANCH   2  23
ATOM     23  O   LIG A   1      -7.066  -1.418 122.502  0.00  0.00    -0.496 OA
ATOM     24  C   LIG A   1      -5.859  -2.170 122.496  0.00  0.00    +0.277 C 
ENDBRANCH   2  23
BRANCH   6  25
ATOM     25  C   LIG A   1      -8.537   1.759 127.105  0.00  0.00    +0.065 C 
BRANCH  25  26
ATOM     26  C   LIG A   1      -8.297   1.032 128.398  0.00  0.00    -0.030 C 
ATOM     27  C   LIG A   1      -7.083   0.729 128.876  0.00  0.00    +0.004 C 
ENDBRANCH  25  26
ENDBRANCH   6  25
TORSDOF 9
ENDMDL
MODEL 2
REMARK VINA RESULT:      -6.2      1.601      4.186
REMARK  Name = NuBBE_2181
REMARK  14 active torsions:
REMARK  status: ('A' for Active; 'I' for Inactive)
REMARK    1  A    between atoms: C_1  and  C_3
REMARK    2  A    between atoms: C_1  and  C_14
REMARK    3  A    between atoms: C_1  and  C_15
REMARK    4  A    between atoms: C_3  and  C_4
REMARK    5  A    between atoms: C_6  and  O_7
REMARK    6  A    between atoms: O_7  and  C_8
REMARK    7  A    between atoms: C_9  and  O_12
REMARK    8  A    between atoms: O_12  and  C_13
REMARK    9  A    between atoms: C_15  and  O_16
REMARK   10  A    between atoms: O_16  and  C_17
REMARK   11  A    between atoms: C_18  and  O_27
REMARK   12  A    between atoms: C_22  and  C_24
REMARK   13  A    between atoms: C_24  and  C_25
REMARK   14  A    between atoms: O_27  and  C_28
REMARK                            x       y       z     vdW  Elec       q    Type
REMARK                         _______ _______ _______ _____ _____    ______ ____
ROOT
ATOM      1  C   LIG A   1      -7.763  -0.272 125.405  0.00  0.00    +0.147 C 
ATOM      2  C   LIG A   1      -8.953  -0.341 124.438  0.00  0.00    +0.137 C 
ATOM      3  C   LIG A   1      -8.903  -1.036 123.285  0.00  0.00    +0.095 C 
ATOM      4  C   LIG A   1      -7.690  -1.765 122.866  0.00  0.00    +0.185 C 
ATOM      5  O   LIG A   1      -7.687  -2.372 121.791  0.00  0.00    -0.287 OA
ATOM      6  C   LIG A   1      -6.500  -1.730 123.751  0.00  0.00    +0.002 C 
ATOM      7  C   LIG A   1      -6.556  -1.036 124.902  0.00  0.00    +0.023 C 
ENDROOT
BRANCH   1   8
ATOM      8  C   LIG A   1      -8.208  -0.825 126.817  0.00  0.00    +0.034 C 
ATOM      9  C   LIG A   1      -7.666   0.032 127.980  0.00  0.00    +0.011 C 
BRANCH   8  10
ATOM     10  C   LIG A   1      -7.841  -2.319 126.993  0.00  0.00    +0.042 C 
BRANCH  10  11
ATOM     11  C   LIG A   1      -7.120  -2.638 128.279  0.00  0.00    -0.043 A 
ATOM     12  C   LIG A   1      -5.724  -2.517 128.363  0.00  0.00    +0.053 A 
ATOM     13  C   LIG A   1      -5.039  -2.847 129.538  0.00  0.00    +0.162 A 
ATOM     14  C   LIG A   1      -5.771  -3.273 130.662  0.00  0.00    +0.162 A 
ATOM     15  C   LIG A   1      -7.167  -3.359 130.583  0.00  0.00    +0.050 A 
ATOM     16  C   LIG A   1      -7.835  -3.055 129.400  0.00  0.00    +0.007 A 
BRANCH  13  17
ATOM     17  O   LIG A   1      -3.673  -2.772 129.654  0.00  0.00    -0.491 OA
ATOM     18  C   LIG A   1      -2.921  -3.811 129.027  0.00  0.00    +0.277 C 
ENDBRANCH  13  17
BRANCH  14  19
ATOM     19  O   LIG A   1      -5.078  -3.580 131.811  0.00  0.00    -0.491 OA
ATOM     20  C   LIG A   1      -5.100  -4.959 132.176  0.00  0.00    +0.277 C 
ENDBRANCH  14  19
ENDBRANCH  10  11
ENDBRANCH   8  10
ENDBRANCH   1   8
BRANCH   1  21
ATOM     21  O   LIG A   1      -7.392   1.108 125.605  0.00  0.00    -0.364 OA
ATOM     22  C   LIG A   1      -6.544   1.686 124.619  0.00  0.00    +0.195 C 
ENDBRANCH   1  21
BRANCH   2  23
ATOM     23  O   LIG A   1     -10.043   0.401 124.858  0.00  0.00    -0.496 OA
ATOM     24  C   LIG A   1     -10.455   1.491 124.044  0.00  0.00    +0.277 C 
ENDBRANCH   2  23
BRANCH   6  25
ATOM     25  C   LIG A   1      -5.279  -2.488 123.306  0.00  0.00    +0.065 C 
BRANCH  25  26
ATOM     26  C   LIG A   1      -5.182  -3.825 123.984  0.00  0.00    -0.030 C 
ATOM     27  C   LIG A   1      -4.343  -4.799 123.609  0.00  0.00    +0.004 C 
ENDBRANCH  25  26
ENDBRANCH   6  25
TORSDOF 9
ENDMDL
MODEL 3
REMARK VINA RESULT:      -6.1      3.455      6.227
REMARK  Name = NuBBE_2181
REMARK  14 active torsions:
REMARK  status: ('A' for Active; 'I' for Inactive)
REMARK    1  A    between atoms: C_1  and  C_3
REMARK    2  A    between atoms: C_1  and  C_14
REMARK    3  A    between atoms: C_1  and  C_15
REMARK    4  A    between atoms: C_3  and  C_4
REMARK    5  A    between atoms: C_6  and  O_7
REMARK    6  A    between atoms: O_7  and  C_8
REMARK    7  A    between atoms: C_9  and  O_12
REMARK    8  A    between atoms: O_12  and  C_13
REMARK    9  A    between atoms: C_15  and  O_16
REMARK   10  A    between atoms: O_16  and  C_17
REMARK   11  A    between atoms: C_18  and  O_27
REMARK   12  A    between atoms: C_22  and  C_24
REMARK   13  A    between atoms: C_24  and  C_25
REMARK   14  A    between atoms: O_27  and  C_28
REMARK                            x       y       z     vdW  Elec       q    Type
REMARK                         _______ _______ _______ _____ _____    ______ ____
ROOT
ATOM      1  C   LIG A   1      -7.757   1.298 124.660  0.00  0.00    +0.147 C 
ATOM      2  C   LIG A   1      -8.367   0.725 125.946  0.00  0.00    +0.137 C 
ATOM      3  C   LIG A   1      -8.324  -0.589 126.240  0.00  0.00    +0.095 C 
ATOM      4  C   LIG A   1      -7.700  -1.571 125.330  0.00  0.00    +0.185 C 
ATOM      5  O   LIG A   1      -7.702  -2.767 125.634  0.00  0.00    -0.287 OA
ATOM      6  C   LIG A   1      -7.101  -1.083 124.064  0.00  0.00    +0.002 C 
ATOM      7  C   LIG A   1      -7.146   0.230 123.777  0.00  0.00    +0.023 C 
ENDROOT
BRANCH   1   8
ATOM      8  C   LIG A   1      -6.671   2.381 125.037  0.00  0.00    +0.034 C 
ATOM      9  C   LIG A   1      -6.175   3.169 123.806  0.00  0.00    +0.011 C 
BRANCH   8  10
ATOM     10  C   LIG A   1      -5.491   1.763 125.829  0.00  0.00    +0.042 C 
BRANCH  10  11
ATOM     11  C   LIG A   1      -4.699   2.755 126.645  0.00  0.00    -0.043 A 
ATOM     12  C   LIG A   1      -5.352   3.672 127.482  0.00  0.00    +0.053 A 
ATOM     13  C   LIG A   1      -4.631   4.623 128.214  0.00  0.00    +0.162 A 
ATOM     14  C   LIG A   1      -3.226   4.630 128.133  0.00  0.00    +0.162 A 
ATOM     15  C   LIG A   1      -2.579   3.688 127.323  0.00  0.00    +0.050 A 
ATOM     16  C   LIG A   1      -3.307   2.765 126.577  0.00  0.00    +0.007 A 
BRANCH  13  17
ATOM     17  O   LIG A   1      -5.231   5.558 129.021  0.00  0.00    -0.491 OA
ATOM     18  C   LIG A   1      -5.854   5.072 130.209  0.00  0.00    +0.277 C 
ENDBRANCH  13  17
BRANCH  14  19
ATOM     19  O   LIG A   1      -2.537   5.564 128.872  0.00  0.00    -0.491 OA
ATOM     20  C   LIG A   1      -2.258   6.784 128.187  0.00  0.00    +0.277 C 
ENDBRANCH  14  19
ENDBRANCH  10  11
ENDBRANCH   8  10
ENDBRANCH   1   8
BRANCH   1  21
ATOM     21  O   LIG A   1      -8.781   1.989 123.914  0.00  0.00    -0.364 OA
ATOM     22  C   LIG A   1      -9.705   1.175 123.201  0.00  0.00    +0.195 C 
ENDBRANCH   1  21
BRANCH   2  23
ATOM     23  O   LIG A   1      -8.981   1.683 126.735  0.00  0.00    -0.496 OA
ATOM     24  C   LIG A   1      -8.585   1.771 128.097  0.00  0.00    +0.277 C 
ENDBRANCH   2  23
BRANCH   6  25
ATOM     25  C   LIG A   1      -6.464  -2.102 123.159  0.00  0.00    +0.065 C 
BRANCH  25  26
ATOM     26  C   LIG A   1      -5.122  -2.537 123.676  0.00  0.00    -0.030 C 
ATOM     27  C   LIG A   1      -4.729  -3.815 123.768  0.00  0.00    +0.004 C 
ENDBRANCH  25  26
ENDBRANCH   6  25
TORSDOF 9
ENDMDL
MODEL 4
REMARK VINA RESULT:      -6.1      1.704      4.327
REMARK  Name = NuBBE_2181
REMARK  14 active torsions:
REMARK  status: ('A' for Active; 'I' for Inactive)
REMARK    1  A    between atoms: C_1  and  C_3
REMARK    2  A    between atoms: C_1  and  C_14
REMARK    3  A    between atoms: C_1  and  C_15
REMARK    4  A    between atoms: C_3  and  C_4
REMARK    5  A    between atoms: C_6  and  O_7
REMARK    6  A    between atoms: O_7  and  C_8
REMARK    7  A    between atoms: C_9  and  O_12
REMARK    8  A    between atoms: O_12  and  C_13
REMARK    9  A    between atoms: C_15  and  O_16
REMARK   10  A    between atoms: O_16  and  C_17
REMARK   11  A    between atoms: C_18  and  O_27
REMARK   12  A    between atoms: C_22  and  C_24
REMARK   13  A    between atoms: C_24  and  C_25
REMARK   14  A    between atoms: O_27  and  C_28
REMARK                            x       y       z     vdW  Elec       q    Type
REMARK                         _______ _______ _______ _____ _____    ______ ____
ROOT
ATOM      1  C   LIG A   1      -7.452   1.448 124.941  0.00  0.00    +0.147 C 
ATOM      2  C   LIG A   1      -8.583   1.041 125.896  0.00  0.00    +0.137 C 
ATOM      3  C   LIG A   1      -9.203  -0.151 125.809  0.00  0.00    +0.095 C 
ATOM      4  C   LIG A   1      -8.846  -1.143 124.775  0.00  0.00    +0.185 C 
ATOM      5  O   LIG A   1      -9.457  -2.215 124.724  0.00  0.00    -0.287 OA
ATOM      6  C   LIG A   1      -7.768  -0.807 123.813  0.00  0.00    +0.002 C 
ATOM      7  C   LIG A   1      -7.151   0.384 123.905  0.00  0.00    +0.023 C 
ENDROOT
BRANCH   1   8
ATOM      8  C   LIG A   1      -6.154   1.773 125.781  0.00  0.00    +0.034 C 
ATOM      9  C   LIG A   1      -5.401   3.008 125.243  0.00  0.00    +0.011 C 
BRANCH   8  10
ATOM     10  C   LIG A   1      -5.219   0.543 125.897  0.00  0.00    +0.042 C 
BRANCH  10  11
ATOM     11  C   LIG A   1      -5.470  -0.320 127.108  0.00  0.00    -0.043 A 
ATOM     12  C   LIG A   1      -5.360   0.214 128.401  0.00  0.00    +0.053 A 
ATOM     13  C   LIG A   1      -5.553  -0.586 129.533  0.00  0.00    +0.162 A 
ATOM     14  C   LIG A   1      -5.896  -1.940 129.366  0.00  0.00    +0.162 A 
ATOM     15  C   LIG A   1      -6.039  -2.459 128.072  0.00  0.00    +0.050 A 
ATOM     16  C   LIG A   1      -5.818  -1.661 126.954  0.00  0.00    +0.007 A 
BRANCH  13  17
ATOM     17  O   LIG A   1      -5.424  -0.111 130.816  0.00  0.00    -0.491 OA
ATOM     18  C   LIG A   1      -6.450   0.767 131.277  0.00  0.00    +0.277 C 
ENDBRANCH  13  17
BRANCH  14  19
ATOM     19  O   LIG A   1      -6.094  -2.705 130.492  0.00  0.00    -0.491 OA
ATOM     20  C   LIG A   1      -6.213  -4.107 130.254  0.00  0.00    +0.277 C 
ENDBRANCH  14  19
ENDBRANCH  10  11
ENDBRANCH   8  10
ENDBRANCH   1   8
BRANCH   1  21
ATOM     21  O   LIG A   1      -7.817   2.669 124.264  0.00  0.00    -0.364 OA
ATOM     22  C   LIG A   1      -8.780   2.552 123.222  0.00  0.00    +0.195 C 
ENDBRANCH   1  21
BRANCH   2  23
ATOM     23  O   LIG A   1      -8.907   2.027 126.811  0.00  0.00    -0.496 OA
ATOM     24  C   LIG A   1      -8.673   1.757 128.187  0.00  0.00    +0.277 C 
ENDBRANCH   2  23
BRANCH   6  25
ATOM     25  C   LIG A   1      -7.418  -1.837 122.774  0.00  0.00    +0.065 C 
BRANCH  25  26
ATOM     26  C   LIG A   1      -5.938  -2.091 122.725  0.00  0.00    -0.030 C 
ATOM     27  C   LIG A   1      -5.286  -2.908 123.563  0.00  0.00    +0.004 C 
ENDBRANCH  25  26
ENDBRANCH   6  25
TORSDOF 9
ENDMDL
MODEL 5
REMARK VINA RESULT:      -6.1      1.587      4.313
REMARK  Name = NuBBE_2181
REMARK  14 active torsions:
REMARK  status: ('A' for Active; 'I' for Inactive)
REMARK    1  A    between atoms: C_1  and  C_3
REMARK    2  A    between atoms: C_1  and  C_14
REMARK    3  A    between atoms: C_1  and  C_15
REMARK    4  A    between atoms: C_3  and  C_4
REMARK    5  A    between atoms: C_6  and  O_7
REMARK    6  A    between atoms: O_7  and  C_8
REMARK    7  A    between atoms: C_9  and  O_12
REMARK    8  A    between atoms: O_12  and  C_13
REMARK    9  A    between atoms: C_15  and  O_16
REMARK   10  A    between atoms: O_16  and  C_17
REMARK   11  A    between atoms: C_18  and  O_27
REMARK   12  A    between atoms: C_22  and  C_24
REMARK   13  A    between atoms: C_24  and  C_25
REMARK   14  A    between atoms: O_27  and  C_28
REMARK                            x       y       z     vdW  Elec       q    Type
REMARK                         _______ _______ _______ _____ _____    ______ ____
ROOT
ATOM      1  C   LIG A   1      -7.159   1.215 125.113  0.00  0.00    +0.147 C 
ATOM      2  C   LIG A   1      -8.493   0.908 125.808  0.00  0.00    +0.137 C 
ATOM      3  C   LIG A   1      -9.225  -0.181 125.509  0.00  0.00    +0.095 C 
ATOM      4  C   LIG A   1      -8.800  -1.147 124.476  0.00  0.00    +0.185 C 
ATOM      5  O   LIG A   1      -9.516  -2.122 124.224  0.00  0.00    -0.287 OA
ATOM      6  C   LIG A   1      -7.525  -0.903 123.759  0.00  0.00    +0.002 C 
ATOM      7  C   LIG A   1      -6.797   0.186 124.062  0.00  0.00    +0.023 C 
ENDROOT
BRANCH   1   8
ATOM      8  C   LIG A   1      -6.016   1.310 126.199  0.00  0.00    +0.034 C 
ATOM      9  C   LIG A   1      -5.016   2.447 125.902  0.00  0.00    +0.011 C 
BRANCH   8  10
ATOM     10  C   LIG A   1      -5.293  -0.045 126.396  0.00  0.00    +0.042 C 
BRANCH  10  11
ATOM     11  C   LIG A   1      -5.756  -0.832 127.597  0.00  0.00    -0.043 A 
ATOM     12  C   LIG A   1      -6.627  -1.921 127.443  0.00  0.00    +0.053 A 
ATOM     13  C   LIG A   1      -7.096  -2.635 128.552  0.00  0.00    +0.162 A 
ATOM     14  C   LIG A   1      -6.653  -2.273 129.838  0.00  0.00    +0.162 A 
ATOM     15  C   LIG A   1      -5.755  -1.207 129.982  0.00  0.00    +0.050 A 
ATOM     16  C   LIG A   1      -5.319  -0.486 128.874  0.00  0.00    +0.007 A 
BRANCH  13  17
ATOM     17  O   LIG A   1      -7.973  -3.687 128.449  0.00  0.00    -0.491 OA
ATOM     18  C   LIG A   1      -8.877  -3.659 127.345  0.00  0.00    +0.277 C 
ENDBRANCH  13  17
BRANCH  14  19
ATOM     19  O   LIG A   1      -7.116  -2.997 130.912  0.00  0.00    -0.491 OA
ATOM     20  C   LIG A   1      -6.116  -3.734 131.615  0.00  0.00    +0.277 C 
ENDBRANCH  14  19
ENDBRANCH  10  11
ENDBRANCH   8  10
ENDBRANCH   1   8
BRANCH   1  21
ATOM     21  O   LIG A   1      -7.236   2.513 124.487  0.00  0.00    -0.364 OA
ATOM     22  C   LIG A   1      -8.115   2.629 123.374  0.00  0.00    +0.195 C 
ENDBRANCH   1  21
BRANCH   2  23
ATOM     23  O   LIG A   1      -8.864   1.872 126.729  0.00  0.00    -0.496 OA
ATOM     24  C   LIG A   1      -8.631   1.598 128.105  0.00  0.00    +0.277 C 
ENDBRANCH   2  23
BRANCH   6  25
ATOM     25  C   LIG A   1      -7.111  -1.906 122.717  0.00  0.00    +0.065 C 
BRANCH  25  26
ATOM     26  C   LIG A   1      -5.780  -2.523 123.044  0.00  0.00    -0.030 C 
ATOM     27  C   LIG A   1      -5.562  -3.333 124.088  0.00  0.00    +0.004 C 
ENDBRANCH  25  26
ENDBRANCH   6  25
TORSDOF 9
ENDMDL
MODEL 6
REMARK VINA RESULT:      -6.0      1.680      3.249
REMARK  Name = NuBBE_2181
REMARK  14 active torsions:
REMARK  status: ('A' for Active; 'I' for Inactive)
REMARK    1  A    between atoms: C_1  and  C_3
REMARK    2  A    between atoms: C_1  and  C_14
REMARK    3  A    between atoms: C_1  and  C_15
REMARK    4  A    between atoms: C_3  and  C_4
REMARK    5  A    between atoms: C_6  and  O_7
REMARK    6  A    between atoms: O_7  and  C_8
REMARK    7  A    between atoms: C_9  and  O_12
REMARK    8  A    between atoms: O_12  and  C_13
REMARK    9  A    between atoms: C_15  and  O_16
REMARK   10  A    between atoms: O_16  and  C_17
REMARK   11  A    between atoms: C_18  and  O_27
REMARK   12  A    between atoms: C_22  and  C_24
REMARK   13  A    between atoms: C_24  and  C_25
REMARK   14  A    between atoms: O_27  and  C_28
REMARK                            x       y       z     vdW  Elec       q    Type
REMARK                         _______ _______ _______ _____ _____    ______ ____
ROOT
ATOM      1  C   LIG A   1      -8.216  -2.509 125.263  0.00  0.00    +0.147 C 
ATOM      2  C   LIG A   1      -6.889  -2.396 124.499  0.00  0.00    +0.137 C 
ATOM      3  C   LIG A   1      -6.456  -1.233 123.977  0.00  0.00    +0.095 C 
ATOM      4  C   LIG A   1      -7.240   0.013 124.092  0.00  0.00    +0.185 C 
ATOM      5  O   LIG A   1      -6.810   1.052 123.581  0.00  0.00    -0.287 OA
ATOM      6  C   LIG A   1      -8.538  -0.029 124.810  0.00  0.00    +0.002 C 
ATOM      7  C   LIG A   1      -8.965  -1.194 125.330  0.00  0.00    +0.023 C 
ENDROOT
BRANCH   1   8
ATOM      8  C   LIG A   1      -7.932  -3.049 126.720  0.00  0.00    +0.034 C 
ATOM      9  C   LIG A   1      -9.100  -3.893 127.271  0.00  0.00    +0.011 C 
BRANCH   8  10
ATOM     10  C   LIG A   1      -7.547  -1.907 127.694  0.00  0.00    +0.042 C 
BRANCH  10  11
ATOM     11  C   LIG A   1      -6.975  -2.374 129.010  0.00  0.00    -0.043 A 
ATOM     12  C   LIG A   1      -5.643  -2.808 129.094  0.00  0.00    +0.053 A 
ATOM     13  C   LIG A   1      -5.112  -3.281 130.300  0.00  0.00    +0.162 A 
ATOM     14  C   LIG A   1      -5.921  -3.284 131.451  0.00  0.00    +0.162 A 
ATOM     15  C   LIG A   1      -7.239  -2.817 131.368  0.00  0.00    +0.050 A 
ATOM     16  C   LIG A   1      -7.765  -2.375 130.157  0.00  0.00    +0.007 A 
BRANCH  13  17
ATOM     17  O   LIG A   1      -3.824  -3.744 130.420  0.00  0.00    -0.491 OA
ATOM     18  C   LIG A   1      -3.000  -3.647 129.259  0.00  0.00    +0.277 C 
ENDBRANCH  13  17
BRANCH  14  19
ATOM     19  O   LIG A   1      -5.374  -3.740 132.629  0.00  0.00    -0.491 OA
ATOM     20  C   LIG A   1      -6.321  -4.193 133.595  0.00  0.00    +0.277 C 
ENDBRANCH  14  19
ENDBRANCH  10  11
ENDBRANCH   8  10
ENDBRANCH   1   8
BRANCH   1  21
ATOM     21  O   LIG A   1      -9.054  -3.491 124.620  0.00  0.00    -0.364 OA
ATOM     22  C   LIG A   1      -9.558  -3.149 123.333  0.00  0.00    +0.195 C 
ENDBRANCH   1  21
BRANCH   2  23
ATOM     23  O   LIG A   1      -6.222  -3.603 124.380  0.00  0.00    -0.496 OA
ATOM     24  C   LIG A   1      -4.929  -3.589 123.790  0.00  0.00    +0.277 C 
ENDBRANCH   2  23
BRANCH   6  25
ATOM     25  C   LIG A   1      -9.313   1.255 124.921  0.00  0.00    +0.065 C 
BRANCH  25  26
ATOM     26  C   LIG A   1     -10.406   1.330 123.892  0.00  0.00    -0.030 C 
ATOM     27  C   LIG A   1     -10.283   0.898 122.631  0.00  0.00    +0.004 C 
ENDBRANCH  25  26
ENDBRANCH   6  25
TORSDOF 9
ENDMDL
MODEL 7
REMARK VINA RESULT:      -5.9      7.131     11.047
REMARK  Name = NuBBE_2181
REMARK  14 active torsions:
REMARK  status: ('A' for Active; 'I' for Inactive)
REMARK    1  A    between atoms: C_1  and  C_3
REMARK    2  A    between atoms: C_1  and  C_14
REMARK    3  A    between atoms: C_1  and  C_15
REMARK    4  A    between atoms: C_3  and  C_4
REMARK    5  A    between atoms: C_6  and  O_7
REMARK    6  A    between atoms: O_7  and  C_8
REMARK    7  A    between atoms: C_9  and  O_12
REMARK    8  A    between atoms: O_12  and  C_13
REMARK    9  A    between atoms: C_15  and  O_16
REMARK   10  A    between atoms: O_16  and  C_17
REMARK   11  A    between atoms: C_18  and  O_27
REMARK   12  A    between atoms: C_22  and  C_24
REMARK   13  A    between atoms: C_24  and  C_25
REMARK   14  A    between atoms: O_27  and  C_28
REMARK                            x       y       z     vdW  Elec       q    Type
REMARK                         _______ _______ _______ _____ _____    ______ ____
ROOT
ATOM      1  C   LIG A   1      -7.283   5.357 131.624  0.00  0.00    +0.147 C 
ATOM      2  C   LIG A   1      -6.853   4.131 132.442  0.00  0.00    +0.137 C 
ATOM      3  C   LIG A   1      -5.619   4.015 132.969  0.00  0.00    +0.095 C 
ATOM      4  C   LIG A   1      -4.589   5.056 132.780  0.00  0.00    +0.185 C 
ATOM      5  O   LIG A   1      -3.466   4.896 133.267  0.00  0.00    -0.287 OA
ATOM      6  C   LIG A   1      -4.937   6.262 131.990  0.00  0.00    +0.002 C 
ATOM      7  C   LIG A   1      -6.171   6.374 131.467  0.00  0.00    +0.023 C 
ENDROOT
BRANCH   1   8
ATOM      8  C   LIG A   1      -8.539   6.025 132.311  0.00  0.00    +0.034 C 
ATOM      9  C   LIG A   1      -8.483   5.936 133.851  0.00  0.00    +0.011 C 
BRANCH   8  10
ATOM     10  C   LIG A   1      -9.870   5.456 131.758  0.00  0.00    +0.042 C 
BRANCH  10  11
ATOM     11  C   LIG A   1     -10.737   6.469 131.052  0.00  0.00    -0.043 A 
ATOM     12  C   LIG A   1     -10.310   7.064 129.856  0.00  0.00    +0.053 A 
ATOM     13  C   LIG A   1     -11.087   8.033 129.212  0.00  0.00    +0.162 A 
ATOM     14  C   LIG A   1     -12.334   8.387 129.760  0.00  0.00    +0.162 A 
ATOM     15  C   LIG A   1     -12.771   7.764 130.936  0.00  0.00    +0.050 A 
ATOM     16  C   LIG A   1     -11.976   6.821 131.583  0.00  0.00    +0.007 A 
BRANCH  13  17
ATOM     17  O   LIG A   1     -10.693   8.662 128.057  0.00  0.00    -0.491 OA
ATOM     18  C   LIG A   1     -10.890   7.945 126.839  0.00  0.00    +0.277 C 
ENDBRANCH  13  17
BRANCH  14  19
ATOM     19  O   LIG A   1     -13.088   9.333 129.104  0.00  0.00    -0.491 OA
ATOM     20  C   LIG A   1     -13.344  10.521 129.850  0.00  0.00    +0.277 C 
ENDBRANCH  14  19
ENDBRANCH  10  11
ENDBRANCH   8  10
ENDBRANCH   1   8
BRANCH   1  21
ATOM     21  O   LIG A   1      -7.713   4.929 130.315  0.00  0.00    -0.364 OA
ATOM     22  C   LIG A   1      -6.718   4.344 129.481  0.00  0.00    +0.195 C 
ENDBRANCH   1  21
BRANCH   2  23
ATOM     23  O   LIG A   1      -7.841   3.167 132.544  0.00  0.00    -0.496 OA
ATOM     24  C   LIG A   1      -7.435   1.826 132.785  0.00  0.00    +0.277 C 
ENDBRANCH   2  23
BRANCH   6  25
ATOM     25  C   LIG A   1      -3.873   7.312 131.819  0.00  0.00    +0.065 C 
BRANCH  25  26
ATOM     26  C   LIG A   1      -3.616   7.607 130.369  0.00  0.00    -0.030 C 
ATOM     27  C   LIG A   1      -3.971   8.745 129.758  0.00  0.00    +0.004 C 
ENDBRANCH  25  26
ENDBRANCH   6  25
TORSDOF 9
ENDMDL
MODEL 8
REMARK VINA RESULT:      -5.8      2.244      4.564
REMARK  Name = NuBBE_2181
REMARK  14 active torsions:
REMARK  status: ('A' for Active; 'I' for Inactive)
REMARK    1  A    between atoms: C_1  and  C_3
REMARK    2  A    between atoms: C_1  and  C_14
REMARK    3  A    between atoms: C_1  and  C_15
REMARK    4  A    between atoms: C_3  and  C_4
REMARK    5  A    between atoms: C_6  and  O_7
REMARK    6  A    between atoms: O_7  and  C_8
REMARK    7  A    between atoms: C_9  and  O_12
REMARK    8  A    between atoms: O_12  and  C_13
REMARK    9  A    between atoms: C_15  and  O_16
REMARK   10  A    between atoms: O_16  and  C_17
REMARK   11  A    between atoms: C_18  and  O_27
REMARK   12  A    between atoms: C_22  and  C_24
REMARK   13  A    between atoms: C_24  and  C_25
REMARK   14  A    between atoms: O_27  and  C_28
REMARK                            x       y       z     vdW  Elec       q    Type
REMARK                         _______ _______ _______ _____ _____    ______ ____
ROOT
ATOM      1  C   LIG A   1      -6.757  -1.522 126.762  0.00  0.00    +0.147 C 
ATOM      2  C   LIG A   1      -7.934  -0.637 126.329  0.00  0.00    +0.137 C 
ATOM      3  C   LIG A   1      -8.300  -0.505 125.040  0.00  0.00    +0.095 C 
ATOM      4  C   LIG A   1      -7.578  -1.192 123.951  0.00  0.00    +0.185 C 
ATOM      5  O   LIG A   1      -7.939  -1.025 122.782  0.00  0.00    -0.287 OA
ATOM      6  C   LIG A   1      -6.423  -2.055 124.300  0.00  0.00    +0.002 C 
ATOM      7  C   LIG A   1      -6.063  -2.184 125.590  0.00  0.00    +0.023 C 
ENDROOT
BRANCH   1   8
ATOM      8  C   LIG A   1      -7.274  -2.615 127.778  0.00  0.00    +0.034 C 
ATOM      9  C   LIG A   1      -8.581  -3.285 127.304  0.00  0.00    +0.011 C 
BRANCH   8  10
ATOM     10  C   LIG A   1      -7.414  -2.049 129.213  0.00  0.00    +0.042 C 
BRANCH  10  11
ATOM     11  C   LIG A   1      -6.844  -2.936 130.293  0.00  0.00    -0.043 A 
ATOM     12  C   LIG A   1      -7.189  -2.733 131.637  0.00  0.00    +0.053 A 
ATOM     13  C   LIG A   1      -6.638  -3.524 132.653  0.00  0.00    +0.162 A 
ATOM     14  C   LIG A   1      -5.750  -4.560 132.309  0.00  0.00    +0.162 A 
ATOM     15  C   LIG A   1      -5.437  -4.779 130.961  0.00  0.00    +0.050 A 
ATOM     16  C   LIG A   1      -5.970  -3.969 129.963  0.00  0.00    +0.007 A 
BRANCH  13  17
ATOM     17  O   LIG A   1      -6.924  -3.340 133.983  0.00  0.00    -0.491 OA
ATOM     18  C   LIG A   1      -8.299  -3.415 134.357  0.00  0.00    +0.277 C 
ENDBRANCH  13  17
BRANCH  14  19
ATOM     19  O   LIG A   1      -5.230  -5.333 133.321  0.00  0.00    -0.491 OA
ATOM     20  C   LIG A   1      -3.819  -5.218 133.501  0.00  0.00    +0.277 C 
ENDBRANCH  14  19
ENDBRANCH  10  11
ENDBRANCH   8  10
ENDBRANCH   1   8
BRANCH   1  21
ATOM     21  O   LIG A   1      -5.797  -0.719 127.480  0.00  0.00    -0.364 OA
ATOM     22  C   LIG A   1      -5.135   0.296 126.733  0.00  0.00    +0.195 C 
ENDBRANCH   1  21
BRANCH   2  23
ATOM     23  O   LIG A   1      -8.542   0.021 127.386  0.00  0.00    -0.496 OA
ATOM     24  C   LIG A   1      -8.618   1.439 127.326  0.00  0.00    +0.277 C 
ENDBRANCH   2  23
BRANCH   6  25
ATOM     25  C   LIG A   1      -5.710  -2.751 123.173  0.00  0.00    +0.065 C 
BRANCH  25  26
ATOM     26  C   LIG A   1      -4.492  -3.484 123.660  0.00  0.00    -0.030 C 
ATOM     27  C   LIG A   1      -4.291  -4.799 123.500  0.00  0.00    +0.004 C 
ENDBRANCH  25  26
ENDBRANCH   6  25
TORSDOF 9
ENDMDL
MODEL 9
REMARK VINA RESULT:      -5.8      6.726      9.319
REMARK  Name = NuBBE_2181
REMARK  14 active torsions:
REMARK  status: ('A' for Active; 'I' for Inactive)
REMARK    1  A    between atoms: C_1  and  C_3
REMARK    2  A    between atoms: C_1  and  C_14
REMARK    3  A    between atoms: C_1  and  C_15
REMARK    4  A    between atoms: C_3  and  C_4
REMARK    5  A    between atoms: C_6  and  O_7
REMARK    6  A    between atoms: O_7  and  C_8
REMARK    7  A    between atoms: C_9  and  O_12
REMARK    8  A    between atoms: O_12  and  C_13
REMARK    9  A    between atoms: C_15  and  O_16
REMARK   10  A    between atoms: O_16  and  C_17
REMARK   11  A    between atoms: C_18  and  O_27
REMARK   12  A    between atoms: C_22  and  C_24
REMARK   13  A    between atoms: C_24  and  C_25
REMARK   14  A    between atoms: O_27  and  C_28
REMARK                            x       y       z     vdW  Elec       q    Type
REMARK                         _______ _______ _______ _____ _____    ______ ____
ROOT
ATOM      1  C   LIG A   1      -8.543   3.954 132.122  0.00  0.00    +0.147 C 
ATOM      2  C   LIG A   1      -7.676   3.539 130.926  0.00  0.00    +0.137 C 
ATOM      3  C   LIG A   1      -7.856   4.053 129.694  0.00  0.00    +0.095 C 
ATOM      4  C   LIG A   1      -8.915   5.041 129.409  0.00  0.00    +0.185 C 
ATOM      5  O   LIG A   1      -9.054   5.470 128.259  0.00  0.00    -0.287 OA
ATOM      6  C   LIG A   1      -9.796   5.477 130.521  0.00  0.00    +0.002 C 
ATOM      7  C   LIG A   1      -9.610   4.962 131.749  0.00  0.00    +0.023 C 
ENDROOT
BRANCH   1   8
ATOM      8  C   LIG A   1      -7.614   4.540 133.258  0.00  0.00    +0.034 C 
ATOM      9  C   LIG A   1      -8.212   4.340 134.667  0.00  0.00    +0.011 C 
BRANCH   8  10
ATOM     10  C   LIG A   1      -7.253   6.024 133.000  0.00  0.00    +0.042 C 
BRANCH  10  11
ATOM     11  C   LIG A   1      -5.942   6.232 132.283  0.00  0.00    -0.043 A 
ATOM     12  C   LIG A   1      -4.743   5.756 132.836  0.00  0.00    +0.053 A 
ATOM     13  C   LIG A   1      -3.516   5.977 132.200  0.00  0.00    +0.162 A 
ATOM     14  C   LIG A   1      -3.494   6.658 130.969  0.00  0.00    +0.162 A 
ATOM     15  C   LIG A   1      -4.698   7.100 130.405  0.00  0.00    +0.050 A 
ATOM     16  C   LIG A   1      -5.909   6.899 131.060  0.00  0.00    +0.007 A 
BRANCH  13  17
ATOM     17  O   LIG A   1      -2.317   5.555 132.722  0.00  0.00    -0.491 OA
ATOM     18  C   LIG A   1      -2.111   4.145 132.791  0.00  0.00    +0.277 C 
ENDBRANCH  13  17
BRANCH  14  19
ATOM     19  O   LIG A   1      -2.278   6.852 130.355  0.00  0.00    -0.491 OA
ATOM     20  C   LIG A   1      -2.207   6.399 129.004  0.00  0.00    +0.277 C 
ENDBRANCH  14  19
ENDBRANCH  10  11
ENDBRANCH   8  10
ENDBRANCH   1   8
BRANCH   1  21
ATOM     21  O   LIG A   1      -9.179   2.785 132.678  0.00  0.00    -0.364 OA
ATOM     22  C   LIG A   1     -10.033   2.053 131.805  0.00  0.00    +0.195 C 
ENDBRANCH   1  21
BRANCH   2  23
ATOM     23  O   LIG A   1      -6.733   2.575 131.241  0.00  0.00    -0.496 OA
ATOM     24  C   LIG A   1      -5.402   2.778 130.786  0.00  0.00    +0.277 C 
ENDBRANCH   2  23
BRANCH   6  25
ATOM     25  C   LIG A   1     -10.862   6.491 130.206  0.00  0.00    +0.065 C 
BRANCH  25  26
ATOM     26  C   LIG A   1     -11.851   6.619 131.329  0.00  0.00    -0.030 C 
ATOM     27  C   LIG A   1     -12.864   7.496 131.344  0.00  0.00    +0.004 C 
ENDBRANCH  25  26
ENDBRANCH   6  25
TORSDOF 9
ENDMDL
