MODEL 1
REMARK VINA RESULT:      -6.6      0.000      0.000
REMARK  Name = NuBBE_174
REMARK  24 active torsions:
REMARK  status: ('A' for Active; 'I' for Inactive)
REMARK    1  A    between atoms: C_1  and  C_2
REMARK    2  A    between atoms: C_4  and  O_6
REMARK    3  A    between atoms: O_6  and  C_7
REMARK    4  A    between atoms: C_7  and  O_8
REMARK    5  A    between atoms: O_8  and  C_9
REMARK    6  A    between atoms: C_9  and  C_10
REMARK    7  A    between atoms: C_9  and  C_11
REMARK    8  A    between atoms: C_9  and  C_12
REMARK    9  A    between atoms: C_16  and  C_18
REMARK   10  A    between atoms: C_18  and  C_19
REMARK   11  A    between atoms: C_19  and  C_20
REMARK   12  A    between atoms: C_20  and  C_21
REMARK   13  A    between atoms: C_21  and  C_22
REMARK   14  A    between atoms: C_22  and  C_23
REMARK   15  A    between atoms: C_23  and  C_24
REMARK   16  A    between atoms: C_24  and  C_25
REMARK   17  A    between atoms: C_25  and  C_26
REMARK   18  A    between atoms: C_26  and  C_27
REMARK   19  A    between atoms: C_27  and  C_28
REMARK   20  A    between atoms: C_28  and  C_29
REMARK   21  A    between atoms: C_29  and  C_30
REMARK   22  A    between atoms: C_30  and  C_31
REMARK   23  A    between atoms: N_33  and  S_34
REMARK   24  A    between atoms: S_34  and  C_36
REMARK                            x       y       z     vdW  Elec       q    Type
REMARK                         _______ _______ _______ _____ _____    ______ ____
ROOT
ATOM      1  C   LIG A   1     -11.041   4.037 130.389  0.00  0.00    +0.029 C 
ATOM      2  C   LIG A   1      -9.698   4.667 130.738  0.00  0.00    +0.117 C 
ATOM      3  C   LIG A   1      -9.655   6.129 130.253  0.00  0.00    +0.198 C 
ATOM      4  C   LIG A   1      -8.449   6.821 130.919  0.00  0.00    +0.048 C 
ATOM      5  C   LIG A   1      -7.635   5.888 131.854  0.00  0.00    +0.024 C 
ATOM      6  C   LIG A   1      -7.166   4.592 131.143  0.00  0.00    +0.080 C 
ATOM      7  N   LIG A   1      -8.375   4.054 130.302  0.00  0.00    -0.172 NA
ENDROOT
BRANCH   7   8
ATOM      8  S   LIG A   1      -8.342   2.523 129.591  0.00  0.00    +0.030 S 
ATOM      9  O   LIG A   1      -6.956   2.102 129.348  0.00  0.00    -0.158 OA
ATOM     10  C   LIG A   1      -8.885   1.483 130.914  0.00  0.00    +0.214 C 
ATOM     11  O   LIG A   1      -9.306   2.476 128.525  0.00  0.00    -0.158 OA
ENDBRANCH   7   8
BRANCH   6  12
ATOM     12  C   LIG A   1      -5.865   4.957 130.351  0.00  0.00    +0.020 C 
BRANCH  12  13
ATOM     13  C   LIG A   1      -4.494   4.745 131.066  0.00  0.00    +0.002 C 
BRANCH  13  14
ATOM     14  C   LIG A   1      -4.019   6.029 131.796  0.00  0.00    +0.000 C 
BRANCH  14  15
ATOM     15  C   LIG A   1      -4.455   7.340 131.116  0.00  0.00    -0.000 C 
BRANCH  15  16
ATOM     16  C   LIG A   1      -3.361   7.906 130.197  0.00  0.00    -0.000 C 
BRANCH  16  17
ATOM     17  C   LIG A   1      -3.457   7.491 128.737  0.00  0.00    -0.000 C 
BRANCH  17  18
ATOM     18  C   LIG A   1      -2.510   6.369 128.367  0.00  0.00    -0.000 C 
BRANCH  18  19
ATOM     19  C   LIG A   1      -3.083   5.173 127.563  0.00  0.00    -0.000 C 
BRANCH  19  20
ATOM     20  C   LIG A   1      -2.733   3.705 127.951  0.00  0.00    +0.000 C 
BRANCH  20  21
ATOM     21  C   LIG A   1      -3.853   2.676 127.819  0.00  0.00    +0.000 C 
BRANCH  21  22
ATOM     22  C   LIG A   1      -4.455   2.407 126.436  0.00  0.00    +0.007 C 
BRANCH  22  23
ATOM     23  C   LIG A   1      -5.787   3.109 126.080  0.00  0.00    +0.074 C 
BRANCH  23  24
ATOM     24  C   LIG A   1      -5.867   4.362 125.193  0.00  0.00    +0.130 C 
ATOM     25  C   LIG A   1      -5.497   4.338 123.799  0.00  0.00    +0.086 C 
ATOM     26  O   LIG A   1      -6.161   5.542 125.591  0.00  0.00    -0.298 OA
ENDBRANCH  23  24
ENDBRANCH  22  23
ENDBRANCH  21  22
ENDBRANCH  20  21
ENDBRANCH  19  20
ENDBRANCH  18  19
ENDBRANCH  17  18
ENDBRANCH  16  17
ENDBRANCH  15  16
ENDBRANCH  14  15
ENDBRANCH  13  14
ENDBRANCH  12  13
ENDBRANCH   6  12
BRANCH   3  27
ATOM     27  O   LIG A   1      -9.597   6.121 128.777  0.00  0.00    -0.429 OA
BRANCH  27  28
ATOM     28  C   LIG A   1     -10.476   6.955 128.197  0.00  0.00    +0.511 C 
ATOM     29  O   LIG A   1     -10.682   6.974 127.009  0.00  0.00    -0.203 OA
BRANCH  28  30
ATOM     30  O   LIG A   1     -11.045   7.869 129.075  0.00  0.00    -0.428 OA
BRANCH  30  31
ATOM     31  C   LIG A   1     -12.499   7.835 129.238  0.00  0.00    +0.109 C 
ATOM     32  C   LIG A   1     -13.094   9.106 128.628  0.00  0.00    +0.055 C 
ATOM     33  C   LIG A   1     -13.214   6.590 128.691  0.00  0.00    +0.055 C 
ATOM     34  C   LIG A   1     -12.779   7.867 130.766  0.00  0.00    +0.055 C 
ENDBRANCH  30  31
ENDBRANCH  28  30
ENDBRANCH  27  28
ENDBRANCH   3  27
TORSDOF 18
ENDMDL
MODEL 2
REMARK VINA RESULT:      -6.2      2.020      2.944
REMARK  Name = NuBBE_174
REMARK  24 active torsions:
REMARK  status: ('A' for Active; 'I' for Inactive)
REMARK    1  A    between atoms: C_1  and  C_2
REMARK    2  A    between atoms: C_4  and  O_6
REMARK    3  A    between atoms: O_6  and  C_7
REMARK    4  A    between atoms: C_7  and  O_8
REMARK    5  A    between atoms: O_8  and  C_9
REMARK    6  A    between atoms: C_9  and  C_10
REMARK    7  A    between atoms: C_9  and  C_11
REMARK    8  A    between atoms: C_9  and  C_12
REMARK    9  A    between atoms: C_16  and  C_18
REMARK   10  A    between atoms: C_18  and  C_19
REMARK   11  A    between atoms: C_19  and  C_20
REMARK   12  A    between atoms: C_20  and  C_21
REMARK   13  A    between atoms: C_21  and  C_22
REMARK   14  A    between atoms: C_22  and  C_23
REMARK   15  A    between atoms: C_23  and  C_24
REMARK   16  A    between atoms: C_24  and  C_25
REMARK   17  A    between atoms: C_25  and  C_26
REMARK   18  A    between atoms: C_26  and  C_27
REMARK   19  A    between atoms: C_27  and  C_28
REMARK   20  A    between atoms: C_28  and  C_29
REMARK   21  A    between atoms: C_29  and  C_30
REMARK   22  A    between atoms: C_30  and  C_31
REMARK   23  A    between atoms: N_33  and  S_34
REMARK   24  A    between atoms: S_34  and  C_36
REMARK                            x       y       z     vdW  Elec       q    Type
REMARK                         _______ _______ _______ _____ _____    ______ ____
ROOT
ATOM      1  C   LIG A   1     -10.301   3.411 130.456  0.00  0.00    +0.029 C 
ATOM      2  C   LIG A   1      -9.275   4.271 131.186  0.00  0.00    +0.117 C 
ATOM      3  C   LIG A   1      -9.982   5.414 131.940  0.00  0.00    +0.198 C 
ATOM      4  C   LIG A   1      -8.972   6.034 132.926  0.00  0.00    +0.048 C 
ATOM      5  C   LIG A   1      -7.572   5.366 132.885  0.00  0.00    +0.024 C 
ATOM      6  C   LIG A   1      -6.963   5.346 131.458  0.00  0.00    +0.080 C 
ATOM      7  N   LIG A   1      -8.101   4.920 130.468  0.00  0.00    -0.172 NA
ENDROOT
BRANCH   7   8
ATOM      8  S   LIG A   1      -7.769   4.531 128.859  0.00  0.00    +0.030 S 
ATOM      9  O   LIG A   1      -6.426   4.995 128.488  0.00  0.00    -0.158 OA
ATOM     10  C   LIG A   1      -7.619   2.771 128.921  0.00  0.00    +0.214 C 
ATOM     11  O   LIG A   1      -8.901   4.882 128.044  0.00  0.00    -0.158 OA
ENDBRANCH   7   8
BRANCH   6  12
ATOM     12  C   LIG A   1      -6.315   6.753 131.224  0.00  0.00    +0.020 C 
BRANCH  12  13
ATOM     13  C   LIG A   1      -4.954   6.809 130.463  0.00  0.00    +0.002 C 
BRANCH  13  14
ATOM     14  C   LIG A   1      -3.752   6.928 131.438  0.00  0.00    +0.000 C 
BRANCH  14  15
ATOM     15  C   LIG A   1      -2.387   6.622 130.796  0.00  0.00    -0.000 C 
BRANCH  15  16
ATOM     16  C   LIG A   1      -1.309   6.317 131.848  0.00  0.00    -0.000 C 
BRANCH  16  17
ATOM     17  C   LIG A   1      -1.771   5.483 133.033  0.00  0.00    -0.000 C 
BRANCH  17  18
ATOM     18  C   LIG A   1      -1.879   4.005 132.720  0.00  0.00    -0.000 C 
BRANCH  18  19
ATOM     19  C   LIG A   1      -3.252   3.317 132.936  0.00  0.00    -0.000 C 
BRANCH  19  20
ATOM     20  C   LIG A   1      -3.884   2.424 131.827  0.00  0.00    +0.000 C 
BRANCH  20  21
ATOM     21  C   LIG A   1      -4.317   3.128 130.543  0.00  0.00    +0.000 C 
BRANCH  21  22
ATOM     22  C   LIG A   1      -3.684   2.704 129.214  0.00  0.00    +0.007 C 
BRANCH  22  23
ATOM     23  C   LIG A   1      -3.033   3.802 128.342  0.00  0.00    +0.074 C 
BRANCH  23  24
ATOM     24  C   LIG A   1      -2.943   3.718 126.810  0.00  0.00    +0.130 C 
ATOM     25  C   LIG A   1      -4.102   3.880 125.965  0.00  0.00    +0.086 C 
ATOM     26  O   LIG A   1      -1.899   3.408 126.137  0.00  0.00    -0.298 OA
ENDBRANCH  23  24
ENDBRANCH  22  23
ENDBRANCH  21  22
ENDBRANCH  20  21
ENDBRANCH  19  20
ENDBRANCH  18  19
ENDBRANCH  17  18
ENDBRANCH  16  17
ENDBRANCH  15  16
ENDBRANCH  14  15
ENDBRANCH  13  14
ENDBRANCH  12  13
ENDBRANCH   6  12
BRANCH   3  27
ATOM     27  O   LIG A   1     -10.502   6.369 130.941  0.00  0.00    -0.429 OA
BRANCH  27  28
ATOM     28  C   LIG A   1     -11.844   6.447 130.914  0.00  0.00    +0.511 C 
ATOM     29  O   LIG A   1     -12.519   6.550 131.907  0.00  0.00    -0.203 OA
BRANCH  28  30
ATOM     30  O   LIG A   1     -12.388   6.287 129.646  0.00  0.00    -0.428 OA
BRANCH  30  31
ATOM     31  C   LIG A   1     -12.384   7.450 128.757  0.00  0.00    +0.109 C 
ATOM     32  C   LIG A   1     -10.981   7.620 128.172  0.00  0.00    +0.055 C 
ATOM     33  C   LIG A   1     -13.438   7.453 127.639  0.00  0.00    +0.055 C 
ATOM     34  C   LIG A   1     -12.682   8.691 129.643  0.00  0.00    +0.055 C 
ENDBRANCH  30  31
ENDBRANCH  28  30
ENDBRANCH  27  28
ENDBRANCH   3  27
TORSDOF 18
ENDMDL
MODEL 3
REMARK VINA RESULT:      -6.2      3.551      5.825
REMARK  Name = NuBBE_174
REMARK  24 active torsions:
REMARK  status: ('A' for Active; 'I' for Inactive)
REMARK    1  A    between atoms: C_1  and  C_2
REMARK    2  A    between atoms: C_4  and  O_6
REMARK    3  A    between atoms: O_6  and  C_7
REMARK    4  A    between atoms: C_7  and  O_8
REMARK    5  A    between atoms: O_8  and  C_9
REMARK    6  A    between atoms: C_9  and  C_10
REMARK    7  A    between atoms: C_9  and  C_11
REMARK    8  A    between atoms: C_9  and  C_12
REMARK    9  A    between atoms: C_16  and  C_18
REMARK   10  A    between atoms: C_18  and  C_19
REMARK   11  A    between atoms: C_19  and  C_20
REMARK   12  A    between atoms: C_20  and  C_21
REMARK   13  A    between atoms: C_21  and  C_22
REMARK   14  A    between atoms: C_22  and  C_23
REMARK   15  A    between atoms: C_23  and  C_24
REMARK   16  A    between atoms: C_24  and  C_25
REMARK   17  A    between atoms: C_25  and  C_26
REMARK   18  A    between atoms: C_26  and  C_27
REMARK   19  A    between atoms: C_27  and  C_28
REMARK   20  A    between atoms: C_28  and  C_29
REMARK   21  A    between atoms: C_29  and  C_30
REMARK   22  A    between atoms: C_30  and  C_31
REMARK   23  A    between atoms: N_33  and  S_34
REMARK   24  A    between atoms: S_34  and  C_36
REMARK                            x       y       z     vdW  Elec       q    Type
REMARK                         _______ _______ _______ _____ _____    ______ ____
ROOT
ATOM      1  C   LIG A   1      -7.530   6.844 131.081  0.00  0.00    +0.029 C 
ATOM      2  C   LIG A   1      -7.740   5.369 130.760  0.00  0.00    +0.117 C 
ATOM      3  C   LIG A   1      -8.516   5.219 129.436  0.00  0.00    +0.198 C 
ATOM      4  C   LIG A   1      -8.403   3.752 128.978  0.00  0.00    +0.048 C 
ATOM      5  C   LIG A   1      -7.577   2.860 129.942  0.00  0.00    +0.024 C 
ATOM      6  C   LIG A   1      -8.103   2.912 131.400  0.00  0.00    +0.080 C 
ATOM      7  N   LIG A   1      -8.410   4.412 131.736  0.00  0.00    -0.172 NA
ENDROOT
BRANCH   7   8
ATOM      8  S   LIG A   1      -8.755   4.910 133.311  0.00  0.00    +0.030 S 
ATOM      9  O   LIG A   1      -9.357   3.809 134.075  0.00  0.00    -0.158 OA
ATOM     10  C   LIG A   1      -7.141   5.090 134.010  0.00  0.00    +0.214 C 
ATOM     11  O   LIG A   1      -9.400   6.195 133.271  0.00  0.00    -0.158 OA
ENDBRANCH   7   8
BRANCH   6  12
ATOM     12  C   LIG A   1      -9.305   1.911 131.482  0.00  0.00    +0.020 C 
BRANCH  12  13
ATOM     13  C   LIG A   1      -9.034   0.495 132.078  0.00  0.00    +0.002 C 
BRANCH  13  14
ATOM     14  C   LIG A   1      -8.499  -0.490 131.004  0.00  0.00    +0.000 C 
BRANCH  14  15
ATOM     15  C   LIG A   1      -6.971  -0.684 131.032  0.00  0.00    -0.000 C 
BRANCH  15  16
ATOM     16  C   LIG A   1      -6.542  -1.737 132.065  0.00  0.00    -0.000 C 
BRANCH  16  17
ATOM     17  C   LIG A   1      -6.963  -3.165 131.754  0.00  0.00    -0.000 C 
BRANCH  17  18
ATOM     18  C   LIG A   1      -6.556  -3.623 130.370  0.00  0.00    -0.000 C 
BRANCH  18  19
ATOM     19  C   LIG A   1      -5.050  -3.566 130.001  0.00  0.00    -0.000 C 
BRANCH  19  20
ATOM     20  C   LIG A   1      -4.515  -2.521 128.978  0.00  0.00    +0.000 C 
BRANCH  20  21
ATOM     21  C   LIG A   1      -5.158  -2.523 127.594  0.00  0.00    +0.000 C 
BRANCH  21  22
ATOM     22  C   LIG A   1      -6.082  -1.365 127.203  0.00  0.00    +0.007 C 
BRANCH  22  23
ATOM     23  C   LIG A   1      -7.583  -1.490 127.556  0.00  0.00    +0.074 C 
BRANCH  23  24
ATOM     24  C   LIG A   1      -8.530  -2.487 126.867  0.00  0.00    +0.130 C 
ATOM     25  C   LIG A   1      -8.859  -3.762 127.456  0.00  0.00    +0.086 C 
ATOM     26  O   LIG A   1      -9.036  -2.353 125.699  0.00  0.00    -0.298 OA
ENDBRANCH  23  24
ENDBRANCH  22  23
ENDBRANCH  21  22
ENDBRANCH  20  21
ENDBRANCH  19  20
ENDBRANCH  18  19
ENDBRANCH  17  18
ENDBRANCH  16  17
ENDBRANCH  15  16
ENDBRANCH  14  15
ENDBRANCH  13  14
ENDBRANCH  12  13
ENDBRANCH   6  12
BRANCH   3  27
ATOM     27  O   LIG A   1      -9.904   5.667 129.666  0.00  0.00    -0.429 OA
BRANCH  27  28
ATOM     28  C   LIG A   1     -10.295   6.659 128.848  0.00  0.00    +0.511 C 
ATOM     29  O   LIG A   1     -10.065   6.668 127.665  0.00  0.00    -0.203 OA
BRANCH  28  30
ATOM     30  O   LIG A   1     -10.893   7.726 129.508  0.00  0.00    -0.428 OA
BRANCH  30  31
ATOM     31  C   LIG A   1     -12.355   7.763 129.548  0.00  0.00    +0.109 C 
ATOM     32  C   LIG A   1     -12.823   9.177 129.203  0.00  0.00    +0.055 C 
ATOM     33  C   LIG A   1     -13.084   6.728 128.677  0.00  0.00    +0.055 C 
ATOM     34  C   LIG A   1     -12.771   7.470 131.016  0.00  0.00    +0.055 C 
ENDBRANCH  30  31
ENDBRANCH  28  30
ENDBRANCH  27  28
ENDBRANCH   3  27
TORSDOF 18
ENDMDL
MODEL 4
REMARK VINA RESULT:      -6.1      3.978      5.758
REMARK  Name = NuBBE_174
REMARK  24 active torsions:
REMARK  status: ('A' for Active; 'I' for Inactive)
REMARK    1  A    between atoms: C_1  and  C_2
REMARK    2  A    between atoms: C_4  and  O_6
REMARK    3  A    between atoms: O_6  and  C_7
REMARK    4  A    between atoms: C_7  and  O_8
REMARK    5  A    between atoms: O_8  and  C_9
REMARK    6  A    between atoms: C_9  and  C_10
REMARK    7  A    between atoms: C_9  and  C_11
REMARK    8  A    between atoms: C_9  and  C_12
REMARK    9  A    between atoms: C_16  and  C_18
REMARK   10  A    between atoms: C_18  and  C_19
REMARK   11  A    between atoms: C_19  and  C_20
REMARK   12  A    between atoms: C_20  and  C_21
REMARK   13  A    between atoms: C_21  and  C_22
REMARK   14  A    between atoms: C_22  and  C_23
REMARK   15  A    between atoms: C_23  and  C_24
REMARK   16  A    between atoms: C_24  and  C_25
REMARK   17  A    between atoms: C_25  and  C_26
REMARK   18  A    between atoms: C_26  and  C_27
REMARK   19  A    between atoms: C_27  and  C_28
REMARK   20  A    between atoms: C_28  and  C_29
REMARK   21  A    between atoms: C_29  and  C_30
REMARK   22  A    between atoms: C_30  and  C_31
REMARK   23  A    between atoms: N_33  and  S_34
REMARK   24  A    between atoms: S_34  and  C_36
REMARK                            x       y       z     vdW  Elec       q    Type
REMARK                         _______ _______ _______ _____ _____    ______ ____
ROOT
ATOM      1  C   LIG A   1      -7.943   6.083 132.673  0.00  0.00    +0.029 C 
ATOM      2  C   LIG A   1      -7.923   5.170 131.452  0.00  0.00    +0.117 C 
ATOM      3  C   LIG A   1      -9.005   5.607 130.446  0.00  0.00    +0.198 C 
ATOM      4  C   LIG A   1      -8.726   4.898 129.105  0.00  0.00    +0.048 C 
ATOM      5  C   LIG A   1      -7.484   3.969 129.138  0.00  0.00    +0.024 C 
ATOM      6  C   LIG A   1      -7.555   2.920 130.278  0.00  0.00    +0.080 C 
ATOM      7  N   LIG A   1      -8.058   3.658 131.566  0.00  0.00    -0.172 NA
ENDROOT
BRANCH   7   8
ATOM      8  S   LIG A   1      -8.018   2.914 133.081  0.00  0.00    +0.030 S 
ATOM      9  O   LIG A   1      -6.820   3.327 133.822  0.00  0.00    -0.158 OA
ATOM     10  C   LIG A   1      -9.348   3.713 133.927  0.00  0.00    +0.214 C 
ATOM     11  O   LIG A   1      -8.325   1.516 132.929  0.00  0.00    -0.158 OA
ENDBRANCH   7   8
BRANCH   6  12
ATOM     12  C   LIG A   1      -8.441   1.740 129.751  0.00  0.00    +0.020 C 
BRANCH  12  13
ATOM     13  C   LIG A   1      -7.714   0.481 129.184  0.00  0.00    +0.002 C 
BRANCH  13  14
ATOM     14  C   LIG A   1      -7.672  -0.676 130.217  0.00  0.00    +0.000 C 
BRANCH  14  15
ATOM     15  C   LIG A   1      -6.454  -1.607 130.074  0.00  0.00    -0.000 C 
BRANCH  15  16
ATOM     16  C   LIG A   1      -5.642  -1.304 128.805  0.00  0.00    -0.000 C 
BRANCH  16  17
ATOM     17  C   LIG A   1      -5.716  -2.363 127.716  0.00  0.00    -0.000 C 
BRANCH  17  18
ATOM     18  C   LIG A   1      -6.826  -2.118 126.715  0.00  0.00    -0.000 C 
BRANCH  18  19
ATOM     19  C   LIG A   1      -8.245  -2.637 127.064  0.00  0.00    -0.000 C 
BRANCH  19  20
ATOM     20  C   LIG A   1      -9.306  -2.881 125.951  0.00  0.00    +0.000 C 
BRANCH  20  21
ATOM     21  C   LIG A   1      -8.835  -3.627 124.705  0.00  0.00    +0.000 C 
BRANCH  21  22
ATOM     22  C   LIG A   1      -9.291  -3.136 123.328  0.00  0.00    +0.007 C 
BRANCH  22  23
ATOM     23  C   LIG A   1      -8.853  -1.721 122.885  0.00  0.00    +0.074 C 
BRANCH  23  24
ATOM     24  C   LIG A   1      -7.446  -1.156 123.140  0.00  0.00    +0.130 C 
ATOM     25  C   LIG A   1      -6.253  -1.875 122.764  0.00  0.00    +0.086 C 
ATOM     26  O   LIG A   1      -7.176  -0.080 123.777  0.00  0.00    -0.298 OA
ENDBRANCH  23  24
ENDBRANCH  22  23
ENDBRANCH  21  22
ENDBRANCH  20  21
ENDBRANCH  19  20
ENDBRANCH  18  19
ENDBRANCH  17  18
ENDBRANCH  16  17
ENDBRANCH  15  16
ENDBRANCH  14  15
ENDBRANCH  13  14
ENDBRANCH  12  13
ENDBRANCH   6  12
BRANCH   3  27
ATOM     27  O   LIG A   1     -10.325   5.288 131.025  0.00  0.00    -0.429 OA
BRANCH  27  28
ATOM     28  C   LIG A   1     -11.105   6.365 131.220  0.00  0.00    +0.511 C 
ATOM     29  O   LIG A   1     -12.042   6.372 131.978  0.00  0.00    -0.203 OA
BRANCH  28  30
ATOM     30  O   LIG A   1     -10.800   7.436 130.388  0.00  0.00    -0.428 OA
BRANCH  30  31
ATOM     31  C   LIG A   1     -11.715   7.714 129.281  0.00  0.00    +0.109 C 
ATOM     32  C   LIG A   1     -10.908   8.243 128.094  0.00  0.00    +0.055 C 
ATOM     33  C   LIG A   1     -12.621   6.554 128.842  0.00  0.00    +0.055 C 
ATOM     34  C   LIG A   1     -12.660   8.852 129.757  0.00  0.00    +0.055 C 
ENDBRANCH  30  31
ENDBRANCH  28  30
ENDBRANCH  27  28
ENDBRANCH   3  27
TORSDOF 18
ENDMDL
MODEL 5
REMARK VINA RESULT:      -6.1      2.372      3.289
REMARK  Name = NuBBE_174
REMARK  24 active torsions:
REMARK  status: ('A' for Active; 'I' for Inactive)
REMARK    1  A    between atoms: C_1  and  C_2
REMARK    2  A    between atoms: C_4  and  O_6
REMARK    3  A    between atoms: O_6  and  C_7
REMARK    4  A    between atoms: C_7  and  O_8
REMARK    5  A    between atoms: O_8  and  C_9
REMARK    6  A    between atoms: C_9  and  C_10
REMARK    7  A    between atoms: C_9  and  C_11
REMARK    8  A    between atoms: C_9  and  C_12
REMARK    9  A    between atoms: C_16  and  C_18
REMARK   10  A    between atoms: C_18  and  C_19
REMARK   11  A    between atoms: C_19  and  C_20
REMARK   12  A    between atoms: C_20  and  C_21
REMARK   13  A    between atoms: C_21  and  C_22
REMARK   14  A    between atoms: C_22  and  C_23
REMARK   15  A    between atoms: C_23  and  C_24
REMARK   16  A    between atoms: C_24  and  C_25
REMARK   17  A    between atoms: C_25  and  C_26
REMARK   18  A    between atoms: C_26  and  C_27
REMARK   19  A    between atoms: C_27  and  C_28
REMARK   20  A    between atoms: C_28  and  C_29
REMARK   21  A    between atoms: C_29  and  C_30
REMARK   22  A    between atoms: C_30  and  C_31
REMARK   23  A    between atoms: N_33  and  S_34
REMARK   24  A    between atoms: S_34  and  C_36
REMARK                            x       y       z     vdW  Elec       q    Type
REMARK                         _______ _______ _______ _____ _____    ______ ____
ROOT
ATOM      1  C   LIG A   1     -10.599   3.928 130.664  0.00  0.00    +0.029 C 
ATOM      2  C   LIG A   1      -9.236   4.593 130.825  0.00  0.00    +0.117 C 
ATOM      3  C   LIG A   1      -9.330   6.089 130.467  0.00  0.00    +0.198 C 
ATOM      4  C   LIG A   1      -8.048   6.783 130.969  0.00  0.00    +0.048 C 
ATOM      5  C   LIG A   1      -7.050   5.820 131.665  0.00  0.00    +0.024 C 
ATOM      6  C   LIG A   1      -6.672   4.608 130.774  0.00  0.00    +0.080 C 
ATOM      7  N   LIG A   1      -7.992   4.080 130.114  0.00  0.00    -0.172 NA
ENDROOT
BRANCH   7   8
ATOM      8  S   LIG A   1      -8.035   2.612 129.281  0.00  0.00    +0.030 S 
ATOM      9  O   LIG A   1      -6.673   2.170 128.956  0.00  0.00    -0.158 OA
ATOM     10  C   LIG A   1      -8.571   1.485 130.532  0.00  0.00    +0.214 C 
ATOM     11  O   LIG A   1      -9.034   2.684 128.248  0.00  0.00    -0.158 OA
ENDBRANCH   7   8
BRANCH   6  12
ATOM     12  C   LIG A   1      -5.545   5.097 129.802  0.00  0.00    +0.020 C 
BRANCH  12  13
ATOM     13  C   LIG A   1      -4.202   5.584 130.431  0.00  0.00    +0.002 C 
BRANCH  13  14
ATOM     14  C   LIG A   1      -2.993   4.754 129.923  0.00  0.00    +0.000 C 
BRANCH  14  15
ATOM     15  C   LIG A   1      -3.336   3.767 128.793  0.00  0.00    -0.000 C 
BRANCH  15  16
ATOM     16  C   LIG A   1      -2.411   3.936 127.577  0.00  0.00    -0.000 C 
BRANCH  16  17
ATOM     17  C   LIG A   1      -3.003   3.511 126.243  0.00  0.00    -0.000 C 
BRANCH  17  18
ATOM     18  C   LIG A   1      -4.477   3.835 126.109  0.00  0.00    -0.000 C 
BRANCH  18  19
ATOM     19  C   LIG A   1      -5.456   2.661 125.846  0.00  0.00    -0.000 C 
BRANCH  19  20
ATOM     20  C   LIG A   1      -6.306   2.604 124.542  0.00  0.00    +0.000 C 
BRANCH  20  21
ATOM     21  C   LIG A   1      -7.481   1.629 124.531  0.00  0.00    +0.000 C 
BRANCH  21  22
ATOM     22  C   LIG A   1      -7.426   0.389 125.429  0.00  0.00    +0.007 C 
BRANCH  22  23
ATOM     23  C   LIG A   1      -8.618  -0.594 125.375  0.00  0.00    +0.074 C 
BRANCH  23  24
ATOM     24  C   LIG A   1      -8.843  -1.582 124.218  0.00  0.00    +0.130 C 
ATOM     25  C   LIG A   1      -9.051  -2.992 124.445  0.00  0.00    +0.086 C 
ATOM     26  O   LIG A   1      -8.776  -1.301 122.971  0.00  0.00    -0.298 OA
ENDBRANCH  23  24
ENDBRANCH  22  23
ENDBRANCH  21  22
ENDBRANCH  20  21
ENDBRANCH  19  20
ENDBRANCH  18  19
ENDBRANCH  17  18
ENDBRANCH  16  17
ENDBRANCH  15  16
ENDBRANCH  14  15
ENDBRANCH  13  14
ENDBRANCH  12  13
ENDBRANCH   6  12
BRANCH   3  27
ATOM     27  O   LIG A   1      -9.535   6.199 129.009  0.00  0.00    -0.429 OA
BRANCH  27  28
ATOM     28  C   LIG A   1     -10.249   7.276 128.642  0.00  0.00    +0.511 C 
ATOM     29  O   LIG A   1     -10.214   7.745 127.533  0.00  0.00    -0.203 OA
BRANCH  28  30
ATOM     30  O   LIG A   1     -10.949   7.867 129.688  0.00  0.00    -0.428 OA
BRANCH  30  31
ATOM     31  C   LIG A   1     -12.409   7.798 129.649  0.00  0.00    +0.109 C 
ATOM     32  C   LIG A   1     -12.957   9.159 129.218  0.00  0.00    +0.055 C 
ATOM     33  C   LIG A   1     -13.013   6.678 128.787  0.00  0.00    +0.055 C 
ATOM     34  C   LIG A   1     -12.885   7.535 131.104  0.00  0.00    +0.055 C 
ENDBRANCH  30  31
ENDBRANCH  28  30
ENDBRANCH  27  28
ENDBRANCH   3  27
TORSDOF 18
ENDMDL
MODEL 6
REMARK VINA RESULT:      -6.0      3.800      6.470
REMARK  Name = NuBBE_174
REMARK  24 active torsions:
REMARK  status: ('A' for Active; 'I' for Inactive)
REMARK    1  A    between atoms: C_1  and  C_2
REMARK    2  A    between atoms: C_4  and  O_6
REMARK    3  A    between atoms: O_6  and  C_7
REMARK    4  A    between atoms: C_7  and  O_8
REMARK    5  A    between atoms: O_8  and  C_9
REMARK    6  A    between atoms: C_9  and  C_10
REMARK    7  A    between atoms: C_9  and  C_11
REMARK    8  A    between atoms: C_9  and  C_12
REMARK    9  A    between atoms: C_16  and  C_18
REMARK   10  A    between atoms: C_18  and  C_19
REMARK   11  A    between atoms: C_19  and  C_20
REMARK   12  A    between atoms: C_20  and  C_21
REMARK   13  A    between atoms: C_21  and  C_22
REMARK   14  A    between atoms: C_22  and  C_23
REMARK   15  A    between atoms: C_23  and  C_24
REMARK   16  A    between atoms: C_24  and  C_25
REMARK   17  A    between atoms: C_25  and  C_26
REMARK   18  A    between atoms: C_26  and  C_27
REMARK   19  A    between atoms: C_27  and  C_28
REMARK   20  A    between atoms: C_28  and  C_29
REMARK   21  A    between atoms: C_29  and  C_30
REMARK   22  A    between atoms: C_30  and  C_31
REMARK   23  A    between atoms: N_33  and  S_34
REMARK   24  A    between atoms: S_34  and  C_36
REMARK                            x       y       z     vdW  Elec       q    Type
REMARK                         _______ _______ _______ _____ _____    ______ ____
ROOT
ATOM      1  C   LIG A   1      -7.911   4.834 131.878  0.00  0.00    +0.029 C 
ATOM      2  C   LIG A   1      -7.581   4.028 130.627  0.00  0.00    +0.117 C 
ATOM      3  C   LIG A   1      -8.020   4.801 129.368  0.00  0.00    +0.198 C 
ATOM      4  C   LIG A   1      -7.367   4.131 128.142  0.00  0.00    +0.048 C 
ATOM      5  C   LIG A   1      -6.486   2.905 128.499  0.00  0.00    +0.024 C 
ATOM      6  C   LIG A   1      -7.251   1.841 129.328  0.00  0.00    +0.080 C 
ATOM      7  N   LIG A   1      -8.074   2.603 130.424  0.00  0.00    -0.172 NA
ENDROOT
BRANCH   7   8
ATOM      8  S   LIG A   1      -8.833   1.780 131.687  0.00  0.00    +0.030 S 
ATOM      9  O   LIG A   1      -8.968   0.354 131.359  0.00  0.00    -0.158 OA
ATOM     10  C   LIG A   1      -7.602   1.819 132.955  0.00  0.00    +0.214 C 
ATOM     11  O   LIG A   1      -9.982   2.531 132.118  0.00  0.00    -0.158 OA
ENDBRANCH   7   8
BRANCH   6  12
ATOM     12  C   LIG A   1      -8.068   0.976 128.309  0.00  0.00    +0.020 C 
BRANCH  12  13
ATOM     13  C   LIG A   1      -7.364   0.559 126.980  0.00  0.00    +0.002 C 
BRANCH  13  14
ATOM     14  C   LIG A   1      -6.247  -0.491 127.224  0.00  0.00    +0.000 C 
BRANCH  14  15
ATOM     15  C   LIG A   1      -5.569  -1.000 125.939  0.00  0.00    -0.000 C 
BRANCH  15  16
ATOM     16  C   LIG A   1      -6.501  -0.912 124.720  0.00  0.00    -0.000 C 
BRANCH  16  17
ATOM     17  C   LIG A   1      -6.410  -2.077 123.745  0.00  0.00    -0.000 C 
BRANCH  17  18
ATOM     18  C   LIG A   1      -7.311  -3.237 124.111  0.00  0.00    -0.000 C 
BRANCH  18  19
ATOM     19  C   LIG A   1      -8.794  -2.926 124.443  0.00  0.00    -0.000 C 
BRANCH  19  20
ATOM     20  C   LIG A   1      -9.313  -2.975 125.911  0.00  0.00    +0.000 C 
BRANCH  20  21
ATOM     21  C   LIG A   1      -8.294  -3.337 126.988  0.00  0.00    +0.000 C 
BRANCH  21  22
ATOM     22  C   LIG A   1      -8.790  -3.673 128.398  0.00  0.00    +0.007 C 
BRANCH  22  23
ATOM     23  C   LIG A   1      -8.301  -2.785 129.566  0.00  0.00    +0.074 C 
BRANCH  23  24
ATOM     24  C   LIG A   1      -7.124  -3.168 130.478  0.00  0.00    +0.130 C 
ATOM     25  C   LIG A   1      -6.054  -4.024 130.028  0.00  0.00    +0.086 C 
ATOM     26  O   LIG A   1      -7.011  -2.869 131.718  0.00  0.00    -0.298 OA
ENDBRANCH  23  24
ENDBRANCH  22  23
ENDBRANCH  21  22
ENDBRANCH  20  21
ENDBRANCH  19  20
ENDBRANCH  18  19
ENDBRANCH  17  18
ENDBRANCH  16  17
ENDBRANCH  15  16
ENDBRANCH  14  15
ENDBRANCH  13  14
ENDBRANCH  12  13
ENDBRANCH   6  12
BRANCH   3  27
ATOM     27  O   LIG A   1      -9.496   4.809 129.326  0.00  0.00    -0.429 OA
BRANCH  27  28
ATOM     28  C   LIG A   1     -10.024   6.014 129.057  0.00  0.00    +0.511 C 
ATOM     29  O   LIG A   1      -9.878   6.577 128.001  0.00  0.00    -0.203 OA
BRANCH  28  30
ATOM     30  O   LIG A   1     -10.660   6.603 130.143  0.00  0.00    -0.428 OA
BRANCH  30  31
ATOM     31  C   LIG A   1     -11.953   7.243 129.903  0.00  0.00    +0.109 C 
ATOM     32  C   LIG A   1     -12.679   7.407 131.239  0.00  0.00    +0.055 C 
ATOM     33  C   LIG A   1     -11.919   8.578 129.143  0.00  0.00    +0.055 C 
ATOM     34  C   LIG A   1     -12.784   6.263 129.030  0.00  0.00    +0.055 C 
ENDBRANCH  30  31
ENDBRANCH  28  30
ENDBRANCH  27  28
ENDBRANCH   3  27
TORSDOF 18
ENDMDL
MODEL 7
REMARK VINA RESULT:      -6.0      3.487      6.922
REMARK  Name = NuBBE_174
REMARK  24 active torsions:
REMARK  status: ('A' for Active; 'I' for Inactive)
REMARK    1  A    between atoms: C_1  and  C_2
REMARK    2  A    between atoms: C_4  and  O_6
REMARK    3  A    between atoms: O_6  and  C_7
REMARK    4  A    between atoms: C_7  and  O_8
REMARK    5  A    between atoms: O_8  and  C_9
REMARK    6  A    between atoms: C_9  and  C_10
REMARK    7  A    between atoms: C_9  and  C_11
REMARK    8  A    between atoms: C_9  and  C_12
REMARK    9  A    between atoms: C_16  and  C_18
REMARK   10  A    between atoms: C_18  and  C_19
REMARK   11  A    between atoms: C_19  and  C_20
REMARK   12  A    between atoms: C_20  and  C_21
REMARK   13  A    between atoms: C_21  and  C_22
REMARK   14  A    between atoms: C_22  and  C_23
REMARK   15  A    between atoms: C_23  and  C_24
REMARK   16  A    between atoms: C_24  and  C_25
REMARK   17  A    between atoms: C_25  and  C_26
REMARK   18  A    between atoms: C_26  and  C_27
REMARK   19  A    between atoms: C_27  and  C_28
REMARK   20  A    between atoms: C_28  and  C_29
REMARK   21  A    between atoms: C_29  and  C_30
REMARK   22  A    between atoms: C_30  and  C_31
REMARK   23  A    between atoms: N_33  and  S_34
REMARK   24  A    between atoms: S_34  and  C_36
REMARK                            x       y       z     vdW  Elec       q    Type
REMARK                         _______ _______ _______ _____ _____    ______ ____
ROOT
ATOM      1  C   LIG A   1      -7.971   6.840 131.221  0.00  0.00    +0.029 C 
ATOM      2  C   LIG A   1      -8.027   5.367 131.609  0.00  0.00    +0.117 C 
ATOM      3  C   LIG A   1      -6.692   4.677 131.267  0.00  0.00    +0.198 C 
ATOM      4  C   LIG A   1      -6.664   3.310 131.979  0.00  0.00    +0.048 C 
ATOM      5  C   LIG A   1      -7.941   3.012 132.808  0.00  0.00    +0.024 C 
ATOM      6  C   LIG A   1      -9.239   3.136 131.967  0.00  0.00    +0.080 C 
ATOM      7  N   LIG A   1      -9.113   4.432 131.096  0.00  0.00    -0.172 NA
ENDROOT
BRANCH   7   8
ATOM      8  S   LIG A   1     -10.431   5.051 130.241  0.00  0.00    +0.030 S 
ATOM      9  O   LIG A   1     -11.462   4.018 130.074  0.00  0.00    -0.158 OA
ATOM     10  C   LIG A   1     -11.135   6.183 131.401  0.00  0.00    +0.214 C 
ATOM     11  O   LIG A   1      -9.952   5.780 129.097  0.00  0.00    -0.158 OA
ENDBRANCH   7   8
BRANCH   6  12
ATOM     12  C   LIG A   1      -9.407   1.782 131.196  0.00  0.00    +0.020 C 
BRANCH  12  13
ATOM     13  C   LIG A   1      -8.939   0.475 131.908  0.00  0.00    +0.002 C 
BRANCH  13  14
ATOM     14  C   LIG A   1      -8.095  -0.425 130.967  0.00  0.00    +0.000 C 
BRANCH  14  15
ATOM     15  C   LIG A   1      -7.832   0.187 129.579  0.00  0.00    -0.000 C 
BRANCH  15  16
ATOM     16  C   LIG A   1      -6.503  -0.295 128.977  0.00  0.00    -0.000 C 
BRANCH  16  17
ATOM     17  C   LIG A   1      -5.814  -1.419 129.735  0.00  0.00    -0.000 C 
BRANCH  17  18
ATOM     18  C   LIG A   1      -5.970  -2.773 129.074  0.00  0.00    -0.000 C 
BRANCH  18  19
ATOM     19  C   LIG A   1      -7.164  -3.659 129.513  0.00  0.00    -0.000 C 
BRANCH  19  20
ATOM     20  C   LIG A   1      -8.581  -3.457 128.899  0.00  0.00    +0.000 C 
BRANCH  20  21
ATOM     21  C   LIG A   1      -8.756  -3.844 127.433  0.00  0.00    +0.000 C 
BRANCH  21  22
ATOM     22  C   LIG A   1      -9.112  -2.757 126.414  0.00  0.00    +0.007 C 
BRANCH  22  23
ATOM     23  C   LIG A   1      -7.998  -1.767 125.997  0.00  0.00    +0.074 C 
BRANCH  23  24
ATOM     24  C   LIG A   1      -6.707  -2.204 125.286  0.00  0.00    +0.130 C 
ATOM     25  C   LIG A   1      -5.529  -1.372 125.260  0.00  0.00    +0.086 C 
ATOM     26  O   LIG A   1      -6.563  -3.262 124.581  0.00  0.00    -0.298 OA
ENDBRANCH  23  24
ENDBRANCH  22  23
ENDBRANCH  21  22
ENDBRANCH  20  21
ENDBRANCH  19  20
ENDBRANCH  18  19
ENDBRANCH  17  18
ENDBRANCH  16  17
ENDBRANCH  15  16
ENDBRANCH  14  15
ENDBRANCH  13  14
ENDBRANCH  12  13
ENDBRANCH   6  12
BRANCH   3  27
ATOM     27  O   LIG A   1      -6.587   4.585 129.797  0.00  0.00    -0.429 OA
BRANCH  27  28
ATOM     28  C   LIG A   1      -5.413   5.022 129.310  0.00  0.00    +0.511 C 
ATOM     29  O   LIG A   1      -4.587   5.583 129.985  0.00  0.00    -0.203 OA
BRANCH  28  30
ATOM     30  O   LIG A   1      -5.284   4.865 127.936  0.00  0.00    -0.428 OA
BRANCH  30  31
ATOM     31  C   LIG A   1      -4.157   4.069 127.449  0.00  0.00    +0.109 C 
ATOM     32  C   LIG A   1      -4.370   3.767 125.965  0.00  0.00    +0.055 C 
ATOM     33  C   LIG A   1      -2.758   4.661 127.682  0.00  0.00    +0.055 C 
ATOM     34  C   LIG A   1      -4.195   2.720 128.218  0.00  0.00    +0.055 C 
ENDBRANCH  30  31
ENDBRANCH  28  30
ENDBRANCH  27  28
ENDBRANCH   3  27
TORSDOF 18
ENDMDL
MODEL 8
REMARK VINA RESULT:      -6.0      3.623      5.843
REMARK  Name = NuBBE_174
REMARK  24 active torsions:
REMARK  status: ('A' for Active; 'I' for Inactive)
REMARK    1  A    between atoms: C_1  and  C_2
REMARK    2  A    between atoms: C_4  and  O_6
REMARK    3  A    between atoms: O_6  and  C_7
REMARK    4  A    between atoms: C_7  and  O_8
REMARK    5  A    between atoms: O_8  and  C_9
REMARK    6  A    between atoms: C_9  and  C_10
REMARK    7  A    between atoms: C_9  and  C_11
REMARK    8  A    between atoms: C_9  and  C_12
REMARK    9  A    between atoms: C_16  and  C_18
REMARK   10  A    between atoms: C_18  and  C_19
REMARK   11  A    between atoms: C_19  and  C_20
REMARK   12  A    between atoms: C_20  and  C_21
REMARK   13  A    between atoms: C_21  and  C_22
REMARK   14  A    between atoms: C_22  and  C_23
REMARK   15  A    between atoms: C_23  and  C_24
REMARK   16  A    between atoms: C_24  and  C_25
REMARK   17  A    between atoms: C_25  and  C_26
REMARK   18  A    between atoms: C_26  and  C_27
REMARK   19  A    between atoms: C_27  and  C_28
REMARK   20  A    between atoms: C_28  and  C_29
REMARK   21  A    between atoms: C_29  and  C_30
REMARK   22  A    between atoms: C_30  and  C_31
REMARK   23  A    between atoms: N_33  and  S_34
REMARK   24  A    between atoms: S_34  and  C_36
REMARK                            x       y       z     vdW  Elec       q    Type
REMARK                         _______ _______ _______ _____ _____    ______ ____
ROOT
ATOM      1  C   LIG A   1      -8.285   5.798 132.344  0.00  0.00    +0.029 C 
ATOM      2  C   LIG A   1      -8.051   4.831 131.189  0.00  0.00    +0.117 C 
ATOM      3  C   LIG A   1      -8.979   5.180 130.009  0.00  0.00    +0.198 C 
ATOM      4  C   LIG A   1      -8.476   4.421 128.764  0.00  0.00    +0.048 C 
ATOM      5  C   LIG A   1      -7.226   3.543 129.032  0.00  0.00    +0.024 C 
ATOM      6  C   LIG A   1      -7.438   2.545 130.201  0.00  0.00    +0.080 C 
ATOM      7  N   LIG A   1      -8.156   3.322 131.358  0.00  0.00    -0.172 NA
ENDROOT
BRANCH   7   8
ATOM      8  S   LIG A   1      -8.326   2.650 132.897  0.00  0.00    +0.030 S 
ATOM      9  O   LIG A   1      -8.241   1.186 132.828  0.00  0.00    -0.158 OA
ATOM     10  C   LIG A   1      -6.821   3.135 133.688  0.00  0.00    +0.214 C 
ATOM     11  O   LIG A   1      -9.436   3.276 133.566  0.00  0.00    -0.158 OA
ENDBRANCH   7   8
BRANCH   6  12
ATOM     12  C   LIG A   1      -8.197   1.310 129.607  0.00  0.00    +0.020 C 
BRANCH  12  13
ATOM     13  C   LIG A   1      -7.361   0.252 128.820  0.00  0.00    +0.002 C 
BRANCH  13  14
ATOM     14  C   LIG A   1      -8.026  -0.118 127.468  0.00  0.00    +0.000 C 
BRANCH  14  15
ATOM     15  C   LIG A   1      -7.551  -1.459 126.878  0.00  0.00    -0.000 C 
BRANCH  15  16
ATOM     16  C   LIG A   1      -8.689  -2.487 126.790  0.00  0.00    -0.000 C 
BRANCH  16  17
ATOM     17  C   LIG A   1      -8.442  -3.654 125.847  0.00  0.00    -0.000 C 
BRANCH  17  18
ATOM     18  C   LIG A   1      -8.068  -3.224 124.444  0.00  0.00    -0.000 C 
BRANCH  18  19
ATOM     19  C   LIG A   1      -9.206  -2.747 123.505  0.00  0.00    -0.000 C 
BRANCH  19  20
ATOM     20  C   LIG A   1      -9.135  -1.359 122.800  0.00  0.00    +0.000 C 
BRANCH  20  21
ATOM     21  C   LIG A   1      -8.848  -0.152 123.689  0.00  0.00    +0.000 C 
BRANCH  21  22
ATOM     22  C   LIG A   1      -7.589   0.681 123.427  0.00  0.00    +0.007 C 
BRANCH  22  23
ATOM     23  C   LIG A   1      -7.085   1.603 124.562  0.00  0.00    +0.074 C 
BRANCH  23  24
ATOM     24  C   LIG A   1      -7.836   2.864 125.019  0.00  0.00    +0.130 C 
ATOM     25  C   LIG A   1      -7.155   4.109 125.277  0.00  0.00    +0.086 C 
ATOM     26  O   LIG A   1      -9.081   2.930 125.307  0.00  0.00    -0.298 OA
ENDBRANCH  23  24
ENDBRANCH  22  23
ENDBRANCH  21  22
ENDBRANCH  20  21
ENDBRANCH  19  20
ENDBRANCH  18  19
ENDBRANCH  17  18
ENDBRANCH  16  17
ENDBRANCH  15  16
ENDBRANCH  14  15
ENDBRANCH  13  14
ENDBRANCH  12  13
ENDBRANCH   6  12
BRANCH   3  27
ATOM     27  O   LIG A   1     -10.362   4.838 130.396  0.00  0.00    -0.429 OA
BRANCH  27  28
ATOM     28  C   LIG A   1     -11.228   5.857 130.264  0.00  0.00    +0.511 C 
ATOM     29  O   LIG A   1     -11.533   6.586 131.174  0.00  0.00    -0.203 OA
BRANCH  28  30
ATOM     30  O   LIG A   1     -11.825   5.925 129.011  0.00  0.00    -0.428 OA
BRANCH  30  31
ATOM     31  C   LIG A   1     -12.001   7.251 128.418  0.00  0.00    +0.109 C 
ATOM     32  C   LIG A   1     -12.631   7.093 127.033  0.00  0.00    +0.055 C 
ATOM     33  C   LIG A   1     -12.791   8.269 129.255  0.00  0.00    +0.055 C 
ATOM     34  C   LIG A   1     -10.580   7.849 128.226  0.00  0.00    +0.055 C 
ENDBRANCH  30  31
ENDBRANCH  28  30
ENDBRANCH  27  28
ENDBRANCH   3  27
TORSDOF 18
ENDMDL
MODEL 9
REMARK VINA RESULT:      -6.0      4.289      8.536
REMARK  Name = NuBBE_174
REMARK  24 active torsions:
REMARK  status: ('A' for Active; 'I' for Inactive)
REMARK    1  A    between atoms: C_1  and  C_2
REMARK    2  A    between atoms: C_4  and  O_6
REMARK    3  A    between atoms: O_6  and  C_7
REMARK    4  A    between atoms: C_7  and  O_8
REMARK    5  A    between atoms: O_8  and  C_9
REMARK    6  A    between atoms: C_9  and  C_10
REMARK    7  A    between atoms: C_9  and  C_11
REMARK    8  A    between atoms: C_9  and  C_12
REMARK    9  A    between atoms: C_16  and  C_18
REMARK   10  A    between atoms: C_18  and  C_19
REMARK   11  A    between atoms: C_19  and  C_20
REMARK   12  A    between atoms: C_20  and  C_21
REMARK   13  A    between atoms: C_21  and  C_22
REMARK   14  A    between atoms: C_22  and  C_23
REMARK   15  A    between atoms: C_23  and  C_24
REMARK   16  A    between atoms: C_24  and  C_25
REMARK   17  A    between atoms: C_25  and  C_26
REMARK   18  A    between atoms: C_26  and  C_27
REMARK   19  A    between atoms: C_27  and  C_28
REMARK   20  A    between atoms: C_28  and  C_29
REMARK   21  A    between atoms: C_29  and  C_30
REMARK   22  A    between atoms: C_30  and  C_31
REMARK   23  A    between atoms: N_33  and  S_34
REMARK   24  A    between atoms: S_34  and  C_36
REMARK                            x       y       z     vdW  Elec       q    Type
REMARK                         _______ _______ _______ _____ _____    ______ ____
ROOT
ATOM      1  C   LIG A   1      -7.987   4.695 128.455  0.00  0.00    +0.029 C 
ATOM      2  C   LIG A   1      -7.683   3.306 127.906  0.00  0.00    +0.117 C 
ATOM      3  C   LIG A   1      -6.387   2.759 128.537  0.00  0.00    +0.198 C 
ATOM      4  C   LIG A   1      -6.304   1.250 128.231  0.00  0.00    +0.048 C 
ATOM      5  C   LIG A   1      -7.501   0.717 127.399  0.00  0.00    +0.024 C 
ATOM      6  C   LIG A   1      -7.707   1.506 126.080  0.00  0.00    +0.080 C 
ATOM      7  N   LIG A   1      -7.559   3.030 126.415  0.00  0.00    -0.172 NA
ENDROOT
BRANCH   7   8
ATOM      8  S   LIG A   1      -7.971   4.223 125.294  0.00  0.00    +0.030 S 
ATOM      9  O   LIG A   1      -8.734   5.295 125.946  0.00  0.00    -0.158 OA
ATOM     10  C   LIG A   1      -6.405   4.960 124.936  0.00  0.00    +0.214 C 
ATOM     11  O   LIG A   1      -8.484   3.597 124.104  0.00  0.00    -0.158 OA
ENDBRANCH   7   8
BRANCH   6  12
ATOM     12  C   LIG A   1      -6.699   0.913 125.037  0.00  0.00    +0.020 C 
BRANCH  12  13
ATOM     13  C   LIG A   1      -7.286   0.256 123.749  0.00  0.00    +0.002 C 
BRANCH  13  14
ATOM     14  C   LIG A   1      -8.816   0.024 123.866  0.00  0.00    +0.000 C 
BRANCH  14  15
ATOM     15  C   LIG A   1      -9.416  -0.814 122.722  0.00  0.00    -0.000 C 
BRANCH  15  16
ATOM     16  C   LIG A   1      -8.783  -2.211 122.635  0.00  0.00    -0.000 C 
BRANCH  16  17
ATOM     17  C   LIG A   1      -9.302  -3.225 123.643  0.00  0.00    -0.000 C 
BRANCH  17  18
ATOM     18  C   LIG A   1      -8.200  -3.965 124.372  0.00  0.00    -0.000 C 
BRANCH  18  19
ATOM     19  C   LIG A   1      -7.102  -3.123 125.071  0.00  0.00    -0.000 C 
BRANCH  19  20
ATOM     20  C   LIG A   1      -7.341  -2.505 126.481  0.00  0.00    +0.000 C 
BRANCH  20  21
ATOM     21  C   LIG A   1      -8.665  -2.841 127.162  0.00  0.00    +0.000 C 
BRANCH  21  22
ATOM     22  C   LIG A   1      -8.651  -3.691 128.436  0.00  0.00    +0.007 C 
BRANCH  22  23
ATOM     23  C   LIG A   1      -7.450  -3.530 129.397  0.00  0.00    +0.074 C 
BRANCH  23  24
ATOM     24  C   LIG A   1      -7.494  -2.653 130.660  0.00  0.00    +0.130 C 
ATOM     25  C   LIG A   1      -7.943  -1.283 130.625  0.00  0.00    +0.086 C 
ATOM     26  O   LIG A   1      -7.063  -2.988 131.818  0.00  0.00    -0.298 OA
ENDBRANCH  23  24
ENDBRANCH  22  23
ENDBRANCH  21  22
ENDBRANCH  20  21
ENDBRANCH  19  20
ENDBRANCH  18  19
ENDBRANCH  17  18
ENDBRANCH  16  17
ENDBRANCH  15  16
ENDBRANCH  14  15
ENDBRANCH  13  14
ENDBRANCH  12  13
ENDBRANCH   6  12
BRANCH   3  27
ATOM     27  O   LIG A   1      -5.252   3.538 128.000  0.00  0.00    -0.429 OA
BRANCH  27  28
ATOM     28  C   LIG A   1      -4.083   3.282 128.610  0.00  0.00    +0.511 C 
ATOM     29  O   LIG A   1      -3.157   2.741 128.061  0.00  0.00    -0.203 OA
BRANCH  28  30
ATOM     30  O   LIG A   1      -4.077   3.598 129.964  0.00  0.00    -0.428 OA
BRANCH  30  31
ATOM     31  C   LIG A   1      -3.536   4.901 130.351  0.00  0.00    +0.109 C 
ATOM     32  C   LIG A   1      -2.597   4.712 131.543  0.00  0.00    +0.055 C 
ATOM     33  C   LIG A   1      -2.841   5.704 129.241  0.00  0.00    +0.055 C 
ATOM     34  C   LIG A   1      -4.739   5.762 130.827  0.00  0.00    +0.055 C 
ENDBRANCH  30  31
ENDBRANCH  28  30
ENDBRANCH  27  28
ENDBRANCH   3  27
TORSDOF 18
ENDMDL
