MODEL 1
REMARK VINA RESULT:      -8.6      0.000      0.000
REMARK  Name = NuBBE_985
REMARK  13 active torsions:
REMARK  status: ('A' for Active; 'I' for Inactive)
REMARK    1  A    between atoms: C_1  and  C_2
REMARK    2  A    between atoms: C_2  and  C_35
REMARK    3  A    between atoms: C_11  and  C_29
REMARK    4  A    between atoms: C_12  and  C_28
REMARK    5  A    between atoms: C_15  and  C_17
REMARK    6  A    between atoms: C_17  and  C_19
REMARK    7  A    between atoms: C_17  and  C_20
REMARK    8  A    between atoms: C_20  and  O_21
REMARK    9  A    between atoms: C_20  and  C_22
REMARK   10  A    between atoms: C_23  and  C_24
REMARK   11  A    between atoms: C_24  and  O_25
REMARK   12  A    between atoms: C_24  and  C_26
REMARK   13  A    between atoms: C_24  and  C_27
REMARK                            x       y       z     vdW  Elec       q    Type
REMARK                         _______ _______ _______ _____ _____    ______ ____
ROOT
ATOM      1  C   LIG A   1     -10.579   6.273 129.501  0.00  0.00    +0.019 C 
ATOM      2  C   LIG A   1      -9.513   5.269 129.991  0.00  0.00    +0.027 C 
ATOM      3  C   LIG A   1     -10.234   3.975 130.405  0.00  0.00    +0.139 C 
ATOM      4  C   LIG A   1      -9.406   2.948 131.129  0.00  0.00    +0.075 C 
ATOM      5  C   LIG A   1      -8.849   3.604 132.366  0.00  0.00    +0.015 C 
ATOM      6  C   LIG A   1      -7.979   4.814 132.034  0.00  0.00    -0.019 C 
ATOM      7  C   LIG A   1      -7.129   5.192 133.235  0.00  0.00    +0.015 C 
ATOM      8  C   LIG A   1      -6.445   4.777 131.952  0.00  0.00    -0.019 C 
ATOM      9  C   LIG A   1      -5.810   3.417 131.829  0.00  0.00    +0.008 C 
ATOM     10  C   LIG A   1      -4.333   3.448 132.180  0.00  0.00    +0.008 C 
ATOM     11  C   LIG A   1      -3.486   4.494 131.435  0.00  0.00    -0.023 C 
ATOM     12  C   LIG A   1      -4.174   5.919 131.528  0.00  0.00    -0.023 C 
ATOM     13  C   LIG A   1      -3.376   6.706 130.472  0.00  0.00    +0.008 C 
ATOM     14  C   LIG A   1      -3.224   5.743 129.305  0.00  0.00    +0.005 C 
ATOM     15  C   LIG A   1      -3.151   4.304 129.893  0.00  0.00    +0.001 C 
ATOM     16  C   LIG A   1      -3.986   6.598 132.903  0.00  0.00    +0.012 C 
ATOM     17  C   LIG A   1      -2.097   4.458 132.158  0.00  0.00    +0.012 C 
ATOM     18  C   LIG A   1      -5.713   5.847 131.141  0.00  0.00    +0.002 C 
ATOM     19  C   LIG A   1      -6.441   7.201 131.231  0.00  0.00    +0.005 C 
ATOM     20  C   LIG A   1      -7.895   7.118 130.783  0.00  0.00    +0.005 C 
ATOM     21  C   LIG A   1      -8.730   5.884 131.216  0.00  0.00    +0.009 C 
ATOM     22  O   LIG A   1     -11.393   3.728 130.091  0.00  0.00    -0.297 OA
ATOM     23  C   LIG A   1      -8.606   4.886 128.802  0.00  0.00    +0.019 C 
ENDROOT
BRANCH  15  24
ATOM     24  C   LIG A   1      -3.889   3.287 128.958  0.00  0.00    +0.022 C 
ATOM     25  C   LIG A   1      -3.776   1.824 129.426  0.00  0.00    +0.010 C 
BRANCH  24  26
ATOM     26  C   LIG A   1      -3.337   3.389 127.488  0.00  0.00    +0.140 C 
BRANCH  26  27
ATOM     27  O   LIG A   1      -2.450   2.309 127.215  0.00  0.00    -0.388 OA
ATOM     28  H   LIG A   1      -1.544   2.641 127.325  0.00  0.00    +0.210 HD
ENDBRANCH  26  27
BRANCH  26  29
ATOM     29  C   LIG A   1      -4.432   3.446 126.451  0.00  0.00    +0.003 C 
ATOM     30  C   LIG A   1      -5.165   4.518 126.093  0.00  0.00    +0.005 C 
BRANCH  30  31
ATOM     31  C   LIG A   1      -6.261   4.548 125.049  0.00  0.00    +0.079 C 
ATOM     32  C   LIG A   1      -5.818   4.118 123.645  0.00  0.00    +0.045 C 
ATOM     33  C   LIG A   1      -7.461   3.704 125.486  0.00  0.00    +0.045 C 
BRANCH  31  34
ATOM     34  O   LIG A   1      -6.707   5.903 124.969  0.00  0.00    -0.385 OA
ATOM     35  H   LIG A   1      -7.495   5.914 124.400  0.00  0.00    +0.211 HD
ENDBRANCH  31  34
ENDBRANCH  30  31
ENDBRANCH  26  29
ENDBRANCH  24  26
ENDBRANCH  15  24
TORSDOF 6
ENDMDL
MODEL 2
REMARK VINA RESULT:      -8.5      1.315      1.705
REMARK  Name = NuBBE_985
REMARK  13 active torsions:
REMARK  status: ('A' for Active; 'I' for Inactive)
REMARK    1  A    between atoms: C_1  and  C_2
REMARK    2  A    between atoms: C_2  and  C_35
REMARK    3  A    between atoms: C_11  and  C_29
REMARK    4  A    between atoms: C_12  and  C_28
REMARK    5  A    between atoms: C_15  and  C_17
REMARK    6  A    between atoms: C_17  and  C_19
REMARK    7  A    between atoms: C_17  and  C_20
REMARK    8  A    between atoms: C_20  and  O_21
REMARK    9  A    between atoms: C_20  and  C_22
REMARK   10  A    between atoms: C_23  and  C_24
REMARK   11  A    between atoms: C_24  and  O_25
REMARK   12  A    between atoms: C_24  and  C_26
REMARK   13  A    between atoms: C_24  and  C_27
REMARK                            x       y       z     vdW  Elec       q    Type
REMARK                         _______ _______ _______ _____ _____    ______ ____
ROOT
ATOM      1  C   LIG A   1     -10.435   4.876 130.725  0.00  0.00    +0.019 C 
ATOM      2  C   LIG A   1      -8.999   4.314 130.814  0.00  0.00    +0.027 C 
ATOM      3  C   LIG A   1      -9.080   2.899 131.412  0.00  0.00    +0.139 C 
ATOM      4  C   LIG A   1      -7.773   2.260 131.800  0.00  0.00    +0.075 C 
ATOM      5  C   LIG A   1      -7.103   3.167 132.800  0.00  0.00    +0.015 C 
ATOM      6  C   LIG A   1      -6.837   4.557 132.228  0.00  0.00    -0.019 C 
ATOM      7  C   LIG A   1      -5.826   5.293 133.091  0.00  0.00    +0.015 C 
ATOM      8  C   LIG A   1      -5.488   5.006 131.646  0.00  0.00    -0.019 C 
ATOM      9  C   LIG A   1      -4.512   3.917 131.289  0.00  0.00    +0.008 C 
ATOM     10  C   LIG A   1      -3.098   4.450 131.135  0.00  0.00    +0.008 C 
ATOM     11  C   LIG A   1      -2.930   5.642 130.178  0.00  0.00    -0.023 C 
ATOM     12  C   LIG A   1      -3.984   6.774 130.525  0.00  0.00    -0.023 C 
ATOM     13  C   LIG A   1      -3.871   7.678 129.284  0.00  0.00    +0.008 C 
ATOM     14  C   LIG A   1      -3.787   6.716 128.110  0.00  0.00    +0.005 C 
ATOM     15  C   LIG A   1      -3.058   5.434 128.607  0.00  0.00    +0.001 C 
ATOM     16  C   LIG A   1      -3.605   7.596 131.777  0.00  0.00    +0.012 C 
ATOM     17  C   LIG A   1      -1.455   6.117 130.404  0.00  0.00    +0.012 C 
ATOM     18  C   LIG A   1      -5.450   6.178 130.663  0.00  0.00    +0.002 C 
ATOM     19  C   LIG A   1      -6.517   7.230 131.019  0.00  0.00    +0.005 C 
ATOM     20  C   LIG A   1      -7.924   6.646 131.072  0.00  0.00    +0.005 C 
ATOM     21  C   LIG A   1      -8.118   5.253 131.727  0.00  0.00    +0.009 C 
ATOM     22  O   LIG A   1     -10.127   2.267 131.491  0.00  0.00    -0.297 OA
ATOM     23  C   LIG A   1      -8.444   4.138 129.384  0.00  0.00    +0.019 C 
ENDROOT
BRANCH  15  24
ATOM     24  C   LIG A   1      -3.673   4.155 127.944  0.00  0.00    +0.022 C 
ATOM     25  C   LIG A   1      -2.671   2.995 127.793  0.00  0.00    +0.010 C 
BRANCH  24  26
ATOM     26  C   LIG A   1      -4.264   4.499 126.527  0.00  0.00    +0.140 C 
BRANCH  26  27
ATOM     27  O   LIG A   1      -3.461   3.921 125.501  0.00  0.00    -0.388 OA
ATOM     28  H   LIG A   1      -3.240   3.017 125.779  0.00  0.00    +0.210 HD
ENDBRANCH  26  27
BRANCH  26  29
ATOM     29  C   LIG A   1      -5.703   4.074 126.369  0.00  0.00    +0.003 C 
ATOM     30  C   LIG A   1      -6.403   3.969 125.223  0.00  0.00    +0.005 C 
BRANCH  30  31
ATOM     31  C   LIG A   1      -7.851   3.543 125.091  0.00  0.00    +0.079 C 
ATOM     32  C   LIG A   1      -8.251   3.069 123.689  0.00  0.00    +0.045 C 
ATOM     33  C   LIG A   1      -8.201   2.460 126.115  0.00  0.00    +0.045 C 
BRANCH  31  34
ATOM     34  O   LIG A   1      -8.641   4.690 125.406  0.00  0.00    -0.385 OA
ATOM     35  H   LIG A   1      -8.496   5.341 124.699  0.00  0.00    +0.211 HD
ENDBRANCH  31  34
ENDBRANCH  30  31
ENDBRANCH  26  29
ENDBRANCH  24  26
ENDBRANCH  15  24
TORSDOF 6
ENDMDL
MODEL 3
REMARK VINA RESULT:      -8.3      4.399      6.127
REMARK  Name = NuBBE_985
REMARK  13 active torsions:
REMARK  status: ('A' for Active; 'I' for Inactive)
REMARK    1  A    between atoms: C_1  and  C_2
REMARK    2  A    between atoms: C_2  and  C_35
REMARK    3  A    between atoms: C_11  and  C_29
REMARK    4  A    between atoms: C_12  and  C_28
REMARK    5  A    between atoms: C_15  and  C_17
REMARK    6  A    between atoms: C_17  and  C_19
REMARK    7  A    between atoms: C_17  and  C_20
REMARK    8  A    between atoms: C_20  and  O_21
REMARK    9  A    between atoms: C_20  and  C_22
REMARK   10  A    between atoms: C_23  and  C_24
REMARK   11  A    between atoms: C_24  and  O_25
REMARK   12  A    between atoms: C_24  and  C_26
REMARK   13  A    between atoms: C_24  and  C_27
REMARK                            x       y       z     vdW  Elec       q    Type
REMARK                         _______ _______ _______ _____ _____    ______ ____
ROOT
ATOM      1  C   LIG A   1      -7.936   4.385 129.496  0.00  0.00    +0.019 C 
ATOM      2  C   LIG A   1      -8.300   2.949 129.933  0.00  0.00    +0.027 C 
ATOM      3  C   LIG A   1      -9.654   3.004 130.661  0.00  0.00    +0.139 C 
ATOM      4  C   LIG A   1     -10.084   1.748 131.372  0.00  0.00    +0.075 C 
ATOM      5  C   LIG A   1      -9.013   1.404 132.374  0.00  0.00    +0.015 C 
ATOM      6  C   LIG A   1      -7.657   1.172 131.711  0.00  0.00    -0.019 C 
ATOM      7  C   LIG A   1      -6.724   0.449 132.667  0.00  0.00    +0.015 C 
ATOM      8  C   LIG A   1      -7.095  -0.215 131.361  0.00  0.00    -0.019 C 
ATOM      9  C   LIG A   1      -8.080  -1.354 131.332  0.00  0.00    +0.008 C 
ATOM     10  C   LIG A   1      -7.388  -2.704 131.403  0.00  0.00    +0.008 C 
ATOM     11  C   LIG A   1      -6.276  -2.944 130.367  0.00  0.00    -0.023 C 
ATOM     12  C   LIG A   1      -5.260  -1.727 130.366  0.00  0.00    -0.023 C 
ATOM     13  C   LIG A   1      -4.465  -2.002 129.076  0.00  0.00    +0.008 C 
ATOM     14  C   LIG A   1      -5.511  -2.433 128.061  0.00  0.00    +0.005 C 
ATOM     15  C   LIG A   1      -6.640  -3.172 128.837  0.00  0.00    +0.001 C 
ATOM     16  C   LIG A   1      -4.286  -1.744 131.565  0.00  0.00    +0.012 C 
ATOM     17  C   LIG A   1      -5.598  -4.279 130.825  0.00  0.00    +0.012 C 
ATOM     18  C   LIG A   1      -6.022  -0.336 130.277  0.00  0.00    +0.002 C 
ATOM     19  C   LIG A   1      -5.087   0.888 130.290  0.00  0.00    +0.005 C 
ATOM     20  C   LIG A   1      -5.837   2.204 130.130  0.00  0.00    +0.005 C 
ATOM     21  C   LIG A   1      -7.178   2.384 130.888  0.00  0.00    +0.009 C 
ATOM     22  O   LIG A   1     -10.404   3.971 130.602  0.00  0.00    -0.297 OA
ATOM     23  C   LIG A   1      -8.533   2.089 128.672  0.00  0.00    +0.019 C 
ENDROOT
BRANCH  15  24
ATOM     24  C   LIG A   1      -8.041  -2.849 128.216  0.00  0.00    +0.022 C 
ATOM     25  C   LIG A   1      -9.084  -3.961 128.435  0.00  0.00    +0.010 C 
BRANCH  24  26
ATOM     26  C   LIG A   1      -7.911  -2.578 126.672  0.00  0.00    +0.140 C 
BRANCH  26  27
ATOM     27  O   LIG A   1      -8.404  -3.689 125.929  0.00  0.00    -0.388 OA
ATOM     28  H   LIG A   1      -8.219  -4.490 126.446  0.00  0.00    +0.210 HD
ENDBRANCH  26  27
BRANCH  26  29
ATOM     29  C   LIG A   1      -8.599  -1.307 126.236  0.00  0.00    +0.003 C 
ATOM     30  C   LIG A   1      -8.577  -0.744 125.013  0.00  0.00    +0.005 C 
BRANCH  30  31
ATOM     31  C   LIG A   1      -9.275   0.536 124.601  0.00  0.00    +0.079 C 
ATOM     32  C   LIG A   1      -8.506   1.819 124.939  0.00  0.00    +0.045 C 
ATOM     33  C   LIG A   1      -9.614   0.523 123.109  0.00  0.00    +0.045 C 
BRANCH  31  34
ATOM     34  O   LIG A   1     -10.513   0.570 125.314  0.00  0.00    -0.385 OA
ATOM     35  H   LIG A   1     -11.196   0.861 124.688  0.00  0.00    +0.211 HD
ENDBRANCH  31  34
ENDBRANCH  30  31
ENDBRANCH  26  29
ENDBRANCH  24  26
ENDBRANCH  15  24
TORSDOF 6
ENDMDL
MODEL 4
REMARK VINA RESULT:      -8.3      4.323      8.276
REMARK  Name = NuBBE_985
REMARK  13 active torsions:
REMARK  status: ('A' for Active; 'I' for Inactive)
REMARK    1  A    between atoms: C_1  and  C_2
REMARK    2  A    between atoms: C_2  and  C_35
REMARK    3  A    between atoms: C_11  and  C_29
REMARK    4  A    between atoms: C_12  and  C_28
REMARK    5  A    between atoms: C_15  and  C_17
REMARK    6  A    between atoms: C_17  and  C_19
REMARK    7  A    between atoms: C_17  and  C_20
REMARK    8  A    between atoms: C_20  and  O_21
REMARK    9  A    between atoms: C_20  and  C_22
REMARK   10  A    between atoms: C_23  and  C_24
REMARK   11  A    between atoms: C_24  and  O_25
REMARK   12  A    between atoms: C_24  and  C_26
REMARK   13  A    between atoms: C_24  and  C_27
REMARK                            x       y       z     vdW  Elec       q    Type
REMARK                         _______ _______ _______ _____ _____    ______ ____
ROOT
ATOM      1  C   LIG A   1      -4.161  -2.603 128.915  0.00  0.00    +0.019 C 
ATOM      2  C   LIG A   1      -5.407  -1.753 128.585  0.00  0.00    +0.027 C 
ATOM      3  C   LIG A   1      -6.158  -1.482 129.900  0.00  0.00    +0.139 C 
ATOM      4  C   LIG A   1      -7.526  -0.867 129.777  0.00  0.00    +0.075 C 
ATOM      5  C   LIG A   1      -8.363  -1.787 128.928  0.00  0.00    +0.015 C 
ATOM      6  C   LIG A   1      -7.769  -1.984 127.535  0.00  0.00    -0.019 C 
ATOM      7  C   LIG A   1      -8.814  -2.567 126.599  0.00  0.00    +0.015 C 
ATOM      8  C   LIG A   1      -8.223  -1.211 126.287  0.00  0.00    -0.019 C 
ATOM      9  C   LIG A   1      -9.019   0.044 126.524  0.00  0.00    +0.008 C 
ATOM     10  C   LIG A   1      -9.765   0.487 125.278  0.00  0.00    +0.008 C 
ATOM     11  C   LIG A   1      -8.917   0.635 124.004  0.00  0.00    -0.023 C 
ATOM     12  C   LIG A   1      -8.046  -0.670 123.773  0.00  0.00    -0.023 C 
ATOM     13  C   LIG A   1      -7.064  -0.187 122.690  0.00  0.00    +0.008 C 
ATOM     14  C   LIG A   1      -6.669   1.216 123.122  0.00  0.00    +0.005 C 
ATOM     15  C   LIG A   1      -7.890   1.840 123.858  0.00  0.00    +0.001 C 
ATOM     16  C   LIG A   1      -8.862  -1.856 123.214  0.00  0.00    +0.012 C 
ATOM     17  C   LIG A   1      -9.965   0.856 122.861  0.00  0.00    +0.012 C 
ATOM     18  C   LIG A   1      -7.272  -1.091 125.095  0.00  0.00    +0.002 C 
ATOM     19  C   LIG A   1      -6.421  -2.365 124.938  0.00  0.00    +0.005 C 
ATOM     20  C   LIG A   1      -5.631  -2.704 126.196  0.00  0.00    +0.005 C 
ATOM     21  C   LIG A   1      -6.330  -2.536 127.572  0.00  0.00    +0.009 C 
ATOM     22  O   LIG A   1      -5.654  -1.659 131.004  0.00  0.00    -0.297 OA
ATOM     23  C   LIG A   1      -4.947  -0.373 128.069  0.00  0.00    +0.019 C 
ENDROOT
BRANCH  15  24
ATOM     24  C   LIG A   1      -7.418   2.733 125.055  0.00  0.00    +0.022 C 
ATOM     25  C   LIG A   1      -8.424   3.834 125.439  0.00  0.00    +0.010 C 
BRANCH  24  26
ATOM     26  C   LIG A   1      -6.034   3.407 124.728  0.00  0.00    +0.140 C 
BRANCH  26  27
ATOM     27  O   LIG A   1      -6.198   4.808 124.535  0.00  0.00    -0.388 OA
ATOM     28  H   LIG A   1      -6.251   5.220 125.414  0.00  0.00    +0.210 HD
ENDBRANCH  26  27
BRANCH  26  29
ATOM     29  C   LIG A   1      -4.986   3.140 125.780  0.00  0.00    +0.003 C 
ATOM     30  C   LIG A   1      -3.853   3.836 126.000  0.00  0.00    +0.005 C 
BRANCH  30  31
ATOM     31  C   LIG A   1      -2.814   3.545 127.063  0.00  0.00    +0.079 C 
ATOM     32  C   LIG A   1      -1.485   3.001 126.523  0.00  0.00    +0.045 C 
ATOM     33  C   LIG A   1      -2.546   4.782 127.924  0.00  0.00    +0.045 C 
BRANCH  31  34
ATOM     34  O   LIG A   1      -3.377   2.550 127.919  0.00  0.00    -0.385 OA
ATOM     35  H   LIG A   1      -2.655   1.955 128.181  0.00  0.00    +0.211 HD
ENDBRANCH  31  34
ENDBRANCH  30  31
ENDBRANCH  26  29
ENDBRANCH  24  26
ENDBRANCH  15  24
TORSDOF 6
ENDMDL
MODEL 5
REMARK VINA RESULT:      -8.2      4.366      7.224
REMARK  Name = NuBBE_985
REMARK  13 active torsions:
REMARK  status: ('A' for Active; 'I' for Inactive)
REMARK    1  A    between atoms: C_1  and  C_2
REMARK    2  A    between atoms: C_2  and  C_35
REMARK    3  A    between atoms: C_11  and  C_29
REMARK    4  A    between atoms: C_12  and  C_28
REMARK    5  A    between atoms: C_15  and  C_17
REMARK    6  A    between atoms: C_17  and  C_19
REMARK    7  A    between atoms: C_17  and  C_20
REMARK    8  A    between atoms: C_20  and  O_21
REMARK    9  A    between atoms: C_20  and  C_22
REMARK   10  A    between atoms: C_23  and  C_24
REMARK   11  A    between atoms: C_24  and  O_25
REMARK   12  A    between atoms: C_24  and  C_26
REMARK   13  A    between atoms: C_24  and  C_27
REMARK                            x       y       z     vdW  Elec       q    Type
REMARK                         _______ _______ _______ _____ _____    ______ ____
ROOT
ATOM      1  C   LIG A   1      -9.390  -2.971 124.773  0.00  0.00    +0.019 C 
ATOM      2  C   LIG A   1      -8.282  -2.084 125.382  0.00  0.00    +0.027 C 
ATOM      3  C   LIG A   1      -7.283  -1.741 124.264  0.00  0.00    +0.139 C 
ATOM      4  C   LIG A   1      -6.002  -1.076 124.692  0.00  0.00    +0.075 C 
ATOM      5  C   LIG A   1      -5.323  -1.991 125.678  0.00  0.00    +0.015 C 
ATOM      6  C   LIG A   1      -6.190  -2.257 126.907  0.00  0.00    -0.019 C 
ATOM      7  C   LIG A   1      -5.342  -2.829 128.030  0.00  0.00    +0.015 C 
ATOM      8  C   LIG A   1      -6.048  -1.509 128.241  0.00  0.00    -0.019 C 
ATOM      9  C   LIG A   1      -5.277  -0.215 128.210  0.00  0.00    +0.008 C 
ATOM     10  C   LIG A   1      -4.834   0.215 129.597  0.00  0.00    +0.008 C 
ATOM     11  C   LIG A   1      -5.940   0.286 130.664  0.00  0.00    -0.023 C 
ATOM     12  C   LIG A   1      -6.779  -1.059 130.671  0.00  0.00    -0.023 C 
ATOM     13  C   LIG A   1      -7.989  -0.651 131.531  0.00  0.00    +0.008 C 
ATOM     14  C   LIG A   1      -8.347   0.749 131.058  0.00  0.00    +0.005 C 
ATOM     15  C   LIG A   1      -7.027   1.445 130.615  0.00  0.00    +0.001 C 
ATOM     16  C   LIG A   1      -6.047  -2.230 131.363  0.00  0.00    +0.012 C 
ATOM     17  C   LIG A   1      -5.169   0.511 132.009  0.00  0.00    +0.012 C 
ATOM     18  C   LIG A   1      -7.235  -1.466 129.205  0.00  0.00    +0.002 C 
ATOM     19  C   LIG A   1      -8.040  -2.777 129.146  0.00  0.00    +0.005 C 
ATOM     20  C   LIG A   1      -8.528  -3.105 127.740  0.00  0.00    +0.005 C 
ATOM     21  C   LIG A   1      -7.562  -2.863 126.550  0.00  0.00    +0.009 C 
ATOM     22  O   LIG A   1      -7.532  -1.901 123.074  0.00  0.00    -0.297 OA
ATOM     23  C   LIG A   1      -8.905  -0.742 125.821  0.00  0.00    +0.019 C 
ENDROOT
BRANCH  15  24
ATOM     24  C   LIG A   1      -7.274   2.358 129.367  0.00  0.00    +0.022 C 
ATOM     25  C   LIG A   1      -7.250   3.863 129.689  0.00  0.00    +0.010 C 
BRANCH  24  26
ATOM     26  C   LIG A   1      -8.653   2.009 128.693  0.00  0.00    +0.140 C 
BRANCH  26  27
ATOM     27  O   LIG A   1      -9.677   2.868 129.186  0.00  0.00    -0.388 OA
ATOM     28  H   LIG A   1     -10.332   2.311 129.638  0.00  0.00    +0.210 HD
ENDBRANCH  26  27
BRANCH  26  29
ATOM     29  C   LIG A   1      -8.602   2.061 127.186  0.00  0.00    +0.003 C 
ATOM     30  C   LIG A   1      -7.987   2.983 126.420  0.00  0.00    +0.005 C 
BRANCH  30  31
ATOM     31  C   LIG A   1      -7.953   3.014 124.906  0.00  0.00    +0.079 C 
ATOM     32  C   LIG A   1      -6.672   2.445 124.285  0.00  0.00    +0.045 C 
ATOM     33  C   LIG A   1      -9.170   2.298 124.313  0.00  0.00    +0.045 C 
BRANCH  31  34
ATOM     34  O   LIG A   1      -8.048   4.388 124.527  0.00  0.00    -0.385 OA
ATOM     35  H   LIG A   1      -7.143   4.737 124.482  0.00  0.00    +0.211 HD
ENDBRANCH  31  34
ENDBRANCH  30  31
ENDBRANCH  26  29
ENDBRANCH  24  26
ENDBRANCH  15  24
TORSDOF 6
ENDMDL
MODEL 6
REMARK VINA RESULT:      -8.2      2.204      6.463
REMARK  Name = NuBBE_985
REMARK  13 active torsions:
REMARK  status: ('A' for Active; 'I' for Inactive)
REMARK    1  A    between atoms: C_1  and  C_2
REMARK    2  A    between atoms: C_2  and  C_35
REMARK    3  A    between atoms: C_11  and  C_29
REMARK    4  A    between atoms: C_12  and  C_28
REMARK    5  A    between atoms: C_15  and  C_17
REMARK    6  A    between atoms: C_17  and  C_19
REMARK    7  A    between atoms: C_17  and  C_20
REMARK    8  A    between atoms: C_20  and  O_21
REMARK    9  A    between atoms: C_20  and  C_22
REMARK   10  A    between atoms: C_23  and  C_24
REMARK   11  A    between atoms: C_24  and  O_25
REMARK   12  A    between atoms: C_24  and  C_26
REMARK   13  A    between atoms: C_24  and  C_27
REMARK                            x       y       z     vdW  Elec       q    Type
REMARK                         _______ _______ _______ _____ _____    ______ ____
ROOT
ATOM      1  C   LIG A   1      -7.782   2.994 124.044  0.00  0.00    +0.019 C 
ATOM      2  C   LIG A   1      -7.140   3.504 125.353  0.00  0.00    +0.027 C 
ATOM      3  C   LIG A   1      -5.963   4.421 124.978  0.00  0.00    +0.139 C 
ATOM      4  C   LIG A   1      -5.056   4.841 126.104  0.00  0.00    +0.075 C 
ATOM      5  C   LIG A   1      -4.506   3.588 126.735  0.00  0.00    +0.015 C 
ATOM      6  C   LIG A   1      -5.610   2.687 127.283  0.00  0.00    -0.019 C 
ATOM      7  C   LIG A   1      -5.024   1.667 128.245  0.00  0.00    +0.015 C 
ATOM      8  C   LIG A   1      -6.046   2.657 128.756  0.00  0.00    -0.019 C 
ATOM      9  C   LIG A   1      -5.622   3.824 129.609  0.00  0.00    +0.008 C 
ATOM     10  C   LIG A   1      -5.720   3.508 131.091  0.00  0.00    +0.008 C 
ATOM     11  C   LIG A   1      -7.076   2.968 131.575  0.00  0.00    -0.023 C 
ATOM     12  C   LIG A   1      -7.545   1.766 130.654  0.00  0.00    -0.023 C 
ATOM     13  C   LIG A   1      -9.015   1.614 131.086  0.00  0.00    +0.008 C 
ATOM     14  C   LIG A   1      -9.531   3.038 131.211  0.00  0.00    +0.005 C 
ATOM     15  C   LIG A   1      -8.339   3.931 131.661  0.00  0.00    +0.001 C 
ATOM     16  C   LIG A   1      -6.800   0.445 130.950  0.00  0.00    +0.012 C 
ATOM     17  C   LIG A   1      -6.811   2.515 133.051  0.00  0.00    +0.012 C 
ATOM     18  C   LIG A   1      -7.440   2.140 129.114  0.00  0.00    +0.002 C 
ATOM     19  C   LIG A   1      -7.866   1.002 128.167  0.00  0.00    +0.005 C 
ATOM     20  C   LIG A   1      -7.827   1.412 126.700  0.00  0.00    +0.005 C 
ATOM     21  C   LIG A   1      -6.636   2.277 126.208  0.00  0.00    +0.009 C 
ATOM     22  O   LIG A   1      -5.806   4.877 123.851  0.00  0.00    -0.297 OA
ATOM     23  C   LIG A   1      -8.157   4.400 126.090  0.00  0.00    +0.019 C 
ENDROOT
BRANCH  15  24
ATOM     24  C   LIG A   1      -8.411   5.338 130.978  0.00  0.00    +0.022 C 
ATOM     25  C   LIG A   1      -7.461   6.377 131.603  0.00  0.00    +0.010 C 
BRANCH  24  26
ATOM     26  C   LIG A   1      -9.879   5.902 131.032  0.00  0.00    +0.140 C 
BRANCH  26  27
ATOM     27  O   LIG A   1     -10.122   6.533 132.286  0.00  0.00    -0.388 OA
ATOM     28  H   LIG A   1     -10.268   7.478 132.113  0.00  0.00    +0.210 HD
ENDBRANCH  26  27
BRANCH  26  29
ATOM     29  C   LIG A   1     -10.189   6.848 129.898  0.00  0.00    +0.003 C 
ATOM     30  C   LIG A   1     -11.394   7.106 129.354  0.00  0.00    +0.005 C 
BRANCH  30  31
ATOM     31  C   LIG A   1     -11.679   8.059 128.212  0.00  0.00    +0.079 C 
ATOM     32  C   LIG A   1     -11.992   7.377 126.875  0.00  0.00    +0.045 C 
ATOM     33  C   LIG A   1     -12.811   9.025 128.571  0.00  0.00    +0.045 C 
BRANCH  31  34
ATOM     34  O   LIG A   1     -10.498   8.843 128.036  0.00  0.00    -0.385 OA
ATOM     35  H   LIG A   1      -9.824   8.488 128.638  0.00  0.00    +0.211 HD
ENDBRANCH  31  34
ENDBRANCH  30  31
ENDBRANCH  26  29
ENDBRANCH  24  26
ENDBRANCH  15  24
TORSDOF 6
ENDMDL
MODEL 7
REMARK VINA RESULT:      -8.2      2.445      4.979
REMARK  Name = NuBBE_985
REMARK  13 active torsions:
REMARK  status: ('A' for Active; 'I' for Inactive)
REMARK    1  A    between atoms: C_1  and  C_2
REMARK    2  A    between atoms: C_2  and  C_35
REMARK    3  A    between atoms: C_11  and  C_29
REMARK    4  A    between atoms: C_12  and  C_28
REMARK    5  A    between atoms: C_15  and  C_17
REMARK    6  A    between atoms: C_17  and  C_19
REMARK    7  A    between atoms: C_17  and  C_20
REMARK    8  A    between atoms: C_20  and  O_21
REMARK    9  A    between atoms: C_20  and  C_22
REMARK   10  A    between atoms: C_23  and  C_24
REMARK   11  A    between atoms: C_24  and  O_25
REMARK   12  A    between atoms: C_24  and  C_26
REMARK   13  A    between atoms: C_24  and  C_27
REMARK                            x       y       z     vdW  Elec       q    Type
REMARK                         _______ _______ _______ _____ _____    ______ ____
ROOT
ATOM      1  C   LIG A   1      -7.971   5.476 133.935  0.00  0.00    +0.019 C 
ATOM      2  C   LIG A   1      -8.145   4.693 132.615  0.00  0.00    +0.027 C 
ATOM      3  C   LIG A   1      -9.272   5.363 131.811  0.00  0.00    +0.139 C 
ATOM      4  C   LIG A   1      -9.761   4.621 130.596  0.00  0.00    +0.075 C 
ATOM      5  C   LIG A   1     -10.238   3.266 131.053  0.00  0.00    +0.015 C 
ATOM      6  C   LIG A   1      -9.127   2.462 131.724  0.00  0.00    -0.019 C 
ATOM      7  C   LIG A   1      -9.516   0.996 131.801  0.00  0.00    +0.015 C 
ATOM      8  C   LIG A   1      -8.288   1.390 131.012  0.00  0.00    -0.019 C 
ATOM      9  C   LIG A   1      -8.315   1.402 129.507  0.00  0.00    +0.008 C 
ATOM     10  C   LIG A   1      -7.826   0.090 128.920  0.00  0.00    +0.008 C 
ATOM     11  C   LIG A   1      -6.455  -0.399 129.418  0.00  0.00    -0.023 C 
ATOM     12  C   LIG A   1      -6.409  -0.374 131.002  0.00  0.00    -0.023 C 
ATOM     13  C   LIG A   1      -4.902  -0.561 131.260  0.00  0.00    +0.008 C 
ATOM     14  C   LIG A   1      -4.219   0.319 130.226  0.00  0.00    +0.005 C 
ATOM     15  C   LIG A   1      -5.125   0.341 128.960  0.00  0.00    +0.001 C 
ATOM     16  C   LIG A   1      -7.175  -1.547 131.653  0.00  0.00    +0.012 C 
ATOM     17  C   LIG A   1      -6.327  -1.852 128.845  0.00  0.00    +0.012 C 
ATOM     18  C   LIG A   1      -6.915   1.018 131.575  0.00  0.00    +0.002 C 
ATOM     19  C   LIG A   1      -6.910   1.097 133.113  0.00  0.00    +0.005 C 
ATOM     20  C   LIG A   1      -7.329   2.466 133.634  0.00  0.00    +0.005 C 
ATOM     21  C   LIG A   1      -8.509   3.191 132.934  0.00  0.00    +0.009 C 
ATOM     22  O   LIG A   1      -9.699   6.483 132.068  0.00  0.00    -0.297 OA
ATOM     23  C   LIG A   1      -6.865   4.856 131.767  0.00  0.00    +0.019 C 
ENDROOT
BRANCH  15  24
ATOM     24  C   LIG A   1      -5.101   1.755 128.287  0.00  0.00    +0.022 C 
ATOM     25  C   LIG A   1      -5.273   1.714 126.757  0.00  0.00    +0.010 C 
BRANCH  24  26
ATOM     26  C   LIG A   1      -3.758   2.503 128.623  0.00  0.00    +0.140 C 
BRANCH  26  27
ATOM     27  O   LIG A   1      -2.777   2.234 127.625  0.00  0.00    -0.388 OA
ATOM     28  H   LIG A   1      -2.128   2.957 127.652  0.00  0.00    +0.210 HD
ENDBRANCH  26  27
BRANCH  26  29
ATOM     29  C   LIG A   1      -3.939   3.991 128.795  0.00  0.00    +0.003 C 
ATOM     30  C   LIG A   1      -3.037   4.875 129.265  0.00  0.00    +0.005 C 
BRANCH  30  31
ATOM     31  C   LIG A   1      -3.245   6.367 129.431  0.00  0.00    +0.079 C 
ATOM     32  C   LIG A   1      -2.769   6.931 130.775  0.00  0.00    +0.045 C 
ATOM     33  C   LIG A   1      -2.586   7.144 128.289  0.00  0.00    +0.045 C 
BRANCH  31  34
ATOM     34  O   LIG A   1      -4.652   6.592 129.337  0.00  0.00    -0.385 OA
ATOM     35  H   LIG A   1      -4.955   6.178 128.512  0.00  0.00    +0.211 HD
ENDBRANCH  31  34
ENDBRANCH  30  31
ENDBRANCH  26  29
ENDBRANCH  24  26
ENDBRANCH  15  24
TORSDOF 6
ENDMDL
MODEL 8
REMARK VINA RESULT:      -8.1      4.581      8.182
REMARK  Name = NuBBE_985
REMARK  13 active torsions:
REMARK  status: ('A' for Active; 'I' for Inactive)
REMARK    1  A    between atoms: C_1  and  C_2
REMARK    2  A    between atoms: C_2  and  C_35
REMARK    3  A    between atoms: C_11  and  C_29
REMARK    4  A    between atoms: C_12  and  C_28
REMARK    5  A    between atoms: C_15  and  C_17
REMARK    6  A    between atoms: C_17  and  C_19
REMARK    7  A    between atoms: C_17  and  C_20
REMARK    8  A    between atoms: C_20  and  O_21
REMARK    9  A    between atoms: C_20  and  C_22
REMARK   10  A    between atoms: C_23  and  C_24
REMARK   11  A    between atoms: C_24  and  O_25
REMARK   12  A    between atoms: C_24  and  C_26
REMARK   13  A    between atoms: C_24  and  C_27
REMARK                            x       y       z     vdW  Elec       q    Type
REMARK                         _______ _______ _______ _____ _____    ______ ____
ROOT
ATOM      1  C   LIG A   1      -4.062  -0.680 130.328  0.00  0.00    +0.019 C 
ATOM      2  C   LIG A   1      -5.414  -0.534 129.597  0.00  0.00    +0.027 C 
ATOM      3  C   LIG A   1      -6.449  -0.022 130.612  0.00  0.00    +0.139 C 
ATOM      4  C   LIG A   1      -7.887  -0.030 130.167  0.00  0.00    +0.075 C 
ATOM      5  C   LIG A   1      -8.239  -1.447 129.795  0.00  0.00    +0.015 C 
ATOM      6  C   LIG A   1      -7.357  -1.983 128.670  0.00  0.00    -0.019 C 
ATOM      7  C   LIG A   1      -7.986  -3.224 128.059  0.00  0.00    +0.015 C 
ATOM      8  C   LIG A   1      -7.767  -2.007 127.190  0.00  0.00    -0.019 C 
ATOM      9  C   LIG A   1      -8.925  -1.128 126.797  0.00  0.00    +0.008 C 
ATOM     10  C   LIG A   1      -9.514  -1.531 125.456  0.00  0.00    +0.008 C 
ATOM     11  C   LIG A   1      -8.516  -1.640 124.290  0.00  0.00    -0.023 C 
ATOM     12  C   LIG A   1      -7.276  -2.531 124.714  0.00  0.00    -0.023 C 
ATOM     13  C   LIG A   1      -6.288  -2.232 123.571  0.00  0.00    +0.008 C 
ATOM     14  C   LIG A   1      -6.411  -0.736 123.334  0.00  0.00    +0.005 C 
ATOM     15  C   LIG A   1      -7.878  -0.330 123.655  0.00  0.00    +0.001 C 
ATOM     16  C   LIG A   1      -7.586  -4.044 124.722  0.00  0.00    +0.012 C 
ATOM     17  C   LIG A   1      -9.343  -2.291 123.130  0.00  0.00    +0.012 C 
ATOM     18  C   LIG A   1      -6.682  -2.069 126.113  0.00  0.00    +0.002 C 
ATOM     19  C   LIG A   1      -5.483  -2.911 126.588  0.00  0.00    +0.005 C 
ATOM     20  C   LIG A   1      -4.887  -2.401 127.895  0.00  0.00    +0.005 C 
ATOM     21  C   LIG A   1      -5.855  -1.933 129.013  0.00  0.00    +0.009 C 
ATOM     22  O   LIG A   1      -6.138   0.461 131.696  0.00  0.00    -0.297 OA
ATOM     23  C   LIG A   1      -5.286   0.573 128.529  0.00  0.00    +0.019 C 
ENDROOT
BRANCH  15  24
ATOM     24  C   LIG A   1      -7.927   1.081 124.333  0.00  0.00    +0.022 C 
ATOM     25  C   LIG A   1      -9.299   1.772 124.222  0.00  0.00    +0.010 C 
BRANCH  24  26
ATOM     26  C   LIG A   1      -6.834   2.029 123.714  0.00  0.00    +0.140 C 
BRANCH  26  27
ATOM     27  O   LIG A   1      -7.287   2.564 122.474  0.00  0.00    -0.388 OA
ATOM     28  H   LIG A   1      -8.251   2.664 122.534  0.00  0.00    +0.210 HD
ENDBRANCH  26  27
BRANCH  26  29
ATOM     29  C   LIG A   1      -6.420   3.140 124.647  0.00  0.00    +0.003 C 
ATOM     30  C   LIG A   1      -5.661   3.037 125.755  0.00  0.00    +0.005 C 
BRANCH  30  31
ATOM     31  C   LIG A   1      -5.261   4.169 126.678  0.00  0.00    +0.079 C 
ATOM     32  C   LIG A   1      -5.949   4.149 128.048  0.00  0.00    +0.045 C 
ATOM     33  C   LIG A   1      -3.743   4.213 126.869  0.00  0.00    +0.045 C 
BRANCH  31  34
ATOM     34  O   LIG A   1      -5.637   5.380 126.020  0.00  0.00    -0.385 OA
ATOM     35  H   LIG A   1      -5.084   6.090 126.386  0.00  0.00    +0.211 HD
ENDBRANCH  31  34
ENDBRANCH  30  31
ENDBRANCH  26  29
ENDBRANCH  24  26
ENDBRANCH  15  24
TORSDOF 6
ENDMDL
MODEL 9
REMARK VINA RESULT:      -7.9      1.927      6.446
REMARK  Name = NuBBE_985
REMARK  13 active torsions:
REMARK  status: ('A' for Active; 'I' for Inactive)
REMARK    1  A    between atoms: C_1  and  C_2
REMARK    2  A    between atoms: C_2  and  C_35
REMARK    3  A    between atoms: C_11  and  C_29
REMARK    4  A    between atoms: C_12  and  C_28
REMARK    5  A    between atoms: C_15  and  C_17
REMARK    6  A    between atoms: C_17  and  C_19
REMARK    7  A    between atoms: C_17  and  C_20
REMARK    8  A    between atoms: C_20  and  O_21
REMARK    9  A    between atoms: C_20  and  C_22
REMARK   10  A    between atoms: C_23  and  C_24
REMARK   11  A    between atoms: C_24  and  O_25
REMARK   12  A    between atoms: C_24  and  C_26
REMARK   13  A    between atoms: C_24  and  C_27
REMARK                            x       y       z     vdW  Elec       q    Type
REMARK                         _______ _______ _______ _____ _____    ______ ____
ROOT
ATOM      1  C   LIG A   1      -4.811   1.594 126.474  0.00  0.00    +0.019 C 
ATOM      2  C   LIG A   1      -4.996   2.688 127.548  0.00  0.00    +0.027 C 
ATOM      3  C   LIG A   1      -4.109   3.884 127.163  0.00  0.00    +0.139 C 
ATOM      4  C   LIG A   1      -3.962   4.969 128.195  0.00  0.00    +0.075 C 
ATOM      5  C   LIG A   1      -3.399   4.336 129.442  0.00  0.00    +0.015 C 
ATOM      6  C   LIG A   1      -4.307   3.236 129.988  0.00  0.00    -0.019 C 
ATOM      7  C   LIG A   1      -3.928   2.911 131.423  0.00  0.00    +0.015 C 
ATOM      8  C   LIG A   1      -5.314   3.438 131.130  0.00  0.00    -0.019 C 
ATOM      9  C   LIG A   1      -5.680   4.861 131.463  0.00  0.00    +0.008 C 
ATOM     10  C   LIG A   1      -6.321   4.976 132.835  0.00  0.00    +0.008 C 
ATOM     11  C   LIG A   1      -7.521   4.049 133.095  0.00  0.00    -0.023 C 
ATOM     12  C   LIG A   1      -7.153   2.557 132.707  0.00  0.00    -0.023 C 
ATOM     13  C   LIG A   1      -8.543   1.894 132.719  0.00  0.00    +0.008 C 
ATOM     14  C   LIG A   1      -9.460   2.904 132.050  0.00  0.00    +0.005 C 
ATOM     15  C   LIG A   1      -8.915   4.324 132.383  0.00  0.00    +0.001 C 
ATOM     16  C   LIG A   1      -6.257   1.858 133.753  0.00  0.00    +0.012 C 
ATOM     17  C   LIG A   1      -7.811   4.208 134.627  0.00  0.00    +0.012 C 
ATOM     18  C   LIG A   1      -6.499   2.479 131.262  0.00  0.00    +0.002 C 
ATOM     19  C   LIG A   1      -6.102   1.053 130.835  0.00  0.00    +0.005 C 
ATOM     20  C   LIG A   1      -5.546   0.996 129.417  0.00  0.00    +0.005 C 
ATOM     21  C   LIG A   1      -4.580   2.121 128.960  0.00  0.00    +0.009 C 
ATOM     22  O   LIG A   1      -3.616   4.018 126.048  0.00  0.00    -0.297 OA
ATOM     23  C   LIG A   1      -6.450   3.203 127.488  0.00  0.00    +0.019 C 
ENDROOT
BRANCH  15  24
ATOM     24  C   LIG A   1      -9.096   5.287 131.162  0.00  0.00    +0.022 C 
ATOM     25  C   LIG A   1      -8.566   6.710 131.414  0.00  0.00    +0.010 C 
BRANCH  24  26
ATOM     26  C   LIG A   1     -10.613   5.380 130.753  0.00  0.00    +0.140 C 
BRANCH  26  27
ATOM     27  O   LIG A   1     -11.428   5.560 131.907  0.00  0.00    -0.388 OA
ATOM     28  H   LIG A   1     -10.837   5.603 132.677  0.00  0.00    +0.210 HD
ENDBRANCH  26  27
BRANCH  26  29
ATOM     29  C   LIG A   1     -10.886   6.466 129.742  0.00  0.00    +0.003 C 
ATOM     30  C   LIG A   1     -11.965   6.589 128.945  0.00  0.00    +0.005 C 
BRANCH  30  31
ATOM     31  C   LIG A   1     -12.215   7.690 127.935  0.00  0.00    +0.079 C 
ATOM     32  C   LIG A   1     -12.868   8.951 128.513  0.00  0.00    +0.045 C 
ATOM     33  C   LIG A   1     -10.923   8.072 127.208  0.00  0.00    +0.045 C 
BRANCH  31  34
ATOM     34  O   LIG A   1     -13.103   7.148 126.957  0.00  0.00    -0.385 OA
ATOM     35  H   LIG A   1     -12.561   6.670 126.308  0.00  0.00    +0.211 HD
ENDBRANCH  31  34
ENDBRANCH  30  31
ENDBRANCH  26  29
ENDBRANCH  24  26
ENDBRANCH  15  24
TORSDOF 6
ENDMDL
