MODEL 1
REMARK VINA RESULT:      -8.3      0.000      0.000
REMARK  Name = NuBBE_1365
REMARK  13 active torsions:
REMARK  status: ('A' for Active; 'I' for Inactive)
REMARK    1  A    between atoms: O_1  and  C_2
REMARK    2  A    between atoms: C_8  and  C_20
REMARK    3  A    between atoms: C_9  and  C_11
REMARK    4  A    between atoms: C_22  and  O_46
REMARK    5  A    between atoms: C_23  and  O_24
REMARK    6  A    between atoms: O_24  and  O_25
REMARK    7  A    between atoms: O_25  and  C_26
REMARK    8  A    between atoms: C_26  and  C_27
REMARK    9  A    between atoms: C_29  and  O_31
REMARK   10  A    between atoms: O_31  and  C_32
REMARK   11  A    between atoms: C_32  and  C_33
REMARK   12  A    between atoms: C_35  and  C_36
REMARK   13  A    between atoms: C_35  and  C_37
REMARK                            x       y       z     vdW  Elec       q    Type
REMARK                         _______ _______ _______ _____ _____    ______ ____
ROOT
ATOM      1  C   LIG A   1      -8.762   3.582 131.407  0.00  0.00    +0.114 C 
ATOM      2  C   LIG A   1      -8.047   3.276 129.633  0.00  0.00    +0.109 C 
ATOM      3  C   LIG A   1      -6.207   3.632 129.290  0.00  0.00    +0.039 C 
ATOM      4  C   LIG A   1      -5.487   5.131 130.203  0.00  0.00    +0.008 C 
ATOM      5  C   LIG A   1      -6.205   5.784 131.819  0.00  0.00    +0.014 C 
ATOM      6  C   LIG A   1      -8.011   5.250 132.057  0.00  0.00    +0.041 C 
ATOM      7  C   LIG A   1      -8.181   5.604 130.703  0.00  0.00    +0.218 C 
ATOM      8  O   LIG A   1      -7.034   4.210 131.075  0.00  0.00    -0.456 OA
ATOM      9  C   LIG A   1      -6.794   3.166 132.016  0.00  0.00    +0.311 C 
ATOM     10  C   LIG A   1      -8.095   2.607 132.335  0.00  0.00    +0.159 C 
ATOM     11  O   LIG A   1      -5.717   2.786 132.393  0.00  0.00    -0.251 OA
ATOM     12  C   LIG A   1      -8.623   5.990 133.214  0.00  0.00    +0.018 C 
ATOM     13  C   LIG A   1      -6.170   3.757 127.660  0.00  0.00    +0.071 C 
ATOM     14  C   LIG A   1      -7.659   3.645 127.502  0.00  0.00    +0.215 C 
ATOM     15  C   LIG A   1      -7.945   2.071 127.683  0.00  0.00    +0.209 C 
ATOM     16  C   LIG A   1      -8.069   1.521 126.279  0.00  0.00    +0.224 C 
ATOM     17  C   LIG A   1      -6.593   1.695 125.651  0.00  0.00    +0.009 C 
ATOM     18  C   LIG A   1      -5.979   0.283 125.462  0.00  0.00    +0.015 C 
ATOM     19  C   LIG A   1      -6.665   2.238 124.183  0.00  0.00    +0.015 C 
ATOM     20  C   LIG A   1      -5.611   2.726 126.510  0.00  0.00    +0.024 C 
ATOM     21  C   LIG A   1      -4.194   2.304 126.840  0.00  0.00    +0.125 C 
ATOM     22  C   LIG A   1      -3.340   3.483 127.276  0.00  0.00    +0.307 C 
ATOM     23  O   LIG A   1      -3.937   4.691 127.495  0.00  0.00    -0.464 OA
ATOM     24  C   LIG A   1      -5.351   4.973 127.250  0.00  0.00    +0.245 C 
ATOM     25  O   LIG A   1      -2.127   3.348 127.425  0.00  0.00    -0.251 OA
ATOM     26  C   LIG A   1      -8.775   2.104 128.940  0.00  0.00    +0.087 C 
ATOM     27  O   LIG A   1      -8.343   4.256 128.599  0.00  0.00    -0.336 OA
ENDROOT
BRANCH   7  28
ATOM     28  C   LIG A   1      -9.675   5.776 130.288  0.00  0.00    +0.031 A 
ATOM     29  C   LIG A   1     -10.852   5.607 131.016  0.00  0.00    +0.202 A 
ATOM     30  O   LIG A   1     -11.969   5.839 130.290  0.00  0.00    -0.471 OA
ATOM     31  C   LIG A   1     -11.555   6.281 129.088  0.00  0.00    +0.195 A 
ATOM     32  C   LIG A   1     -10.180   6.357 129.064  0.00  0.00    +0.048 A 
ENDBRANCH   7  28
BRANCH   1  33
ATOM     33  O   LIG A   1     -10.141   3.333 131.585  0.00  0.00    -0.385 OA
ATOM     34  H   LIG A   1     -10.477   3.878 132.317  0.00  0.00    +0.210 HD
ENDBRANCH   1  33
BRANCH  14  35
ATOM     35  O   LIG A   1      -8.086   4.311 126.347  0.00  0.00    -0.362 OA
ATOM     36  H   LIG A   1      -7.465   3.993 125.669  0.00  0.00    +0.213 HD
ENDBRANCH  14  35
BRANCH  15  37
ATOM     37  O   LIG A   1      -6.819   1.277 128.257  0.00  0.00    -0.167 OA
BRANCH  37  38
ATOM     38  O   LIG A   1      -7.351  -0.035 128.674  0.00  0.00    -0.297 OA
BRANCH  38  39
ATOM     39  C   LIG A   1      -6.278  -0.782 129.089  0.00  0.00    +0.340 C 
ATOM     40  C   LIG A   1      -5.238   0.117 129.687  0.00  0.00    +0.139 C 
ATOM     41  O   LIG A   1      -6.211  -2.003 129.084  0.00  0.00    -0.248 OA
ENDBRANCH  38  39
ENDBRANCH  37  38
ENDBRANCH  15  37
BRANCH  16  42
ATOM     42  O   LIG A   1      -9.026   2.072 125.355  0.00  0.00    -0.458 OA
BRANCH  42  43
ATOM     43  C   LIG A   1      -9.975   1.272 124.822  0.00  0.00    +0.304 C 
ATOM     44  C   LIG A   1     -10.045   1.512 123.349  0.00  0.00    +0.136 C 
ATOM     45  O   LIG A   1     -10.581   0.393 125.408  0.00  0.00    -0.251 OA
ENDBRANCH  42  43
ENDBRANCH  16  42
TORSDOF 8
ENDMDL
MODEL 2
REMARK VINA RESULT:      -8.3      2.169      6.012
REMARK  Name = NuBBE_1365
REMARK  13 active torsions:
REMARK  status: ('A' for Active; 'I' for Inactive)
REMARK    1  A    between atoms: O_1  and  C_2
REMARK    2  A    between atoms: C_8  and  C_20
REMARK    3  A    between atoms: C_9  and  C_11
REMARK    4  A    between atoms: C_22  and  O_46
REMARK    5  A    between atoms: C_23  and  O_24
REMARK    6  A    between atoms: O_24  and  O_25
REMARK    7  A    between atoms: O_25  and  C_26
REMARK    8  A    between atoms: C_26  and  C_27
REMARK    9  A    between atoms: C_29  and  O_31
REMARK   10  A    between atoms: O_31  and  C_32
REMARK   11  A    between atoms: C_32  and  C_33
REMARK   12  A    between atoms: C_35  and  C_36
REMARK   13  A    between atoms: C_35  and  C_37
REMARK                            x       y       z     vdW  Elec       q    Type
REMARK                         _______ _______ _______ _____ _____    ______ ____
ROOT
ATOM      1  C   LIG A   1      -5.950  -1.964 127.670  0.00  0.00    +0.114 C 
ATOM      2  C   LIG A   1      -6.408  -0.112 127.343  0.00  0.00    +0.109 C 
ATOM      3  C   LIG A   1      -6.813   1.028 128.815  0.00  0.00    +0.039 C 
ATOM      4  C   LIG A   1      -7.751   0.205 130.244  0.00  0.00    +0.008 C 
ATOM      5  C   LIG A   1      -7.674  -1.648 130.584  0.00  0.00    +0.014 C 
ATOM      6  C   LIG A   1      -7.152  -2.627 129.043  0.00  0.00    +0.041 C 
ATOM      7  C   LIG A   1      -8.057  -1.802 128.344  0.00  0.00    +0.218 C 
ATOM      8  O   LIG A   1      -6.600  -0.987 129.125  0.00  0.00    -0.456 OA
ATOM      9  C   LIG A   1      -5.246  -1.221 129.506  0.00  0.00    +0.311 C 
ATOM     10  C   LIG A   1      -4.649  -1.980 128.422  0.00  0.00    +0.159 C 
ATOM     11  O   LIG A   1      -4.704  -0.795 130.492  0.00  0.00    -0.251 OA
ATOM     12  C   LIG A   1      -7.346  -4.100 129.274  0.00  0.00    +0.018 C 
ATOM     13  C   LIG A   1      -7.623   2.255 128.099  0.00  0.00    +0.071 C 
ATOM     14  C   LIG A   1      -7.640   1.606 126.745  0.00  0.00    +0.215 C 
ATOM     15  C   LIG A   1      -6.151   1.852 126.185  0.00  0.00    +0.209 C 
ATOM     16  C   LIG A   1      -6.260   3.050 125.266  0.00  0.00    +0.224 C 
ATOM     17  C   LIG A   1      -6.635   4.273 126.250  0.00  0.00    +0.009 C 
ATOM     18  C   LIG A   1      -5.420   5.235 126.310  0.00  0.00    +0.015 C 
ATOM     19  C   LIG A   1      -7.757   5.174 125.627  0.00  0.00    +0.015 C 
ATOM     20  C   LIG A   1      -7.164   3.794 127.751  0.00  0.00    +0.024 C 
ATOM     21  C   LIG A   1      -6.593   4.455 128.990  0.00  0.00    +0.125 C 
ATOM     22  C   LIG A   1      -7.442   4.179 130.220  0.00  0.00    +0.307 C 
ATOM     23  O   LIG A   1      -8.460   3.274 130.136  0.00  0.00    -0.464 OA
ATOM     24  C   LIG A   1      -8.868   2.597 128.905  0.00  0.00    +0.245 C 
ATOM     25  O   LIG A   1      -7.214   4.770 131.274  0.00  0.00    -0.251 OA
ATOM     26  C   LIG A   1      -5.671   0.427 126.098  0.00  0.00    +0.087 C 
ATOM     27  O   LIG A   1      -7.746   0.185 126.853  0.00  0.00    -0.336 OA
ENDROOT
BRANCH   7  28
ATOM     28  C   LIG A   1      -8.441  -2.354 126.937  0.00  0.00    +0.031 A 
ATOM     29  C   LIG A   1      -8.518  -3.660 126.456  0.00  0.00    +0.202 A 
ATOM     30  O   LIG A   1      -8.879  -3.731 125.154  0.00  0.00    -0.471 OA
ATOM     31  C   LIG A   1      -9.162  -2.473 124.769  0.00  0.00    +0.195 A 
ATOM     32  C   LIG A   1      -9.010  -1.612 125.833  0.00  0.00    +0.048 A 
ENDBRANCH   7  28
BRANCH   1  33
ATOM     33  O   LIG A   1      -5.696  -2.764 126.534  0.00  0.00    -0.385 OA
ATOM     34  H   LIG A   1      -5.434  -3.656 126.818  0.00  0.00    +0.210 HD
ENDBRANCH   1  33
BRANCH  14  35
ATOM     35  O   LIG A   1      -8.751   2.033 126.007  0.00  0.00    -0.362 OA
ATOM     36  H   LIG A   1      -8.348   2.455 125.228  0.00  0.00    +0.213 HD
ENDBRANCH  14  35
BRANCH  15  37
ATOM     37  O   LIG A   1      -5.150   2.296 127.198  0.00  0.00    -0.167 OA
BRANCH  37  38
ATOM     38  O   LIG A   1      -3.804   2.125 126.617  0.00  0.00    -0.297 OA
BRANCH  38  39
ATOM     39  C   LIG A   1      -2.945   2.875 127.380  0.00  0.00    +0.340 C 
ATOM     40  C   LIG A   1      -1.663   3.087 126.635  0.00  0.00    +0.139 C 
ATOM     41  O   LIG A   1      -3.210   3.393 128.455  0.00  0.00    -0.248 OA
ENDBRANCH  38  39
ENDBRANCH  37  38
ENDBRANCH  15  37
BRANCH  16  42
ATOM     42  O   LIG A   1      -7.186   3.051 124.164  0.00  0.00    -0.458 OA
BRANCH  42  43
ATOM     43  C   LIG A   1      -6.879   2.376 123.036  0.00  0.00    +0.304 C 
ATOM     44  C   LIG A   1      -6.223   3.310 122.070  0.00  0.00    +0.136 C 
ATOM     45  O   LIG A   1      -6.981   1.174 122.870  0.00  0.00    -0.251 OA
ENDBRANCH  42  43
ENDBRANCH  16  42
TORSDOF 8
ENDMDL
MODEL 3
REMARK VINA RESULT:      -8.2      2.096      5.402
REMARK  Name = NuBBE_1365
REMARK  13 active torsions:
REMARK  status: ('A' for Active; 'I' for Inactive)
REMARK    1  A    between atoms: O_1  and  C_2
REMARK    2  A    between atoms: C_8  and  C_20
REMARK    3  A    between atoms: C_9  and  C_11
REMARK    4  A    between atoms: C_22  and  O_46
REMARK    5  A    between atoms: C_23  and  O_24
REMARK    6  A    between atoms: O_24  and  O_25
REMARK    7  A    between atoms: O_25  and  C_26
REMARK    8  A    between atoms: C_26  and  C_27
REMARK    9  A    between atoms: C_29  and  O_31
REMARK   10  A    between atoms: O_31  and  C_32
REMARK   11  A    between atoms: C_32  and  C_33
REMARK   12  A    between atoms: C_35  and  C_36
REMARK   13  A    between atoms: C_35  and  C_37
REMARK                            x       y       z     vdW  Elec       q    Type
REMARK                         _______ _______ _______ _____ _____    ______ ____
ROOT
ATOM      1  C   LIG A   1      -8.095   4.812 131.365  0.00  0.00    +0.114 C 
ATOM      2  C   LIG A   1      -6.660   4.160 130.241  0.00  0.00    +0.109 C 
ATOM      3  C   LIG A   1      -6.712   2.367 129.599  0.00  0.00    +0.039 C 
ATOM      4  C   LIG A   1      -7.433   1.094 130.806  0.00  0.00    +0.008 C 
ATOM      5  C   LIG A   1      -8.647   1.556 132.174  0.00  0.00    +0.014 C 
ATOM      6  C   LIG A   1      -8.540   3.399 132.619  0.00  0.00    +0.041 C 
ATOM      7  C   LIG A   1      -7.142   3.218 132.577  0.00  0.00    +0.218 C 
ATOM      8  O   LIG A   1      -8.073   2.978 131.005  0.00  0.00    -0.456 OA
ATOM      9  C   LIG A   1      -9.245   3.402 130.311  0.00  0.00    +0.311 C 
ATOM     10  C   LIG A   1      -9.345   4.834 130.530  0.00  0.00    +0.159 C 
ATOM     11  O   LIG A   1      -9.947   2.712 129.620  0.00  0.00    -0.251 OA
ATOM     12  C   LIG A   1      -9.326   3.677 133.871  0.00  0.00    +0.018 C 
ATOM     13  C   LIG A   1      -5.154   2.093 129.187  0.00  0.00    +0.071 C 
ATOM     14  C   LIG A   1      -4.662   3.408 129.721  0.00  0.00    +0.215 C 
ATOM     15  C   LIG A   1      -5.098   4.466 128.588  0.00  0.00    +0.209 C 
ATOM     16  C   LIG A   1      -3.856   4.697 127.754  0.00  0.00    +0.224 C 
ATOM     17  C   LIG A   1      -3.589   3.275 127.037  0.00  0.00    +0.009 C 
ATOM     18  C   LIG A   1      -3.862   3.441 125.520  0.00  0.00    +0.015 C 
ATOM     19  C   LIG A   1      -2.067   2.903 127.075  0.00  0.00    +0.015 C 
ATOM     20  C   LIG A   1      -4.424   2.009 127.718  0.00  0.00    +0.024 C 
ATOM     21  C   LIG A   1      -5.174   1.043 126.823  0.00  0.00    +0.125 C 
ATOM     22  C   LIG A   1      -5.545  -0.235 127.557  0.00  0.00    +0.307 C 
ATOM     23  O   LIG A   1      -5.348  -0.309 128.906  0.00  0.00    -0.464 OA
ATOM     24  C   LIG A   1      -4.709   0.734 129.708  0.00  0.00    +0.245 C 
ATOM     25  O   LIG A   1      -6.014  -1.189 126.939  0.00  0.00    -0.251 OA
ATOM     26  C   LIG A   1      -6.075   5.298 129.377  0.00  0.00    +0.087 C 
ATOM     27  O   LIG A   1      -5.401   3.806 130.878  0.00  0.00    -0.336 OA
ENDROOT
BRANCH   7  28
ATOM     28  C   LIG A   1      -6.346   4.365 133.271  0.00  0.00    +0.031 A 
ATOM     29  C   LIG A   1      -6.693   5.215 134.322  0.00  0.00    +0.202 A 
ATOM     30  O   LIG A   1      -5.723   6.104 134.634  0.00  0.00    -0.471 OA
ATOM     31  C   LIG A   1      -4.660   5.790 133.870  0.00  0.00    +0.195 A 
ATOM     32  C   LIG A   1      -4.947   4.686 133.098  0.00  0.00    +0.048 A 
ENDBRANCH   7  28
BRANCH   1  33
ATOM     33  O   LIG A   1      -7.978   6.138 131.836  0.00  0.00    -0.385 OA
ATOM     34  H   LIG A   1      -7.070   6.293 132.146  0.00  0.00    +0.210 HD
ENDBRANCH   1  33
BRANCH  14  35
ATOM     35  O   LIG A   1      -3.323   3.311 130.117  0.00  0.00    -0.362 OA
ATOM     36  H   LIG A   1      -3.091   2.395 129.885  0.00  0.00    +0.213 HD
ENDBRANCH  14  35
BRANCH  15  37
ATOM     37  O   LIG A   1      -6.086   3.965 127.589  0.00  0.00    -0.167 OA
BRANCH  37  38
ATOM     38  O   LIG A   1      -6.589   5.122 126.823  0.00  0.00    -0.297 OA
BRANCH  38  39
ATOM     39  C   LIG A   1      -7.775   4.734 126.253  0.00  0.00    +0.340 C 
ATOM     40  C   LIG A   1      -7.824   3.239 126.160  0.00  0.00    +0.139 C 
ATOM     41  O   LIG A   1      -8.705   5.472 125.964  0.00  0.00    -0.248 OA
ENDBRANCH  38  39
ENDBRANCH  37  38
ENDBRANCH  15  37
BRANCH  16  42
ATOM     42  O   LIG A   1      -2.630   5.137 128.366  0.00  0.00    -0.458 OA
BRANCH  42  43
ATOM     43  C   LIG A   1      -2.463   6.445 128.657  0.00  0.00    +0.304 C 
ATOM     44  C   LIG A   1      -2.449   6.617 130.142  0.00  0.00    +0.136 C 
ATOM     45  O   LIG A   1      -2.219   7.331 127.859  0.00  0.00    -0.251 OA
ENDBRANCH  42  43
ENDBRANCH  16  42
TORSDOF 8
ENDMDL
MODEL 4
REMARK VINA RESULT:      -8.1      1.773      6.458
REMARK  Name = NuBBE_1365
REMARK  13 active torsions:
REMARK  status: ('A' for Active; 'I' for Inactive)
REMARK    1  A    between atoms: O_1  and  C_2
REMARK    2  A    between atoms: C_8  and  C_20
REMARK    3  A    between atoms: C_9  and  C_11
REMARK    4  A    between atoms: C_22  and  O_46
REMARK    5  A    between atoms: C_23  and  O_24
REMARK    6  A    between atoms: O_24  and  O_25
REMARK    7  A    between atoms: O_25  and  C_26
REMARK    8  A    between atoms: C_26  and  C_27
REMARK    9  A    between atoms: C_29  and  O_31
REMARK   10  A    between atoms: O_31  and  C_32
REMARK   11  A    between atoms: C_32  and  C_33
REMARK   12  A    between atoms: C_35  and  C_36
REMARK   13  A    between atoms: C_35  and  C_37
REMARK                            x       y       z     vdW  Elec       q    Type
REMARK                         _______ _______ _______ _____ _____    ______ ____
ROOT
ATOM      1  C   LIG A   1      -7.935   2.497 125.626  0.00  0.00    +0.114 C 
ATOM      2  C   LIG A   1      -7.310   2.665 127.451  0.00  0.00    +0.109 C 
ATOM      3  C   LIG A   1      -5.970   3.955 127.868  0.00  0.00    +0.039 C 
ATOM      4  C   LIG A   1      -4.645   4.208 126.535  0.00  0.00    +0.008 C 
ATOM      5  C   LIG A   1      -4.947   3.837 124.710  0.00  0.00    +0.014 C 
ATOM      6  C   LIG A   1      -6.383   2.620 124.466  0.00  0.00    +0.041 C 
ATOM      7  C   LIG A   1      -5.804   1.891 125.524  0.00  0.00    +0.218 C 
ATOM      8  O   LIG A   1      -6.437   3.578 125.908  0.00  0.00    -0.456 OA
ATOM      9  C   LIG A   1      -7.421   4.532 125.511  0.00  0.00    +0.311 C 
ATOM     10  C   LIG A   1      -8.637   3.778 125.272  0.00  0.00    +0.159 C 
ATOM     11  O   LIG A   1      -7.274   5.725 125.470  0.00  0.00    -0.251 OA
ATOM     12  C   LIG A   1      -6.432   2.154 123.037  0.00  0.00    +0.018 C 
ATOM     13  C   LIG A   1      -5.389   3.411 129.297  0.00  0.00    +0.071 C 
ATOM     14  C   LIG A   1      -6.209   2.152 129.282  0.00  0.00    +0.215 C 
ATOM     15  C   LIG A   1      -7.677   2.648 129.716  0.00  0.00    +0.209 C 
ATOM     16  C   LIG A   1      -7.789   2.331 131.191  0.00  0.00    +0.224 C 
ATOM     17  C   LIG A   1      -6.704   3.301 131.890  0.00  0.00    +0.009 C 
ATOM     18  C   LIG A   1      -7.471   4.367 132.715  0.00  0.00    +0.015 C 
ATOM     19  C   LIG A   1      -5.889   2.536 132.988  0.00  0.00    +0.015 C 
ATOM     20  C   LIG A   1      -5.606   3.959 130.830  0.00  0.00    +0.024 C 
ATOM     21  C   LIG A   1      -5.303   5.443 130.895  0.00  0.00    +0.125 C 
ATOM     22  C   LIG A   1      -4.032   5.794 130.140  0.00  0.00    +0.307 C 
ATOM     23  O   LIG A   1      -3.429   4.839 129.372  0.00  0.00    -0.464 OA
ATOM     24  C   LIG A   1      -3.867   3.446 129.287  0.00  0.00    +0.245 C 
ATOM     25  O   LIG A   1      -3.553   6.923 130.225  0.00  0.00    -0.251 OA
ATOM     26  C   LIG A   1      -8.437   2.336 128.453  0.00  0.00    +0.087 C 
ATOM     27  O   LIG A   1      -6.381   1.662 127.950  0.00  0.00    -0.336 OA
ENDROOT
BRANCH   7  28
ATOM     28  C   LIG A   1      -6.324   0.424 125.627  0.00  0.00    +0.031 A 
ATOM     29  C   LIG A   1      -6.929  -0.401 124.678  0.00  0.00    +0.202 A 
ATOM     30  O   LIG A   1      -7.255  -1.622 125.161  0.00  0.00    -0.471 OA
ATOM     31  C   LIG A   1      -6.770  -1.676 126.415  0.00  0.00    +0.195 A 
ATOM     32  C   LIG A   1      -6.111  -0.505 126.715  0.00  0.00    +0.048 A 
ENDBRANCH   7  28
BRANCH   1  33
ATOM     33  O   LIG A   1      -8.902   1.499 125.378  0.00  0.00    -0.385 OA
ATOM     34  H   LIG A   1      -8.636   0.673 125.816  0.00  0.00    +0.210 HD
ENDBRANCH   1  33
BRANCH  14  35
ATOM     35  O   LIG A   1      -5.567   1.136 129.999  0.00  0.00    -0.362 OA
ATOM     36  H   LIG A   1      -6.227   0.890 130.671  0.00  0.00    +0.213 HD
ENDBRANCH  14  35
BRANCH  15  37
ATOM     37  O   LIG A   1      -7.895   4.123 129.672  0.00  0.00    -0.167 OA
BRANCH  37  38
ATOM     38  O   LIG A   1      -9.349   4.370 129.616  0.00  0.00    -0.297 OA
BRANCH  38  39
ATOM     39  C   LIG A   1      -9.515   5.680 129.243  0.00  0.00    +0.340 C 
ATOM     40  C   LIG A   1      -9.389   6.566 130.445  0.00  0.00    +0.139 C 
ATOM     41  O   LIG A   1      -9.634   6.088 128.097  0.00  0.00    -0.248 OA
ENDBRANCH  38  39
ENDBRANCH  37  38
ENDBRANCH  15  37
BRANCH  16  42
ATOM     42  O   LIG A   1      -7.580   0.991 131.674  0.00  0.00    -0.458 OA
BRANCH  42  43
ATOM     43  C   LIG A   1      -8.534   0.056 131.476  0.00  0.00    +0.304 C 
ATOM     44  C   LIG A   1      -7.907  -1.164 130.883  0.00  0.00    +0.136 C 
ATOM     45  O   LIG A   1      -9.691   0.124 131.848  0.00  0.00    -0.251 OA
ENDBRANCH  42  43
ENDBRANCH  16  42
TORSDOF 8
ENDMDL
MODEL 5
REMARK VINA RESULT:      -8.1      2.423      5.969
REMARK  Name = NuBBE_1365
REMARK  13 active torsions:
REMARK  status: ('A' for Active; 'I' for Inactive)
REMARK    1  A    between atoms: O_1  and  C_2
REMARK    2  A    between atoms: C_8  and  C_20
REMARK    3  A    between atoms: C_9  and  C_11
REMARK    4  A    between atoms: C_22  and  O_46
REMARK    5  A    between atoms: C_23  and  O_24
REMARK    6  A    between atoms: O_24  and  O_25
REMARK    7  A    between atoms: O_25  and  C_26
REMARK    8  A    between atoms: C_26  and  C_27
REMARK    9  A    between atoms: C_29  and  O_31
REMARK   10  A    between atoms: O_31  and  C_32
REMARK   11  A    between atoms: C_32  and  C_33
REMARK   12  A    between atoms: C_35  and  C_36
REMARK   13  A    between atoms: C_35  and  C_37
REMARK                            x       y       z     vdW  Elec       q    Type
REMARK                         _______ _______ _______ _____ _____    ______ ____
ROOT
ATOM      1  C   LIG A   1      -4.603   5.862 130.763  0.00  0.00    +0.114 C 
ATOM      2  C   LIG A   1      -5.396   4.098 130.851  0.00  0.00    +0.109 C 
ATOM      3  C   LIG A   1      -5.130   3.026 132.404  0.00  0.00    +0.039 C 
ATOM      4  C   LIG A   1      -3.423   3.185 133.216  0.00  0.00    +0.008 C 
ATOM      5  C   LIG A   1      -2.343   4.720 133.032  0.00  0.00    +0.014 C 
ATOM      6  C   LIG A   1      -2.810   5.731 131.494  0.00  0.00    +0.041 C 
ATOM      7  C   LIG A   1      -2.861   4.490 130.826  0.00  0.00    +0.218 C 
ATOM      8  O   LIG A   1      -4.074   4.770 132.185  0.00  0.00    -0.456 OA
ATOM      9  C   LIG A   1      -4.802   5.798 132.855  0.00  0.00    +0.311 C 
ATOM     10  C   LIG A   1      -5.263   6.704 131.819  0.00  0.00    +0.159 C 
ATOM     11  O   LIG A   1      -5.043   5.841 134.032  0.00  0.00    -0.251 OA
ATOM     12  C   LIG A   1      -1.777   6.794 131.238  0.00  0.00    +0.018 C 
ATOM     13  C   LIG A   1      -5.477   1.524 131.860  0.00  0.00    +0.071 C 
ATOM     14  C   LIG A   1      -5.648   1.956 130.432  0.00  0.00    +0.215 C 
ATOM     15  C   LIG A   1      -7.108   2.634 130.411  0.00  0.00    +0.209 C 
ATOM     16  C   LIG A   1      -8.039   1.570 129.873  0.00  0.00    +0.224 C 
ATOM     17  C   LIG A   1      -8.033   0.424 131.011  0.00  0.00    +0.009 C 
ATOM     18  C   LIG A   1      -9.432   0.403 131.680  0.00  0.00    +0.015 C 
ATOM     19  C   LIG A   1      -7.935  -1.003 130.372  0.00  0.00    +0.015 C 
ATOM     20  C   LIG A   1      -6.787   0.563 132.102  0.00  0.00    +0.024 C 
ATOM     21  C   LIG A   1      -7.078   0.451 133.585  0.00  0.00    +0.125 C 
ATOM     22  C   LIG A   1      -5.812   0.220 134.394  0.00  0.00    +0.307 C 
ATOM     23  O   LIG A   1      -4.600   0.316 133.773  0.00  0.00    -0.464 OA
ATOM     24  C   LIG A   1      -4.418   0.540 132.339  0.00  0.00    +0.245 C 
ATOM     25  O   LIG A   1      -5.884  -0.054 135.590  0.00  0.00    -0.251 OA
ATOM     26  C   LIG A   1      -6.727   4.052 130.070  0.00  0.00    +0.087 C 
ATOM     27  O   LIG A   1      -4.758   3.025 130.103  0.00  0.00    -0.336 OA
ENDROOT
BRANCH   7  28
ATOM     28  C   LIG A   1      -2.835   4.620 129.272  0.00  0.00    +0.031 A 
ATOM     29  C   LIG A   1      -2.438   5.673 128.447  0.00  0.00    +0.202 A 
ATOM     30  O   LIG A   1      -2.579   5.404 127.130  0.00  0.00    -0.471 OA
ATOM     31  C   LIG A   1      -2.969   4.118 127.044  0.00  0.00    +0.195 A 
ATOM     32  C   LIG A   1      -3.043   3.566 128.304  0.00  0.00    +0.048 A 
ENDBRANCH   7  28
BRANCH   1  33
ATOM     33  O   LIG A   1      -4.809   6.590 129.571  0.00  0.00    -0.385 OA
ATOM     34  H   LIG A   1      -3.973   7.001 129.293  0.00  0.00    +0.210 HD
ENDBRANCH   1  33
BRANCH  14  35
ATOM     35  O   LIG A   1      -5.347   0.904 129.558  0.00  0.00    -0.362 OA
ATOM     36  H   LIG A   1      -5.342   1.338 128.686  0.00  0.00    +0.213 HD
ENDBRANCH  14  35
BRANCH  15  37
ATOM     37  O   LIG A   1      -7.690   2.944 131.750  0.00  0.00    -0.167 OA
BRANCH  37  38
ATOM     38  O   LIG A   1      -8.696   4.010 131.576  0.00  0.00    -0.297 OA
BRANCH  38  39
ATOM     39  C   LIG A   1      -8.789   4.666 132.778  0.00  0.00    +0.340 C 
ATOM     40  C   LIG A   1      -9.037   3.675 133.875  0.00  0.00    +0.139 C 
ATOM     41  O   LIG A   1      -8.592   5.858 132.959  0.00  0.00    -0.248 OA
ENDBRANCH  38  39
ENDBRANCH  37  38
ENDBRANCH  15  37
BRANCH  16  42
ATOM     42  O   LIG A   1      -7.789   0.948 128.599  0.00  0.00    -0.458 OA
BRANCH  42  43
ATOM     43  C   LIG A   1      -8.315   1.489 127.479  0.00  0.00    +0.304 C 
ATOM     44  C   LIG A   1      -8.547   0.407 126.476  0.00  0.00    +0.136 C 
ATOM     45  O   LIG A   1      -8.680   2.643 127.346  0.00  0.00    -0.251 OA
ENDBRANCH  42  43
ENDBRANCH  16  42
TORSDOF 8
ENDMDL
MODEL 6
REMARK VINA RESULT:      -8.0      1.643      6.340
REMARK  Name = NuBBE_1365
REMARK  13 active torsions:
REMARK  status: ('A' for Active; 'I' for Inactive)
REMARK    1  A    between atoms: O_1  and  C_2
REMARK    2  A    between atoms: C_8  and  C_20
REMARK    3  A    between atoms: C_9  and  C_11
REMARK    4  A    between atoms: C_22  and  O_46
REMARK    5  A    between atoms: C_23  and  O_24
REMARK    6  A    between atoms: O_24  and  O_25
REMARK    7  A    between atoms: O_25  and  C_26
REMARK    8  A    between atoms: C_26  and  C_27
REMARK    9  A    between atoms: C_29  and  O_31
REMARK   10  A    between atoms: O_31  and  C_32
REMARK   11  A    between atoms: C_32  and  C_33
REMARK   12  A    between atoms: C_35  and  C_36
REMARK   13  A    between atoms: C_35  and  C_37
REMARK                            x       y       z     vdW  Elec       q    Type
REMARK                         _______ _______ _______ _____ _____    ______ ____
ROOT
ATOM      1  C   LIG A   1      -5.724   1.916 126.678  0.00  0.00    +0.114 C 
ATOM      2  C   LIG A   1      -6.806   2.663 128.099  0.00  0.00    +0.109 C 
ATOM      3  C   LIG A   1      -6.647   1.964 129.865  0.00  0.00    +0.039 C 
ATOM      4  C   LIG A   1      -6.353   0.093 129.973  0.00  0.00    +0.008 C 
ATOM      5  C   LIG A   1      -5.562  -0.899 128.578  0.00  0.00    +0.014 C 
ATOM      6  C   LIG A   1      -5.715  -0.012 126.906  0.00  0.00    +0.041 C 
ATOM      7  C   LIG A   1      -7.049   0.243 127.285  0.00  0.00    +0.218 C 
ATOM      8  O   LIG A   1      -5.719   1.004 128.309  0.00  0.00    -0.456 OA
ATOM      9  C   LIG A   1      -4.382   1.495 128.240  0.00  0.00    +0.311 C 
ATOM     10  C   LIG A   1      -4.289   2.231 126.992  0.00  0.00    +0.159 C 
ATOM     11  O   LIG A   1      -3.541   1.382 129.092  0.00  0.00    -0.251 OA
ATOM     12  C   LIG A   1      -5.307  -0.934 125.790  0.00  0.00    +0.018 C 
ATOM     13  C   LIG A   1      -8.034   2.467 130.570  0.00  0.00    +0.071 C 
ATOM     14  C   LIG A   1      -8.603   3.045 129.305  0.00  0.00    +0.215 C 
ATOM     15  C   LIG A   1      -7.819   4.441 129.138  0.00  0.00    +0.209 C 
ATOM     16  C   LIG A   1      -8.761   5.497 129.673  0.00  0.00    +0.224 C 
ATOM     17  C   LIG A   1      -8.871   5.169 131.250  0.00  0.00    +0.009 C 
ATOM     18  C   LIG A   1      -8.171   6.311 132.031  0.00  0.00    +0.015 C 
ATOM     19  C   LIG A   1     -10.355   5.274 131.744  0.00  0.00    +0.015 C 
ATOM     20  C   LIG A   1      -8.318   3.658 131.665  0.00  0.00    +0.024 C 
ATOM     21  C   LIG A   1      -7.385   3.504 132.849  0.00  0.00    +0.125 C 
ATOM     22  C   LIG A   1      -7.291   2.059 133.311  0.00  0.00    +0.307 C 
ATOM     23  O   LIG A   1      -7.867   1.080 132.554  0.00  0.00    -0.464 OA
ATOM     24  C   LIG A   1      -8.665   1.323 131.352  0.00  0.00    +0.245 C 
ATOM     25  O   LIG A   1      -6.706   1.780 134.356  0.00  0.00    -0.251 OA
ATOM     26  C   LIG A   1      -7.073   4.164 127.858  0.00  0.00    +0.087 C 
ATOM     27  O   LIG A   1      -8.208   2.280 128.164  0.00  0.00    -0.336 OA
ENDROOT
BRANCH   7  28
ATOM     28  C   LIG A   1      -7.961   0.670 126.094  0.00  0.00    +0.031 A 
ATOM     29  C   LIG A   1      -7.752   0.619 124.716  0.00  0.00    +0.202 A 
ATOM     30  O   LIG A   1      -8.791   1.104 123.999  0.00  0.00    -0.471 OA
ATOM     31  C   LIG A   1      -9.765   1.386 124.884  0.00  0.00    +0.195 A 
ATOM     32  C   LIG A   1      -9.355   1.050 126.155  0.00  0.00    +0.048 A 
ENDBRANCH   7  28
BRANCH   1  33
ATOM     33  O   LIG A   1      -5.916   2.454 125.387  0.00  0.00    -0.385 OA
ATOM     34  H   LIG A   1      -6.375   3.308 125.456  0.00  0.00    +0.210 HD
ENDBRANCH   1  33
BRANCH  14  35
ATOM     35  O   LIG A   1     -10.002   3.021 129.336  0.00  0.00    -0.362 OA
ATOM     36  H   LIG A   1     -10.248   3.616 128.607  0.00  0.00    +0.213 HD
ENDBRANCH  14  35
BRANCH  15  37
ATOM     37  O   LIG A   1      -6.609   4.604 129.995  0.00  0.00    -0.167 OA
BRANCH  37  38
ATOM     38  O   LIG A   1      -5.737   5.616 129.369  0.00  0.00    -0.297 OA
BRANCH  38  39
ATOM     39  C   LIG A   1      -4.443   5.243 129.633  0.00  0.00    +0.340 C 
ATOM     40  C   LIG A   1      -4.368   4.613 130.991  0.00  0.00    +0.139 C 
ATOM     41  O   LIG A   1      -3.508   5.304 128.849  0.00  0.00    -0.248 OA
ENDBRANCH  38  39
ENDBRANCH  37  38
ENDBRANCH  15  37
BRANCH  16  42
ATOM     42  O   LIG A   1     -10.091   5.635 129.142  0.00  0.00    -0.458 OA
BRANCH  42  43
ATOM     43  C   LIG A   1     -10.371   6.656 128.303  0.00  0.00    +0.304 C 
ATOM     44  C   LIG A   1     -10.400   7.933 129.079  0.00  0.00    +0.136 C 
ATOM     45  O   LIG A   1     -10.447   6.585 127.090  0.00  0.00    -0.251 OA
ENDBRANCH  42  43
ENDBRANCH  16  42
TORSDOF 8
ENDMDL
MODEL 7
REMARK VINA RESULT:      -7.9      2.256      6.443
REMARK  Name = NuBBE_1365
REMARK  13 active torsions:
REMARK  status: ('A' for Active; 'I' for Inactive)
REMARK    1  A    between atoms: O_1  and  C_2
REMARK    2  A    between atoms: C_8  and  C_20
REMARK    3  A    between atoms: C_9  and  C_11
REMARK    4  A    between atoms: C_22  and  O_46
REMARK    5  A    between atoms: C_23  and  O_24
REMARK    6  A    between atoms: O_24  and  O_25
REMARK    7  A    between atoms: O_25  and  C_26
REMARK    8  A    between atoms: C_26  and  C_27
REMARK    9  A    between atoms: C_29  and  O_31
REMARK   10  A    between atoms: O_31  and  C_32
REMARK   11  A    between atoms: C_32  and  C_33
REMARK   12  A    between atoms: C_35  and  C_36
REMARK   13  A    between atoms: C_35  and  C_37
REMARK                            x       y       z     vdW  Elec       q    Type
REMARK                         _______ _______ _______ _____ _____    ______ ____
ROOT
ATOM      1  C   LIG A   1      -5.732  -0.063 130.009  0.00  0.00    +0.114 C 
ATOM      2  C   LIG A   1      -5.816   1.840 130.355  0.00  0.00    +0.109 C 
ATOM      3  C   LIG A   1      -6.851   2.483 131.820  0.00  0.00    +0.039 C 
ATOM      4  C   LIG A   1      -8.455   1.529 132.159  0.00  0.00    +0.008 C 
ATOM      5  C   LIG A   1      -8.701  -0.271 131.653  0.00  0.00    +0.014 C 
ATOM      6  C   LIG A   1      -7.519  -0.778 130.256  0.00  0.00    +0.041 C 
ATOM      7  C   LIG A   1      -7.861   0.455 129.664  0.00  0.00    +0.218 C 
ATOM      8  O   LIG A   1      -6.977   0.509 131.280  0.00  0.00    -0.456 OA
ATOM      9  C   LIG A   1      -6.045  -0.214 132.083  0.00  0.00    +0.311 C 
ATOM     10  C   LIG A   1      -5.024  -0.700 131.172  0.00  0.00    +0.159 C 
ATOM     11  O   LIG A   1      -6.074  -0.318 133.280  0.00  0.00    -0.251 OA
ATOM     12  C   LIG A   1      -7.910  -2.123 129.709  0.00  0.00    +0.018 C 
ATOM     13  C   LIG A   1      -7.074   4.056 131.432  0.00  0.00    +0.071 C 
ATOM     14  C   LIG A   1      -6.424   3.934 130.084  0.00  0.00    +0.215 C 
ATOM     15  C   LIG A   1      -4.850   3.921 130.419  0.00  0.00    +0.209 C 
ATOM     16  C   LIG A   1      -4.374   5.336 130.173  0.00  0.00    +0.224 C 
ATOM     17  C   LIG A   1      -5.122   6.209 131.307  0.00  0.00    +0.009 C 
ATOM     18  C   LIG A   1      -4.053   6.707 132.315  0.00  0.00    +0.015 C 
ATOM     19  C   LIG A   1      -5.682   7.546 130.710  0.00  0.00    +0.015 C 
ATOM     20  C   LIG A   1      -6.393   5.423 132.035  0.00  0.00    +0.024 C 
ATOM     21  C   LIG A   1      -6.512   5.438 133.545  0.00  0.00    +0.125 C 
ATOM     22  C   LIG A   1      -7.897   5.017 134.007  0.00  0.00    +0.307 C 
ATOM     23  O   LIG A   1      -8.781   4.521 133.093  0.00  0.00    -0.464 OA
ATOM     24  C   LIG A   1      -8.529   4.445 131.654  0.00  0.00    +0.245 C 
ATOM     25  O   LIG A   1      -8.215   5.127 135.190  0.00  0.00    -0.251 OA
ATOM     26  C   LIG A   1      -4.499   2.534 129.946  0.00  0.00    +0.087 C 
ATOM     27  O   LIG A   1      -6.672   2.652 129.503  0.00  0.00    -0.336 OA
ENDROOT
BRANCH   7  28
ATOM     28  C   LIG A   1      -7.487   0.543 128.153  0.00  0.00    +0.031 A 
ATOM     29  C   LIG A   1      -7.271  -0.456 127.203  0.00  0.00    +0.202 A 
ATOM     30  O   LIG A   1      -6.946   0.027 125.983  0.00  0.00    -0.471 OA
ATOM     31  C   LIG A   1      -7.050   1.367 126.064  0.00  0.00    +0.195 A 
ATOM     32  C   LIG A   1      -7.470   1.729 127.325  0.00  0.00    +0.048 A 
ENDBRANCH   7  28
BRANCH   1  33
ATOM     33  O   LIG A   1      -4.977  -0.470 128.887  0.00  0.00    -0.385 OA
ATOM     34  H   LIG A   1      -4.466   0.285 128.550  0.00  0.00    +0.210 HD
ENDBRANCH   1  33
BRANCH  14  35
ATOM     35  O   LIG A   1      -6.948   4.881 129.196  0.00  0.00    -0.362 OA
ATOM     36  H   LIG A   1      -7.619   5.338 129.732  0.00  0.00    +0.213 HD
ENDBRANCH  14  35
BRANCH  15  37
ATOM     37  O   LIG A   1      -4.501   3.693 131.851  0.00  0.00    -0.167 OA
BRANCH  37  38
ATOM     38  O   LIG A   1      -3.158   3.083 131.904  0.00  0.00    -0.297 OA
BRANCH  38  39
ATOM     39  C   LIG A   1      -3.054   2.459 133.122  0.00  0.00    +0.340 C 
ATOM     40  C   LIG A   1      -3.456   3.408 134.210  0.00  0.00    +0.139 C 
ATOM     41  O   LIG A   1      -2.786   1.280 133.301  0.00  0.00    -0.248 OA
ENDBRANCH  38  39
ENDBRANCH  37  38
ENDBRANCH  15  37
BRANCH  16  42
ATOM     42  O   LIG A   1      -4.581   5.972 128.898  0.00  0.00    -0.458 OA
BRANCH  42  43
ATOM     43  C   LIG A   1      -3.683   5.783 127.907  0.00  0.00    +0.304 C 
ATOM     44  C   LIG A   1      -2.476   6.623 128.174  0.00  0.00    +0.136 C 
ATOM     45  O   LIG A   1      -3.767   4.961 127.013  0.00  0.00    -0.251 OA
ENDBRANCH  42  43
ENDBRANCH  16  42
TORSDOF 8
ENDMDL
MODEL 8
REMARK VINA RESULT:      -7.9      2.139      6.282
REMARK  Name = NuBBE_1365
REMARK  13 active torsions:
REMARK  status: ('A' for Active; 'I' for Inactive)
REMARK    1  A    between atoms: O_1  and  C_2
REMARK    2  A    between atoms: C_8  and  C_20
REMARK    3  A    between atoms: C_9  and  C_11
REMARK    4  A    between atoms: C_22  and  O_46
REMARK    5  A    between atoms: C_23  and  O_24
REMARK    6  A    between atoms: O_24  and  O_25
REMARK    7  A    between atoms: O_25  and  C_26
REMARK    8  A    between atoms: C_26  and  C_27
REMARK    9  A    between atoms: C_29  and  O_31
REMARK   10  A    between atoms: O_31  and  C_32
REMARK   11  A    between atoms: C_32  and  C_33
REMARK   12  A    between atoms: C_35  and  C_36
REMARK   13  A    between atoms: C_35  and  C_37
REMARK                            x       y       z     vdW  Elec       q    Type
REMARK                         _______ _______ _______ _____ _____    ______ ____
ROOT
ATOM      1  C   LIG A   1      -5.535  -0.842 129.311  0.00  0.00    +0.114 C 
ATOM      2  C   LIG A   1      -6.519   0.814 129.509  0.00  0.00    +0.109 C 
ATOM      3  C   LIG A   1      -7.302   1.243 131.192  0.00  0.00    +0.039 C 
ATOM      4  C   LIG A   1      -7.999  -0.231 132.161  0.00  0.00    +0.008 C 
ATOM      5  C   LIG A   1      -7.379  -1.996 131.924  0.00  0.00    +0.014 C 
ATOM      6  C   LIG A   1      -6.530  -2.225 130.241  0.00  0.00    +0.041 C 
ATOM      7  C   LIG A   1      -7.616  -1.496 129.715  0.00  0.00    +0.218 C 
ATOM      8  O   LIG A   1      -6.502  -0.621 130.894  0.00  0.00    -0.456 OA
ATOM      9  C   LIG A   1      -5.155  -0.588 131.363  0.00  0.00    +0.311 C 
ATOM     10  C   LIG A   1      -4.318  -0.750 130.188  0.00  0.00    +0.159 C 
ATOM     11  O   LIG A   1      -4.804  -0.384 132.494  0.00  0.00    -0.251 OA
ATOM     12  C   LIG A   1      -6.278  -3.684 129.981  0.00  0.00    +0.018 C 
ATOM     13  C   LIG A   1      -8.418   2.367 130.785  0.00  0.00    +0.071 C 
ATOM     14  C   LIG A   1      -8.189   2.226 129.308  0.00  0.00    +0.215 C 
ATOM     15  C   LIG A   1      -6.825   3.042 129.053  0.00  0.00    +0.209 C 
ATOM     16  C   LIG A   1      -7.257   4.398 128.540  0.00  0.00    +0.224 C 
ATOM     17  C   LIG A   1      -8.019   5.073 129.793  0.00  0.00    +0.009 C 
ATOM     18  C   LIG A   1      -7.154   6.254 130.305  0.00  0.00    +0.015 C 
ATOM     19  C   LIG A   1      -9.337   5.786 129.332  0.00  0.00    +0.015 C 
ATOM     20  C   LIG A   1      -8.433   3.997 130.990  0.00  0.00    +0.024 C 
ATOM     21  C   LIG A   1      -8.134   4.339 132.436  0.00  0.00    +0.125 C 
ATOM     22  C   LIG A   1      -8.905   3.449 133.398  0.00  0.00    +0.307 C 
ATOM     23  O   LIG A   1      -9.598   2.381 132.906  0.00  0.00    -0.464 OA
ATOM     24  C   LIG A   1      -9.737   2.067 131.484  0.00  0.00    +0.245 C 
ATOM     25  O   LIG A   1      -8.904   3.694 134.603  0.00  0.00    -0.251 OA
ATOM     26  C   LIG A   1      -5.934   1.915 128.599  0.00  0.00    +0.087 C 
ATOM     27  O   LIG A   1      -7.865   0.878 128.960  0.00  0.00    -0.336 OA
ENDROOT
BRANCH   7  28
ATOM     28  C   LIG A   1      -7.764  -1.631 128.168  0.00  0.00    +0.031 A 
ATOM     29  C   LIG A   1      -7.602  -2.731 127.326  0.00  0.00    +0.202 A 
ATOM     30  O   LIG A   1      -7.806  -2.441 126.021  0.00  0.00    -0.471 OA
ATOM     31  C   LIG A   1      -8.222  -1.161 125.977  0.00  0.00    +0.195 A 
ATOM     32  C   LIG A   1      -8.310  -0.653 127.254  0.00  0.00    +0.048 A 
ENDBRANCH   7  28
BRANCH   1  33
ATOM     33  O   LIG A   1      -5.010  -1.117 128.029  0.00  0.00    -0.385 OA
ATOM     34  H   LIG A   1      -5.171  -0.358 127.443  0.00  0.00    +0.210 HD
ENDBRANCH   1  33
BRANCH  14  35
ATOM     35  O   LIG A   1      -9.349   2.553 128.595  0.00  0.00    -0.362 OA
ATOM     36  H   LIG A   1     -10.059   2.370 129.235  0.00  0.00    +0.213 HD
ENDBRANCH  14  35
BRANCH  15  37
ATOM     37  O   LIG A   1      -6.042   3.379 130.278  0.00  0.00    -0.167 OA
BRANCH  37  38
ATOM     38  O   LIG A   1      -4.685   3.779 129.858  0.00  0.00    -0.297 OA
BRANCH  38  39
ATOM     39  C   LIG A   1      -3.984   4.065 131.002  0.00  0.00    +0.340 C 
ATOM     40  C   LIG A   1      -4.522   3.250 132.139  0.00  0.00    +0.139 C 
ATOM     41  O   LIG A   1      -3.000   4.786 131.077  0.00  0.00    -0.248 OA
ENDBRANCH  38  39
ENDBRANCH  37  38
ENDBRANCH  15  37
BRANCH  16  42
ATOM     42  O   LIG A   1      -8.099   4.512 127.379  0.00  0.00    -0.458 OA
BRANCH  42  43
ATOM     43  C   LIG A   1      -7.543   4.485 126.148  0.00  0.00    +0.304 C 
ATOM     44  C   LIG A   1      -7.876   3.184 125.490  0.00  0.00    +0.136 C 
ATOM     45  O   LIG A   1      -6.984   5.414 125.595  0.00  0.00    -0.251 OA
ENDBRANCH  42  43
ENDBRANCH  16  42
TORSDOF 8
ENDMDL
MODEL 9
REMARK VINA RESULT:      -7.8      1.698      2.246
REMARK  Name = NuBBE_1365
REMARK  13 active torsions:
REMARK  status: ('A' for Active; 'I' for Inactive)
REMARK    1  A    between atoms: O_1  and  C_2
REMARK    2  A    between atoms: C_8  and  C_20
REMARK    3  A    between atoms: C_9  and  C_11
REMARK    4  A    between atoms: C_22  and  O_46
REMARK    5  A    between atoms: C_23  and  O_24
REMARK    6  A    between atoms: O_24  and  O_25
REMARK    7  A    between atoms: O_25  and  C_26
REMARK    8  A    between atoms: C_26  and  C_27
REMARK    9  A    between atoms: C_29  and  O_31
REMARK   10  A    between atoms: O_31  and  C_32
REMARK   11  A    between atoms: C_32  and  C_33
REMARK   12  A    between atoms: C_35  and  C_36
REMARK   13  A    between atoms: C_35  and  C_37
REMARK                            x       y       z     vdW  Elec       q    Type
REMARK                         _______ _______ _______ _____ _____    ______ ____
ROOT
ATOM      1  C   LIG A   1     -10.419   4.097 130.638  0.00  0.00    +0.114 C 
ATOM      2  C   LIG A   1      -8.768   3.800 129.670  0.00  0.00    +0.109 C 
ATOM      3  C   LIG A   1      -7.102   4.046 130.560  0.00  0.00    +0.039 C 
ATOM      4  C   LIG A   1      -7.056   5.467 131.816  0.00  0.00    +0.008 C 
ATOM      5  C   LIG A   1      -8.600   6.115 132.683  0.00  0.00    +0.014 C 
ATOM      6  C   LIG A   1     -10.180   5.691 131.719  0.00  0.00    +0.041 C 
ATOM      7  C   LIG A   1      -9.463   6.097 130.575  0.00  0.00    +0.218 C 
ATOM      8  O   LIG A   1      -8.838   4.622 131.486  0.00  0.00    -0.456 OA
ATOM      9  C   LIG A   1      -9.267   3.536 132.305  0.00  0.00    +0.311 C 
ATOM     10  C   LIG A   1     -10.502   3.052 131.716  0.00  0.00    +0.159 C 
ATOM     11  O   LIG A   1      -8.668   3.076 133.241  0.00  0.00    -0.251 OA
ATOM     12  C   LIG A   1     -11.354   6.433 132.295  0.00  0.00    +0.018 C 
ATOM     13  C   LIG A   1      -6.058   4.219 129.313  0.00  0.00    +0.071 C 
ATOM     14  C   LIG A   1      -7.131   4.208 128.263  0.00  0.00    +0.215 C 
ATOM     15  C   LIG A   1      -7.517   2.651 128.127  0.00  0.00    +0.209 C 
ATOM     16  C   LIG A   1      -6.761   2.154 126.914  0.00  0.00    +0.224 C 
ATOM     17  C   LIG A   1      -5.209   2.251 127.345  0.00  0.00    +0.009 C 
ATOM     18  C   LIG A   1      -4.656   0.809 127.485  0.00  0.00    +0.015 C 
ATOM     19  C   LIG A   1      -4.338   2.843 126.184  0.00  0.00    +0.015 C 
ATOM     20  C   LIG A   1      -4.940   3.189 128.691  0.00  0.00    +0.024 C 
ATOM     21  C   LIG A   1      -4.046   2.667 129.797  0.00  0.00    +0.125 C 
ATOM     22  C   LIG A   1      -3.610   3.775 130.742  0.00  0.00    +0.307 C 
ATOM     23  O   LIG A   1      -4.175   5.012 130.623  0.00  0.00    -0.464 OA
ATOM     24  C   LIG A   1      -5.124   5.392 129.576  0.00  0.00    +0.245 C 
ATOM     25  O   LIG A   1      -2.756   3.557 131.600  0.00  0.00    -0.251 OA
ATOM     26  C   LIG A   1      -8.946   2.699 128.602  0.00  0.00    +0.087 C 
ATOM     27  O   LIG A   1      -8.328   4.828 128.739  0.00  0.00    -0.336 OA
ENDROOT
BRANCH   7  28
ATOM     28  C   LIG A   1     -10.371   6.378 129.339  0.00  0.00    +0.031 A 
ATOM     29  C   LIG A   1     -11.759   6.437 129.217  0.00  0.00    +0.202 A 
ATOM     30  O   LIG A   1     -12.176   6.695 127.957  0.00  0.00    -0.471 OA
ATOM     31  C   LIG A   1     -11.067   6.927 127.230  0.00  0.00    +0.195 A 
ATOM     32  C   LIG A   1      -9.953   6.846 128.036  0.00  0.00    +0.048 A 
ENDBRANCH   7  28
BRANCH   1  33
ATOM     33  O   LIG A   1     -11.618   3.931 129.911  0.00  0.00    -0.385 OA
ATOM     34  H   LIG A   1     -12.013   4.802 129.735  0.00  0.00    +0.210 HD
ENDBRANCH   1  33
BRANCH  14  35
ATOM     35  O   LIG A   1      -6.728   4.935 127.137  0.00  0.00    -0.362 OA
ATOM     36  H   LIG A   1      -6.912   5.856 127.392  0.00  0.00    +0.213 HD
ENDBRANCH  14  35
BRANCH  15  37
ATOM     37  O   LIG A   1      -7.015   1.769 129.221  0.00  0.00    -0.167 OA
BRANCH  37  38
ATOM     38  O   LIG A   1      -7.763   0.498 129.163  0.00  0.00    -0.297 OA
BRANCH  38  39
ATOM     39  C   LIG A   1      -7.225  -0.322 130.123  0.00  0.00    +0.340 C 
ATOM     40  C   LIG A   1      -6.744   0.503 131.278  0.00  0.00    +0.139 C 
ATOM     41  O   LIG A   1      -7.230  -1.544 130.105  0.00  0.00    -0.248 OA
ENDBRANCH  38  39
ENDBRANCH  37  38
ENDBRANCH  15  37
BRANCH  16  42
ATOM     42  O   LIG A   1      -6.920   2.794 125.635  0.00  0.00    -0.458 OA
BRANCH  42  43
ATOM     43  C   LIG A   1      -8.152   2.897 125.090  0.00  0.00    +0.304 C 
ATOM     44  C   LIG A   1      -8.603   1.545 124.641  0.00  0.00    +0.136 C 
ATOM     45  O   LIG A   1      -8.852   3.893 125.089  0.00  0.00    -0.251 OA
ENDBRANCH  42  43
ENDBRANCH  16  42
TORSDOF 8
ENDMDL
