MODEL 1
REMARK VINA RESULT:      -7.2      0.000      0.000
REMARK  Name = NuBBE_2048
REMARK  9 active torsions:
REMARK  status: ('A' for Active; 'I' for Inactive)
REMARK    1  A    between atoms: O_1  and  C_2
REMARK    2  A    between atoms: O_1  and  C_3
REMARK    3  A    between atoms: C_15  and  O_16
REMARK    4  A    between atoms: O_16  and  C_17
REMARK    5  A    between atoms: C_18  and  O_22
REMARK    6  A    between atoms: C_19  and  O_21
REMARK    7  A    between atoms: O_22  and  C_23
REMARK    8  A    between atoms: C_26  and  O_27
REMARK    9  A    between atoms: O_27  and  C_28
REMARK                            x       y       z     vdW  Elec       q    Type
REMARK                         _______ _______ _______ _____ _____    ______ ____
ROOT
ATOM      1  C   LIG A   1     -11.248   7.640 128.718  0.00  0.00    +0.204 A 
ATOM      2  C   LIG A   1     -10.630   6.482 129.225  0.00  0.00    +0.172 A 
ATOM      3  C   LIG A   1     -11.043   5.934 130.446  0.00  0.00    +0.039 A 
ATOM      4  C   LIG A   1     -10.473   4.631 130.931  0.00  0.00    +0.218 C 
ATOM      5  C   LIG A   1      -9.374   4.060 130.036  0.00  0.00    +0.106 C 
ATOM      6  C   LIG A   1      -8.676   5.187 129.304  0.00  0.00    +0.241 C 
ATOM      7  O   LIG A   1      -9.625   5.889 128.504  0.00  0.00    -0.487 OA
ATOM      8  C   LIG A   1      -8.521   3.439 131.083  0.00  0.00    +0.012 A 
ATOM      9  C   LIG A   1      -8.874   3.953 132.328  0.00  0.00    +0.170 A 
ATOM     10  O   LIG A   1      -9.917   4.835 132.249  0.00  0.00    -0.479 OA
ATOM     11  C   LIG A   1      -8.199   3.610 133.502  0.00  0.00    +0.208 A 
ATOM     12  C   LIG A   1      -7.132   2.705 133.363  0.00  0.00    +0.207 A 
ATOM     13  C   LIG A   1      -6.799   2.188 132.089  0.00  0.00    +0.163 A 
ATOM     14  C   LIG A   1      -7.493   2.543 130.934  0.00  0.00    +0.057 A 
ATOM     15  C   LIG A   1     -12.017   6.591 131.206  0.00  0.00    +0.014 A 
ATOM     16  C   LIG A   1     -12.586   7.775 130.746  0.00  0.00    +0.050 A 
ATOM     17  C   LIG A   1     -12.206   8.311 129.510  0.00  0.00    +0.165 A 
ENDROOT
BRANCH   1  18
ATOM     18  O   LIG A   1     -10.932   8.224 127.510  0.00  0.00    -0.488 OA
ATOM     19  C   LIG A   1     -11.400   7.553 126.343  0.00  0.00    +0.277 C 
ENDBRANCH   1  18
BRANCH  11  20
ATOM     20  O   LIG A   1      -8.512   4.068 134.747  0.00  0.00    -0.488 OA
ATOM     21  C   LIG A   1      -7.924   5.275 135.213  0.00  0.00    +0.277 C 
ENDBRANCH  11  20
BRANCH  13  22
ATOM     22  O   LIG A   1      -5.739   1.335 131.939  0.00  0.00    -0.503 OA
ATOM     23  H   LIG A   1      -6.075   0.614 131.362  0.00  0.00    +0.292 HD
ENDBRANCH  13  22
BRANCH  12  24
ATOM     24  O   LIG A   1      -6.338   2.188 134.370  0.00  0.00    -0.488 OA
ATOM     25  C   LIG A   1      -5.209   2.962 134.758  0.00  0.00    +0.277 C 
ENDBRANCH  12  24
BRANCH  17  26
ATOM     26  O   LIG A   1     -12.759   9.461 128.997  0.00  0.00    -0.491 OA
ATOM     27  C   LIG A   1     -13.206  10.420 129.952  0.00  0.00    +0.277 C 
ENDBRANCH  17  26
TORSDOF 5
ENDMDL
MODEL 2
REMARK VINA RESULT:      -7.1      2.827      7.649
REMARK  Name = NuBBE_2048
REMARK  9 active torsions:
REMARK  status: ('A' for Active; 'I' for Inactive)
REMARK    1  A    between atoms: O_1  and  C_2
REMARK    2  A    between atoms: O_1  and  C_3
REMARK    3  A    between atoms: C_15  and  O_16
REMARK    4  A    between atoms: O_16  and  C_17
REMARK    5  A    between atoms: C_18  and  O_22
REMARK    6  A    between atoms: C_19  and  O_21
REMARK    7  A    between atoms: O_22  and  C_23
REMARK    8  A    between atoms: C_26  and  O_27
REMARK    9  A    between atoms: O_27  and  C_28
REMARK                            x       y       z     vdW  Elec       q    Type
REMARK                         _______ _______ _______ _____ _____    ______ ____
ROOT
ATOM      1  C   LIG A   1      -4.739   4.877 130.259  0.00  0.00    +0.204 A 
ATOM      2  C   LIG A   1      -6.121   5.026 130.475  0.00  0.00    +0.172 A 
ATOM      3  C   LIG A   1      -7.041   4.609 129.504  0.00  0.00    +0.039 A 
ATOM      4  C   LIG A   1      -8.517   4.651 129.781  0.00  0.00    +0.218 C 
ATOM      5  C   LIG A   1      -8.881   5.269 131.131  0.00  0.00    +0.106 C 
ATOM      6  C   LIG A   1      -7.809   6.255 131.545  0.00  0.00    +0.241 C 
ATOM      7  O   LIG A   1      -6.559   5.576 131.653  0.00  0.00    -0.487 OA
ATOM      8  C   LIG A   1     -10.155   5.931 130.747  0.00  0.00    +0.012 A 
ATOM      9  C   LIG A   1     -10.232   6.012 129.359  0.00  0.00    +0.170 A 
ATOM     10  O   LIG A   1      -9.157   5.430 128.745  0.00  0.00    -0.479 OA
ATOM     11  C   LIG A   1     -11.286   6.648 128.701  0.00  0.00    +0.208 A 
ATOM     12  C   LIG A   1     -12.281   7.210 129.519  0.00  0.00    +0.207 A 
ATOM     13  C   LIG A   1     -12.186   7.107 130.927  0.00  0.00    +0.163 A 
ATOM     14  C   LIG A   1     -11.126   6.461 131.559  0.00  0.00    +0.057 A 
ATOM     15  C   LIG A   1      -6.579   4.119 128.278  0.00  0.00    +0.014 A 
ATOM     16  C   LIG A   1      -5.213   4.032 128.026  0.00  0.00    +0.050 A 
ATOM     17  C   LIG A   1      -4.286   4.413 129.004  0.00  0.00    +0.165 A 
ENDROOT
BRANCH   1  18
ATOM     18  O   LIG A   1      -3.768   5.226 131.172  0.00  0.00    -0.488 OA
ATOM     19  C   LIG A   1      -3.446   4.245 132.156  0.00  0.00    +0.277 C 
ENDBRANCH   1  18
BRANCH  11  20
ATOM     20  O   LIG A   1     -11.421   6.741 127.348  0.00  0.00    -0.488 OA
ATOM     21  C   LIG A   1     -10.791   7.812 126.657  0.00  0.00    +0.277 C 
ENDBRANCH  11  20
BRANCH  13  22
ATOM     22  O   LIG A   1     -13.132   7.683 131.733  0.00  0.00    -0.503 OA
ATOM     23  H   LIG A   1     -12.652   8.390 132.218  0.00  0.00    +0.292 HD
ENDBRANCH  13  22
BRANCH  12  24
ATOM     24  O   LIG A   1     -13.433   7.857 129.110  0.00  0.00    -0.488 OA
ATOM     25  C   LIG A   1     -13.303   9.225 128.741  0.00  0.00    +0.277 C 
ENDBRANCH  12  24
BRANCH  17  26
ATOM     26  O   LIG A   1      -2.927   4.318 128.817  0.00  0.00    -0.491 OA
ATOM     27  C   LIG A   1      -2.492   4.133 127.472  0.00  0.00    +0.277 C 
ENDBRANCH  17  26
TORSDOF 5
ENDMDL
MODEL 3
REMARK VINA RESULT:      -6.9      2.449      2.993
REMARK  Name = NuBBE_2048
REMARK  9 active torsions:
REMARK  status: ('A' for Active; 'I' for Inactive)
REMARK    1  A    between atoms: O_1  and  C_2
REMARK    2  A    between atoms: O_1  and  C_3
REMARK    3  A    between atoms: C_15  and  O_16
REMARK    4  A    between atoms: O_16  and  C_17
REMARK    5  A    between atoms: C_18  and  O_22
REMARK    6  A    between atoms: C_19  and  O_21
REMARK    7  A    between atoms: O_22  and  C_23
REMARK    8  A    between atoms: C_26  and  O_27
REMARK    9  A    between atoms: O_27  and  C_28
REMARK                            x       y       z     vdW  Elec       q    Type
REMARK                         _______ _______ _______ _____ _____    ______ ____
ROOT
ATOM      1  C   LIG A   1     -10.478   7.556 129.610  0.00  0.00    +0.204 A 
ATOM      2  C   LIG A   1      -9.514   6.944 130.431  0.00  0.00    +0.172 A 
ATOM      3  C   LIG A   1      -9.895   6.288 131.609  0.00  0.00    +0.039 A 
ATOM      4  C   LIG A   1      -8.887   5.528 132.422  0.00  0.00    +0.218 C 
ATOM      5  C   LIG A   1      -7.454   5.638 131.900  0.00  0.00    +0.106 C 
ATOM      6  C   LIG A   1      -7.282   6.945 131.155  0.00  0.00    +0.241 C 
ATOM      7  O   LIG A   1      -8.194   6.987 130.059  0.00  0.00    -0.487 OA
ATOM      8  C   LIG A   1      -6.731   5.615 133.198  0.00  0.00    +0.012 A 
ATOM      9  C   LIG A   1      -7.629   5.879 134.230  0.00  0.00    +0.170 A 
ATOM     10  O   LIG A   1      -8.910   6.037 133.775  0.00  0.00    -0.479 OA
ATOM     11  C   LIG A   1      -7.230   5.994 135.563  0.00  0.00    +0.208 A 
ATOM     12  C   LIG A   1      -5.858   5.825 135.818  0.00  0.00    +0.207 A 
ATOM     13  C   LIG A   1      -4.966   5.548 134.754  0.00  0.00    +0.163 A 
ATOM     14  C   LIG A   1      -5.392   5.433 133.433  0.00  0.00    +0.057 A 
ATOM     15  C   LIG A   1     -11.234   6.316 132.014  0.00  0.00    +0.014 A 
ATOM     16  C   LIG A   1     -12.187   6.978 131.245  0.00  0.00    +0.050 A 
ATOM     17  C   LIG A   1     -11.821   7.605 130.048  0.00  0.00    +0.165 A 
ENDROOT
BRANCH   1  18
ATOM     18  O   LIG A   1     -10.197   8.188 128.419  0.00  0.00    -0.488 OA
ATOM     19  C   LIG A   1     -10.367   7.411 127.236  0.00  0.00    +0.277 C 
ENDBRANCH   1  18
BRANCH  11  20
ATOM     20  O   LIG A   1      -8.066   6.232 136.612  0.00  0.00    -0.488 OA
ATOM     21  C   LIG A   1      -8.257   7.568 137.061  0.00  0.00    +0.277 C 
ENDBRANCH  11  20
BRANCH  13  22
ATOM     22  O   LIG A   1      -3.623   5.418 134.988  0.00  0.00    -0.503 OA
ATOM     23  H   LIG A   1      -3.534   4.572 135.479  0.00  0.00    +0.292 HD
ENDBRANCH  13  22
BRANCH  12  24
ATOM     24  O   LIG A   1      -5.226   5.857 137.047  0.00  0.00    -0.488 OA
ATOM     25  C   LIG A   1      -5.333   4.690 137.853  0.00  0.00    +0.277 C 
ENDBRANCH  12  24
BRANCH  17  26
ATOM     26  O   LIG A   1     -12.728   8.246 129.237  0.00  0.00    -0.491 OA
ATOM     27  C   LIG A   1     -13.629   7.406 128.520  0.00  0.00    +0.277 C 
ENDBRANCH  17  26
TORSDOF 5
ENDMDL
MODEL 4
REMARK VINA RESULT:      -6.5      6.907     11.136
REMARK  Name = NuBBE_2048
REMARK  9 active torsions:
REMARK  status: ('A' for Active; 'I' for Inactive)
REMARK    1  A    between atoms: O_1  and  C_2
REMARK    2  A    between atoms: O_1  and  C_3
REMARK    3  A    between atoms: C_15  and  O_16
REMARK    4  A    between atoms: O_16  and  C_17
REMARK    5  A    between atoms: C_18  and  O_22
REMARK    6  A    between atoms: C_19  and  O_21
REMARK    7  A    between atoms: O_22  and  C_23
REMARK    8  A    between atoms: C_26  and  O_27
REMARK    9  A    between atoms: O_27  and  C_28
REMARK                            x       y       z     vdW  Elec       q    Type
REMARK                         _______ _______ _______ _____ _____    ______ ____
ROOT
ATOM      1  C   LIG A   1      -4.093  -2.492 131.173  0.00  0.00    +0.204 A 
ATOM      2  C   LIG A   1      -5.115  -1.909 130.403  0.00  0.00    +0.172 A 
ATOM      3  C   LIG A   1      -6.236  -2.659 130.024  0.00  0.00    +0.039 A 
ATOM      4  C   LIG A   1      -7.386  -2.008 129.308  0.00  0.00    +0.218 C 
ATOM      5  C   LIG A   1      -7.155  -0.537 128.966  0.00  0.00    +0.106 C 
ATOM      6  C   LIG A   1      -5.671  -0.276 128.812  0.00  0.00    +0.241 C 
ATOM      7  O   LIG A   1      -5.007  -0.592 130.034  0.00  0.00    -0.487 OA
ATOM      8  C   LIG A   1      -7.887  -0.481 127.674  0.00  0.00    +0.012 A 
ATOM      9  C   LIG A   1      -8.098  -1.776 127.208  0.00  0.00    +0.170 A 
ATOM     10  O   LIG A   1      -7.622  -2.723 128.074  0.00  0.00    -0.479 OA
ATOM     11  C   LIG A   1      -8.701  -2.043 125.978  0.00  0.00    +0.208 A 
ATOM     12  C   LIG A   1      -9.093  -0.925 125.222  0.00  0.00    +0.207 A 
ATOM     13  C   LIG A   1      -8.877   0.382 125.721  0.00  0.00    +0.163 A 
ATOM     14  C   LIG A   1      -8.277   0.620 126.955  0.00  0.00    +0.057 A 
ATOM     15  C   LIG A   1      -6.298  -4.020 130.343  0.00  0.00    +0.014 A 
ATOM     16  C   LIG A   1      -5.260  -4.625 131.046  0.00  0.00    +0.050 A 
ATOM     17  C   LIG A   1      -4.153  -3.874 131.460  0.00  0.00    +0.165 A 
ENDROOT
BRANCH   1  18
ATOM     18  O   LIG A   1      -2.977  -1.820 131.620  0.00  0.00    -0.488 OA
ATOM     19  C   LIG A   1      -3.126  -1.085 132.833  0.00  0.00    +0.277 C 
ENDBRANCH   1  18
BRANCH  11  20
ATOM     20  O   LIG A   1      -8.948  -3.288 125.482  0.00  0.00    -0.488 OA
ATOM     21  C   LIG A   1      -7.942  -3.948 124.723  0.00  0.00    +0.277 C 
ENDBRANCH  11  20
BRANCH  13  22
ATOM     22  O   LIG A   1      -9.223   1.477 124.975  0.00  0.00    -0.503 OA
ATOM     23  H   LIG A   1      -8.390   1.991 124.883  0.00  0.00    +0.292 HD
ENDBRANCH  13  22
BRANCH  12  24
ATOM     24  O   LIG A   1      -9.736  -0.927 123.998  0.00  0.00    -0.488 OA
ATOM     25  C   LIG A   1      -8.920  -1.094 122.845  0.00  0.00    +0.277 C 
ENDBRANCH  12  24
BRANCH  17  26
ATOM     26  O   LIG A   1      -3.116  -4.417 132.182  0.00  0.00    -0.491 OA
ATOM     27  C   LIG A   1      -3.419  -4.798 133.522  0.00  0.00    +0.277 C 
ENDBRANCH  17  26
TORSDOF 5
ENDMDL
MODEL 5
REMARK VINA RESULT:      -6.4      6.067      8.860
REMARK  Name = NuBBE_2048
REMARK  9 active torsions:
REMARK  status: ('A' for Active; 'I' for Inactive)
REMARK    1  A    between atoms: O_1  and  C_2
REMARK    2  A    between atoms: O_1  and  C_3
REMARK    3  A    between atoms: C_15  and  O_16
REMARK    4  A    between atoms: O_16  and  C_17
REMARK    5  A    between atoms: C_18  and  O_22
REMARK    6  A    between atoms: C_19  and  O_21
REMARK    7  A    between atoms: O_22  and  C_23
REMARK    8  A    between atoms: C_26  and  O_27
REMARK    9  A    between atoms: O_27  and  C_28
REMARK                            x       y       z     vdW  Elec       q    Type
REMARK                         _______ _______ _______ _____ _____    ______ ____
ROOT
ATOM      1  C   LIG A   1      -5.508   4.304 128.230  0.00  0.00    +0.204 A 
ATOM      2  C   LIG A   1      -5.823   2.935 128.149  0.00  0.00    +0.172 A 
ATOM      3  C   LIG A   1      -5.114   2.093 127.281  0.00  0.00    +0.039 A 
ATOM      4  C   LIG A   1      -5.361   0.612 127.282  0.00  0.00    +0.218 C 
ATOM      5  C   LIG A   1      -6.490   0.168 128.212  0.00  0.00    +0.106 C 
ATOM      6  C   LIG A   1      -7.486   1.297 128.379  0.00  0.00    +0.241 C 
ATOM      7  O   LIG A   1      -6.825   2.430 128.937  0.00  0.00    -0.487 OA
ATOM      8  C   LIG A   1      -7.027  -0.959 127.405  0.00  0.00    +0.012 A 
ATOM      9  C   LIG A   1      -6.551  -0.858 126.100  0.00  0.00    +0.170 A 
ATOM     10  O   LIG A   1      -5.702   0.203 125.938  0.00  0.00    -0.479 OA
ATOM     11  C   LIG A   1      -6.940  -1.738 125.088  0.00  0.00    +0.208 A 
ATOM     12  C   LIG A   1      -7.848  -2.747 125.457  0.00  0.00    +0.207 A 
ATOM     13  C   LIG A   1      -8.309  -2.835 126.791  0.00  0.00    +0.163 A 
ATOM     14  C   LIG A   1      -7.900  -1.946 127.784  0.00  0.00    +0.057 A 
ATOM     15  C   LIG A   1      -4.146   2.635 126.429  0.00  0.00    +0.014 A 
ATOM     16  C   LIG A   1      -3.874   4.000 126.452  0.00  0.00    +0.050 A 
ATOM     17  C   LIG A   1      -4.552   4.843 127.341  0.00  0.00    +0.165 A 
ENDROOT
BRANCH   1  18
ATOM     18  O   LIG A   1      -6.127   5.194 129.080  0.00  0.00    -0.488 OA
ATOM     19  C   LIG A   1      -5.643   5.226 130.421  0.00  0.00    +0.277 C 
ENDBRANCH   1  18
BRANCH  11  20
ATOM     20  O   LIG A   1      -6.493  -1.697 123.802  0.00  0.00    -0.488 OA
ATOM     21  C   LIG A   1      -5.445  -2.571 123.401  0.00  0.00    +0.277 C 
ENDBRANCH  11  20
BRANCH  13  22
ATOM     22  O   LIG A   1      -9.221  -3.791 127.151  0.00  0.00    -0.503 OA
ATOM     23  H   LIG A   1      -9.233  -3.771 128.133  0.00  0.00    +0.292 HD
ENDBRANCH  13  22
BRANCH  12  24
ATOM     24  O   LIG A   1      -8.352  -3.752 124.652  0.00  0.00    -0.488 OA
ATOM     25  C   LIG A   1      -9.393  -3.390 123.752  0.00  0.00    +0.277 C 
ENDBRANCH  12  24
BRANCH  17  26
ATOM     26  O   LIG A   1      -4.300   6.192 127.424  0.00  0.00    -0.491 OA
ATOM     27  C   LIG A   1      -3.051   6.561 128.006  0.00  0.00    +0.277 C 
ENDBRANCH  17  26
TORSDOF 5
ENDMDL
MODEL 6
REMARK VINA RESULT:      -6.4      6.320      8.355
REMARK  Name = NuBBE_2048
REMARK  9 active torsions:
REMARK  status: ('A' for Active; 'I' for Inactive)
REMARK    1  A    between atoms: O_1  and  C_2
REMARK    2  A    between atoms: O_1  and  C_3
REMARK    3  A    between atoms: C_15  and  O_16
REMARK    4  A    between atoms: O_16  and  C_17
REMARK    5  A    between atoms: C_18  and  O_22
REMARK    6  A    between atoms: C_19  and  O_21
REMARK    7  A    between atoms: O_22  and  C_23
REMARK    8  A    between atoms: C_26  and  O_27
REMARK    9  A    between atoms: O_27  and  C_28
REMARK                            x       y       z     vdW  Elec       q    Type
REMARK                         _______ _______ _______ _____ _____    ______ ____
ROOT
ATOM      1  C   LIG A   1      -8.937  -0.176 124.495  0.00  0.00    +0.204 A 
ATOM      2  C   LIG A   1      -7.955   0.775 124.827  0.00  0.00    +0.172 A 
ATOM      3  C   LIG A   1      -6.744   0.373 125.406  0.00  0.00    +0.039 A 
ATOM      4  C   LIG A   1      -5.645   1.368 125.648  0.00  0.00    +0.218 C 
ATOM      5  C   LIG A   1      -6.022   2.809 125.307  0.00  0.00    +0.106 C 
ATOM      6  C   LIG A   1      -7.518   2.992 125.455  0.00  0.00    +0.241 C 
ATOM      7  O   LIG A   1      -8.192   2.101 124.569  0.00  0.00    -0.487 OA
ATOM      8  C   LIG A   1      -5.249   3.509 126.366  0.00  0.00    +0.012 A 
ATOM      9  C   LIG A   1      -4.878   2.592 127.347  0.00  0.00    +0.170 A 
ATOM     10  O   LIG A   1      -5.281   1.319 127.046  0.00  0.00    -0.479 OA
ATOM     11  C   LIG A   1      -4.200   2.967 128.508  0.00  0.00    +0.208 A 
ATOM     12  C   LIG A   1      -3.903   4.334 128.641  0.00  0.00    +0.207 A 
ATOM     13  C   LIG A   1      -4.281   5.245 127.626  0.00  0.00    +0.163 A 
ATOM     14  C   LIG A   1      -4.953   4.843 126.474  0.00  0.00    +0.057 A 
ATOM     15  C   LIG A   1      -6.546  -0.973 125.732  0.00  0.00    +0.014 A 
ATOM     16  C   LIG A   1      -7.539  -1.913 125.471  0.00  0.00    +0.050 A 
ATOM     17  C   LIG A   1      -8.738  -1.526 124.860  0.00  0.00    +0.165 A 
ENDROOT
BRANCH   1  18
ATOM     18  O   LIG A   1     -10.138   0.126 123.891  0.00  0.00    -0.488 OA
ATOM     19  C   LIG A   1     -10.103   0.317 122.478  0.00  0.00    +0.277 C 
ENDBRANCH   1  18
BRANCH  11  20
ATOM     20  O   LIG A   1      -3.798   2.111 129.490  0.00  0.00    -0.488 OA
ATOM     21  C   LIG A   1      -4.732   1.697 130.479  0.00  0.00    +0.277 C 
ENDBRANCH  11  20
BRANCH  13  22
ATOM     22  O   LIG A   1      -4.028   6.584 127.763  0.00  0.00    -0.503 OA
ATOM     23  H   LIG A   1      -3.493   6.656 128.584  0.00  0.00    +0.292 HD
ENDBRANCH  13  22
BRANCH  12  24
ATOM     24  O   LIG A   1      -3.214   4.944 129.673  0.00  0.00    -0.488 OA
ATOM     25  C   LIG A   1      -3.967   5.291 130.829  0.00  0.00    +0.277 C 
ENDBRANCH  12  24
BRANCH  17  26
ATOM     26  O   LIG A   1      -9.737  -2.420 124.552  0.00  0.00    -0.491 OA
ATOM     27  C   LIG A   1      -9.470  -3.310 123.472  0.00  0.00    +0.277 C 
ENDBRANCH  17  26
TORSDOF 5
ENDMDL
MODEL 7
REMARK VINA RESULT:      -6.3      6.947      8.260
REMARK  Name = NuBBE_2048
REMARK  9 active torsions:
REMARK  status: ('A' for Active; 'I' for Inactive)
REMARK    1  A    between atoms: O_1  and  C_2
REMARK    2  A    between atoms: O_1  and  C_3
REMARK    3  A    between atoms: C_15  and  O_16
REMARK    4  A    between atoms: O_16  and  C_17
REMARK    5  A    between atoms: C_18  and  O_22
REMARK    6  A    between atoms: C_19  and  O_21
REMARK    7  A    between atoms: O_22  and  C_23
REMARK    8  A    between atoms: C_26  and  O_27
REMARK    9  A    between atoms: O_27  and  C_28
REMARK                            x       y       z     vdW  Elec       q    Type
REMARK                         _______ _______ _______ _____ _____    ______ ____
ROOT
ATOM      1  C   LIG A   1      -9.014  -0.553 124.708  0.00  0.00    +0.204 A 
ATOM      2  C   LIG A   1      -8.612  -1.147 125.917  0.00  0.00    +0.172 A 
ATOM      3  C   LIG A   1      -8.060  -0.369 126.943  0.00  0.00    +0.039 A 
ATOM      4  C   LIG A   1      -7.745  -0.976 128.280  0.00  0.00    +0.218 C 
ATOM      5  C   LIG A   1      -7.985  -2.484 128.351  0.00  0.00    +0.106 C 
ATOM      6  C   LIG A   1      -7.830  -3.091 126.972  0.00  0.00    +0.241 C 
ATOM      7  O   LIG A   1      -8.777  -2.498 126.087  0.00  0.00    -0.487 OA
ATOM      8  C   LIG A   1      -6.877  -2.853 129.271  0.00  0.00    +0.012 A 
ATOM      9  C   LIG A   1      -5.962  -1.805 129.332  0.00  0.00    +0.170 A 
ATOM     10  O   LIG A   1      -6.352  -0.730 128.580  0.00  0.00    -0.479 OA
ATOM     11  C   LIG A   1      -4.775  -1.885 130.063  0.00  0.00    +0.208 A 
ATOM     12  C   LIG A   1      -4.546  -3.092 130.746  0.00  0.00    +0.207 A 
ATOM     13  C   LIG A   1      -5.495  -4.139 130.676  0.00  0.00    +0.163 A 
ATOM     14  C   LIG A   1      -6.675  -4.031 129.943  0.00  0.00    +0.057 A 
ATOM     15  C   LIG A   1      -7.828   0.995 126.728  0.00  0.00    +0.014 A 
ATOM     16  C   LIG A   1      -8.159   1.581 125.510  0.00  0.00    +0.050 A 
ATOM     17  C   LIG A   1      -8.744   0.817 124.492  0.00  0.00    +0.165 A 
ENDROOT
BRANCH   1  18
ATOM     18  O   LIG A   1      -9.599  -1.235 123.663  0.00  0.00    -0.488 OA
ATOM     19  C   LIG A   1      -8.725  -2.013 122.849  0.00  0.00    +0.277 C 
ENDBRANCH   1  18
BRANCH  11  20
ATOM     20  O   LIG A   1      -3.855  -0.885 130.172  0.00  0.00    -0.488 OA
ATOM     21  C   LIG A   1      -4.138   0.234 131.004  0.00  0.00    +0.277 C 
ENDBRANCH  11  20
BRANCH  13  22
ATOM     22  O   LIG A   1      -5.263  -5.332 131.308  0.00  0.00    -0.503 OA
ATOM     23  H   LIG A   1      -5.331  -6.009 130.600  0.00  0.00    +0.292 HD
ENDBRANCH  13  22
BRANCH  12  24
ATOM     24  O   LIG A   1      -3.471  -3.402 131.558  0.00  0.00    -0.488 OA
ATOM     25  C   LIG A   1      -3.526  -2.932 132.900  0.00  0.00    +0.277 C 
ENDBRANCH  12  24
BRANCH  17  26
ATOM     26  O   LIG A   1      -9.117   1.354 123.282  0.00  0.00    -0.491 OA
ATOM     27  C   LIG A   1      -8.632   2.665 123.003  0.00  0.00    +0.277 C 
ENDBRANCH  17  26
TORSDOF 5
ENDMDL
MODEL 8
REMARK VINA RESULT:      -6.2      8.197     11.039
REMARK  Name = NuBBE_2048
REMARK  9 active torsions:
REMARK  status: ('A' for Active; 'I' for Inactive)
REMARK    1  A    between atoms: O_1  and  C_2
REMARK    2  A    between atoms: O_1  and  C_3
REMARK    3  A    between atoms: C_15  and  O_16
REMARK    4  A    between atoms: O_16  and  C_17
REMARK    5  A    between atoms: C_18  and  O_22
REMARK    6  A    between atoms: C_19  and  O_21
REMARK    7  A    between atoms: O_22  and  C_23
REMARK    8  A    between atoms: C_26  and  O_27
REMARK    9  A    between atoms: O_27  and  C_28
REMARK                            x       y       z     vdW  Elec       q    Type
REMARK                         _______ _______ _______ _____ _____    ______ ____
ROOT
ATOM      1  C   LIG A   1      -5.334  -2.179 132.955  0.00  0.00    +0.204 A 
ATOM      2  C   LIG A   1      -5.902  -2.531 131.717  0.00  0.00    +0.172 A 
ATOM      3  C   LIG A   1      -5.119  -2.550 130.555  0.00  0.00    +0.039 A 
ATOM      4  C   LIG A   1      -5.689  -3.044 129.256  0.00  0.00    +0.218 C 
ATOM      5  C   LIG A   1      -7.173  -3.402 129.323  0.00  0.00    +0.106 C 
ATOM      6  C   LIG A   1      -7.846  -2.584 130.406  0.00  0.00    +0.241 C 
ATOM      7  O   LIG A   1      -7.231  -2.865 131.661  0.00  0.00    -0.487 OA
ATOM      8  C   LIG A   1      -7.575  -2.985 127.954  0.00  0.00    +0.012 A 
ATOM      9  C   LIG A   1      -6.587  -2.166 127.414  0.00  0.00    +0.170 A 
ATOM     10  O   LIG A   1      -5.522  -2.011 128.259  0.00  0.00    -0.479 OA
ATOM     11  C   LIG A   1      -6.714  -1.560 126.162  0.00  0.00    +0.208 A 
ATOM     12  C   LIG A   1      -7.904  -1.825 125.462  0.00  0.00    +0.207 A 
ATOM     13  C   LIG A   1      -8.888  -2.669 126.026  0.00  0.00    +0.163 A 
ATOM     14  C   LIG A   1      -8.734  -3.265 127.276  0.00  0.00    +0.057 A 
ATOM     15  C   LIG A   1      -3.784  -2.135 130.614  0.00  0.00    +0.014 A 
ATOM     16  C   LIG A   1      -3.229  -1.719 131.821  0.00  0.00    +0.050 A 
ATOM     17  C   LIG A   1      -3.995  -1.731 132.994  0.00  0.00    +0.165 A 
ENDROOT
BRANCH   1  18
ATOM     18  O   LIG A   1      -6.019  -2.170 134.150  0.00  0.00    -0.488 OA
ATOM     19  C   LIG A   1      -6.114  -3.417 134.834  0.00  0.00    +0.277 C 
ENDBRANCH   1  18
BRANCH  11  20
ATOM     20  O   LIG A   1      -5.773  -0.765 125.579  0.00  0.00    -0.488 OA
ATOM     21  C   LIG A   1      -5.736   0.620 125.899  0.00  0.00    +0.277 C 
ENDBRANCH  11  20
BRANCH  13  22
ATOM     22  O   LIG A   1     -10.066  -2.903 125.367  0.00  0.00    -0.503 OA
ATOM     23  H   LIG A   1     -10.750  -2.448 125.906  0.00  0.00    +0.292 HD
ENDBRANCH  13  22
BRANCH  12  24
ATOM     24  O   LIG A   1      -8.248  -1.375 124.200  0.00  0.00    -0.488 OA
ATOM     25  C   LIG A   1      -7.659  -2.051 123.096  0.00  0.00    +0.277 C 
ENDBRANCH  12  24
BRANCH  17  26
ATOM     26  O   LIG A   1      -3.487  -1.359 134.216  0.00  0.00    -0.491 OA
ATOM     27  C   LIG A   1      -2.292  -2.020 134.624  0.00  0.00    +0.277 C 
ENDBRANCH  17  26
TORSDOF 5
ENDMDL
MODEL 9
REMARK VINA RESULT:      -6.2      3.079      8.570
REMARK  Name = NuBBE_2048
REMARK  9 active torsions:
REMARK  status: ('A' for Active; 'I' for Inactive)
REMARK    1  A    between atoms: O_1  and  C_2
REMARK    2  A    between atoms: O_1  and  C_3
REMARK    3  A    between atoms: C_15  and  O_16
REMARK    4  A    between atoms: O_16  and  C_17
REMARK    5  A    between atoms: C_18  and  O_22
REMARK    6  A    between atoms: C_19  and  O_21
REMARK    7  A    between atoms: O_22  and  C_23
REMARK    8  A    between atoms: C_26  and  O_27
REMARK    9  A    between atoms: O_27  and  C_28
REMARK                            x       y       z     vdW  Elec       q    Type
REMARK                         _______ _______ _______ _____ _____    ______ ____
ROOT
ATOM      1  C   LIG A   1      -6.129  -1.573 132.149  0.00  0.00    +0.204 A 
ATOM      2  C   LIG A   1      -6.971  -0.458 132.319  0.00  0.00    +0.172 A 
ATOM      3  C   LIG A   1      -7.887  -0.100 131.321  0.00  0.00    +0.039 A 
ATOM      4  C   LIG A   1      -8.872   1.011 131.550  0.00  0.00    +0.218 C 
ATOM      5  C   LIG A   1      -8.695   1.735 132.884  0.00  0.00    +0.106 C 
ATOM      6  C   LIG A   1      -7.250   1.641 133.328  0.00  0.00    +0.241 C 
ATOM      7  O   LIG A   1      -6.892   0.269 133.479  0.00  0.00    -0.487 OA
ATOM      8  C   LIG A   1      -9.078   3.106 132.456  0.00  0.00    +0.012 A 
ATOM      9  C   LIG A   1      -9.046   3.180 131.066  0.00  0.00    +0.170 A 
ATOM     10  O   LIG A   1      -8.722   1.982 130.490  0.00  0.00    -0.479 OA
ATOM     11  C   LIG A   1      -9.291   4.366 130.371  0.00  0.00    +0.208 A 
ATOM     12  C   LIG A   1      -9.578   5.498 131.153  0.00  0.00    +0.207 A 
ATOM     13  C   LIG A   1      -9.615   5.396 132.564  0.00  0.00    +0.163 A 
ATOM     14  C   LIG A   1      -9.371   4.198 133.233  0.00  0.00    +0.057 A 
ATOM     15  C   LIG A   1      -7.904  -0.805 130.113  0.00  0.00    +0.014 A 
ATOM     16  C   LIG A   1      -7.028  -1.867 129.906  0.00  0.00    +0.050 A 
ATOM     17  C   LIG A   1      -6.134  -2.255 130.911  0.00  0.00    +0.165 A 
ENDROOT
BRANCH   1  18
ATOM     18  O   LIG A   1      -5.227  -2.017 133.091  0.00  0.00    -0.488 OA
ATOM     19  C   LIG A   1      -5.744  -2.880 134.102  0.00  0.00    +0.277 C 
ENDBRANCH   1  18
BRANCH  11  20
ATOM     20  O   LIG A   1      -9.291   4.491 129.013  0.00  0.00    -0.488 OA
ATOM     21  C   LIG A   1      -8.054   4.466 128.312  0.00  0.00    +0.277 C 
ENDBRANCH  11  20
BRANCH  13  22
ATOM     22  O   LIG A   1      -9.857   6.500 133.336  0.00  0.00    -0.503 OA
ATOM     23  H   LIG A   1      -8.984   6.737 133.718  0.00  0.00    +0.292 HD
ENDBRANCH  13  22
BRANCH  12  24
ATOM     24  O   LIG A   1      -9.887   6.768 130.704  0.00  0.00    -0.488 OA
ATOM     25  C   LIG A   1     -11.227   6.991 130.284  0.00  0.00    +0.277 C 
ENDBRANCH  12  24
BRANCH  17  26
ATOM     26  O   LIG A   1      -5.269  -3.315 130.769  0.00  0.00    -0.491 OA
ATOM     27  C   LIG A   1      -5.871  -4.588 130.553  0.00  0.00    +0.277 C 
ENDBRANCH  17  26
TORSDOF 5
ENDMDL
