MODEL 1
REMARK VINA RESULT:      -7.9      0.000      0.000
REMARK  Name = NuBBE_2170
REMARK  8 active torsions:
REMARK  status: ('A' for Active; 'I' for Inactive)
REMARK    1  A    between atoms: C_1  and  O_2
REMARK    2  A    between atoms: O_2  and  C_3
REMARK    3  A    between atoms: C_4  and  O_5
REMARK    4  A    between atoms: O_5  and  C_6
REMARK    5  A    between atoms: C_11  and  O_12
REMARK    6  A    between atoms: C_13  and  C_14
REMARK    7  A    between atoms: C_15  and  C_16
REMARK    8  A    between atoms: C_17  and  C_18
REMARK                            x       y       z     vdW  Elec       q    Type
REMARK                         _______ _______ _______ _____ _____    ______ ____
ROOT
ATOM      1  C   LIG A   1      -7.279  -1.054 123.845  0.00  0.00    +0.162 A 
ATOM      2  C   LIG A   1      -7.140  -1.410 125.180  0.00  0.00    +0.162 A 
ATOM      3  C   LIG A   1      -6.807  -0.416 126.100  0.00  0.00    +0.061 A 
ATOM      4  C   LIG A   1      -7.089   0.286 123.462  0.00  0.00    +0.058 A 
ATOM      5  C   LIG A   1      -6.804   1.336 124.393  0.00  0.00    -0.003 A 
ATOM      6  C   LIG A   1      -6.660   0.939 125.733  0.00  0.00    +0.028 A 
ATOM      7  C   LIG A   1      -6.334   1.884 126.725  0.00  0.00    +0.128 A 
ATOM      8  C   LIG A   1      -6.100   3.225 126.426  0.00  0.00    -0.005 A 
ATOM      9  C   LIG A   1      -5.681   4.163 127.528  0.00  0.00    +0.048 C 
ATOM     10  C   LIG A   1      -6.303   3.670 125.095  0.00  0.00    -0.036 A 
ATOM     11  C   LIG A   1      -6.104   5.147 124.810  0.00  0.00    +0.045 C 
ATOM     12  C   LIG A   1      -6.649   2.740 124.046  0.00  0.00    -0.007 A 
ENDROOT
BRANCH  12  13
ATOM     13  C   LIG A   1      -6.840   3.204 122.625  0.00  0.00    -0.013 A 
ATOM     14  C   LIG A   1      -8.123   3.335 122.056  0.00  0.00    +0.058 A 
ATOM     15  C   LIG A   1      -8.250   3.759 120.747  0.00  0.00    +0.167 A 
ATOM     16  C   LIG A   1      -7.167   4.138 119.997  0.00  0.00    +0.166 A 
ATOM     17  O   LIG A   1      -7.514   4.570 118.757  0.00  0.00    -0.453 OA
ATOM     18  C   LIG A   1      -8.942   4.360 118.788  0.00  0.00    +0.466 C 
ATOM     19  O   LIG A   1      -9.419   3.860 120.055  0.00  0.00    -0.453 OA
ATOM     20  C   LIG A   1      -5.891   4.061 120.502  0.00  0.00    +0.050 A 
ATOM     21  C   LIG A   1      -5.732   3.545 121.797  0.00  0.00    +0.012 A 
ENDBRANCH  12  13
BRANCH   1  23
ATOM     22  C   LIG A   1      -9.043  -2.289 122.844  0.00  0.00    +0.277 C 
ATOM     23  O   LIG A   1      -7.647  -2.047 122.969  0.00  0.00    -0.491 OA
ENDBRANCH   1  23
BRANCH   2  24
ATOM     24  O   LIG A   1      -7.298  -2.732 125.522  0.00  0.00    -0.491 OA
ATOM     25  C   LIG A   1      -8.125  -3.013 126.647  0.00  0.00    +0.277 C 
ENDBRANCH   2  24
BRANCH   7  26
ATOM     26  O   LIG A   1      -6.244   1.515 128.046  0.00  0.00    -0.506 OA
ATOM     27  H   LIG A   1      -5.874   0.615 128.065  0.00  0.00    +0.292 HD
ENDBRANCH   7  26
TORSDOF 4
ENDMDL
MODEL 2
REMARK VINA RESULT:      -7.5      4.365      7.321
REMARK  Name = NuBBE_2170
REMARK  8 active torsions:
REMARK  status: ('A' for Active; 'I' for Inactive)
REMARK    1  A    between atoms: C_1  and  O_2
REMARK    2  A    between atoms: O_2  and  C_3
REMARK    3  A    between atoms: C_4  and  O_5
REMARK    4  A    between atoms: O_5  and  C_6
REMARK    5  A    between atoms: C_11  and  O_12
REMARK    6  A    between atoms: C_13  and  C_14
REMARK    7  A    between atoms: C_15  and  C_16
REMARK    8  A    between atoms: C_17  and  C_18
REMARK                            x       y       z     vdW  Elec       q    Type
REMARK                         _______ _______ _______ _____ _____    ______ ____
ROOT
ATOM      1  C   LIG A   1      -8.396   2.488 128.800  0.00  0.00    +0.162 A 
ATOM      2  C   LIG A   1      -8.397   2.782 130.157  0.00  0.00    +0.162 A 
ATOM      3  C   LIG A   1      -8.189   1.740 131.060  0.00  0.00    +0.061 A 
ATOM      4  C   LIG A   1      -8.180   1.164 128.377  0.00  0.00    +0.058 A 
ATOM      5  C   LIG A   1      -7.906   0.086 129.280  0.00  0.00    -0.003 A 
ATOM      6  C   LIG A   1      -7.926   0.417 130.646  0.00  0.00    +0.028 A 
ATOM      7  C   LIG A   1      -7.714  -0.577 131.622  0.00  0.00    +0.128 A 
ATOM      8  C   LIG A   1      -7.523  -1.916 131.289  0.00  0.00    -0.005 A 
ATOM      9  C   LIG A   1      -7.379  -2.934 132.391  0.00  0.00    +0.048 C 
ATOM     10  C   LIG A   1      -7.431  -2.271 129.919  0.00  0.00    -0.036 A 
ATOM     11  C   LIG A   1      -7.158  -3.726 129.587  0.00  0.00    +0.045 C 
ATOM     12  C   LIG A   1      -7.630  -1.285 128.883  0.00  0.00    -0.007 A 
ENDROOT
BRANCH  12  13
ATOM     13  C   LIG A   1      -7.560  -1.662 127.426  0.00  0.00    -0.013 A 
ATOM     14  C   LIG A   1      -8.712  -2.038 126.704  0.00  0.00    +0.058 A 
ATOM     15  C   LIG A   1      -8.601  -2.381 125.370  0.00  0.00    +0.167 A 
ATOM     16  C   LIG A   1      -7.412  -2.292 124.693  0.00  0.00    +0.166 A 
ATOM     17  O   LIG A   1      -7.530  -2.625 123.382  0.00  0.00    -0.453 OA
ATOM     18  C   LIG A   1      -8.924  -2.997 123.322  0.00  0.00    +0.466 C 
ATOM     19  O   LIG A   1      -9.614  -2.828 124.578  0.00  0.00    -0.453 OA
ATOM     20  C   LIG A   1      -6.258  -1.906 125.331  0.00  0.00    +0.050 A 
ATOM     21  C   LIG A   1      -6.330  -1.643 126.708  0.00  0.00    +0.012 A 
ENDBRANCH  12  13
BRANCH   1  23
ATOM     22  C   LIG A   1      -7.503   3.774 127.013  0.00  0.00    +0.277 C 
ATOM     23  O   LIG A   1      -8.563   3.542 127.933  0.00  0.00    -0.491 OA
ENDBRANCH   1  23
BRANCH   2  24
ATOM     24  O   LIG A   1      -8.643   4.078 130.544  0.00  0.00    -0.491 OA
ATOM     25  C   LIG A   1      -9.924   4.353 131.099  0.00  0.00    +0.277 C 
ENDBRANCH   2  24
BRANCH   7  26
ATOM     26  O   LIG A   1      -7.677  -0.254 132.957  0.00  0.00    -0.506 OA
ATOM     27  H   LIG A   1      -6.801  -0.516 133.290  0.00  0.00    +0.292 HD
ENDBRANCH   7  26
TORSDOF 4
ENDMDL
MODEL 3
REMARK VINA RESULT:      -7.4      3.486      8.667
REMARK  Name = NuBBE_2170
REMARK  8 active torsions:
REMARK  status: ('A' for Active; 'I' for Inactive)
REMARK    1  A    between atoms: C_1  and  O_2
REMARK    2  A    between atoms: O_2  and  C_3
REMARK    3  A    between atoms: C_4  and  O_5
REMARK    4  A    between atoms: O_5  and  C_6
REMARK    5  A    between atoms: C_11  and  O_12
REMARK    6  A    between atoms: C_13  and  C_14
REMARK    7  A    between atoms: C_15  and  C_16
REMARK    8  A    between atoms: C_17  and  C_18
REMARK                            x       y       z     vdW  Elec       q    Type
REMARK                         _______ _______ _______ _____ _____    ______ ____
ROOT
ATOM      1  C   LIG A   1      -7.755   2.090 127.370  0.00  0.00    +0.162 A 
ATOM      2  C   LIG A   1      -8.363   2.586 126.225  0.00  0.00    +0.162 A 
ATOM      3  C   LIG A   1      -8.763   1.681 125.242  0.00  0.00    +0.061 A 
ATOM      4  C   LIG A   1      -7.567   0.703 127.510  0.00  0.00    +0.058 A 
ATOM      5  C   LIG A   1      -8.020  -0.252 126.543  0.00  0.00    -0.003 A 
ATOM      6  C   LIG A   1      -8.621   0.285 125.392  0.00  0.00    +0.028 A 
ATOM      7  C   LIG A   1      -9.062  -0.563 124.358  0.00  0.00    +0.128 A 
ATOM      8  C   LIG A   1      -8.887  -1.944 124.404  0.00  0.00    -0.005 A 
ATOM      9  C   LIG A   1      -9.316  -2.780 123.225  0.00  0.00    +0.048 C 
ATOM     10  C   LIG A   1      -8.345  -2.523 125.580  0.00  0.00    -0.036 A 
ATOM     11  C   LIG A   1      -8.226  -4.034 125.628  0.00  0.00    +0.045 C 
ATOM     12  C   LIG A   1      -7.890  -1.695 126.671  0.00  0.00    -0.007 A 
ENDROOT
BRANCH  12  13
ATOM     13  C   LIG A   1      -7.289  -2.303 127.912  0.00  0.00    -0.013 A 
ATOM     14  C   LIG A   1      -5.894  -2.433 128.070  0.00  0.00    +0.058 A 
ATOM     15  C   LIG A   1      -5.386  -3.002 129.222  0.00  0.00    +0.167 A 
ATOM     16  C   LIG A   1      -6.194  -3.377 130.265  0.00  0.00    +0.166 A 
ATOM     17  O   LIG A   1      -5.492  -3.865 131.320  0.00  0.00    -0.453 OA
ATOM     18  C   LIG A   1      -4.148  -3.814 130.798  0.00  0.00    +0.466 C 
ATOM     19  O   LIG A   1      -4.070  -3.251 129.472  0.00  0.00    -0.453 OA
ATOM     20  C   LIG A   1      -7.559  -3.252 130.186  0.00  0.00    +0.050 A 
ATOM     21  C   LIG A   1      -8.102  -2.762 128.988  0.00  0.00    +0.012 A 
ENDBRANCH  12  13
BRANCH   1  23
ATOM     22  C   LIG A   1      -8.196   2.991 129.523  0.00  0.00    +0.277 C 
ATOM     23  O   LIG A   1      -7.409   3.002 128.339  0.00  0.00    -0.491 OA
ENDBRANCH   1  23
BRANCH   2  24
ATOM     24  O   LIG A   1      -8.504   3.948 126.099  0.00  0.00    -0.491 OA
ATOM     25  C   LIG A   1      -7.504   4.634 125.354  0.00  0.00    +0.277 C 
ENDBRANCH   2  24
BRANCH   7  26
ATOM     26  O   LIG A   1      -9.699  -0.051 123.253  0.00  0.00    -0.506 OA
ATOM     27  H   LIG A   1     -10.634   0.072 123.495  0.00  0.00    +0.292 HD
ENDBRANCH   7  26
TORSDOF 4
ENDMDL
MODEL 4
REMARK VINA RESULT:      -7.4      2.780      8.224
REMARK  Name = NuBBE_2170
REMARK  8 active torsions:
REMARK  status: ('A' for Active; 'I' for Inactive)
REMARK    1  A    between atoms: C_1  and  O_2
REMARK    2  A    between atoms: O_2  and  C_3
REMARK    3  A    between atoms: C_4  and  O_5
REMARK    4  A    between atoms: O_5  and  C_6
REMARK    5  A    between atoms: C_11  and  O_12
REMARK    6  A    between atoms: C_13  and  C_14
REMARK    7  A    between atoms: C_15  and  C_16
REMARK    8  A    between atoms: C_17  and  C_18
REMARK                            x       y       z     vdW  Elec       q    Type
REMARK                         _______ _______ _______ _____ _____    ______ ____
ROOT
ATOM      1  C   LIG A   1      -6.237   2.104 125.129  0.00  0.00    +0.162 A 
ATOM      2  C   LIG A   1      -6.899   2.276 123.921  0.00  0.00    +0.162 A 
ATOM      3  C   LIG A   1      -7.675   1.224 123.435  0.00  0.00    +0.061 A 
ATOM      4  C   LIG A   1      -6.372   0.890 125.827  0.00  0.00    +0.058 A 
ATOM      5  C   LIG A   1      -7.208  -0.184 125.380  0.00  0.00    -0.003 A 
ATOM      6  C   LIG A   1      -7.855   0.020 124.149  0.00  0.00    +0.028 A 
ATOM      7  C   LIG A   1      -8.665  -0.990 123.595  0.00  0.00    +0.128 A 
ATOM      8  C   LIG A   1      -8.828  -2.231 124.206  0.00  0.00    -0.005 A 
ATOM      9  C   LIG A   1      -9.650  -3.289 123.516  0.00  0.00    +0.048 C 
ATOM     10  C   LIG A   1      -8.244  -2.444 125.481  0.00  0.00    -0.036 A 
ATOM     11  C   LIG A   1      -8.491  -3.782 126.152  0.00  0.00    +0.045 C 
ATOM     12  C   LIG A   1      -7.415  -1.434 126.094  0.00  0.00    -0.007 A 
ENDROOT
BRANCH  12  13
ATOM     13  C   LIG A   1      -6.769  -1.666 127.436  0.00  0.00    -0.013 A 
ATOM     14  C   LIG A   1      -5.475  -2.212 127.550  0.00  0.00    +0.058 A 
ATOM     15  C   LIG A   1      -4.924  -2.413 128.801  0.00  0.00    +0.167 A 
ATOM     16  C   LIG A   1      -5.565  -2.020 129.948  0.00  0.00    +0.166 A 
ATOM     17  O   LIG A   1      -4.831  -2.261 131.065  0.00  0.00    -0.453 OA
ATOM     18  C   LIG A   1      -3.675  -2.910 130.495  0.00  0.00    +0.466 C 
ATOM     19  O   LIG A   1      -3.720  -2.994 129.055  0.00  0.00    -0.453 OA
ATOM     20  C   LIG A   1      -6.817  -1.456 129.905  0.00  0.00    +0.050 A 
ATOM     21  C   LIG A   1      -7.433  -1.329 128.651  0.00  0.00    +0.012 A 
ENDBRANCH  12  13
BRANCH   1  23
ATOM     22  C   LIG A   1      -4.293   2.860 126.264  0.00  0.00    +0.277 C 
ATOM     23  O   LIG A   1      -5.512   3.172 125.602  0.00  0.00    -0.491 OA
ENDBRANCH   1  23
BRANCH   2  24
ATOM     24  O   LIG A   1      -6.723   3.459 123.244  0.00  0.00    -0.491 OA
ATOM     25  C   LIG A   1      -6.402   3.370 121.860  0.00  0.00    +0.277 C 
ENDBRANCH   2  24
BRANCH   7  26
ATOM     26  O   LIG A   1      -9.344  -0.779 122.418  0.00  0.00    -0.506 OA
ATOM     27  H   LIG A   1      -8.720  -0.359 121.800  0.00  0.00    +0.292 HD
ENDBRANCH   7  26
TORSDOF 4
ENDMDL
MODEL 5
REMARK VINA RESULT:      -7.2      3.653      9.384
REMARK  Name = NuBBE_2170
REMARK  8 active torsions:
REMARK  status: ('A' for Active; 'I' for Inactive)
REMARK    1  A    between atoms: C_1  and  O_2
REMARK    2  A    between atoms: O_2  and  C_3
REMARK    3  A    between atoms: C_4  and  O_5
REMARK    4  A    between atoms: O_5  and  C_6
REMARK    5  A    between atoms: C_11  and  O_12
REMARK    6  A    between atoms: C_13  and  C_14
REMARK    7  A    between atoms: C_15  and  C_16
REMARK    8  A    between atoms: C_17  and  C_18
REMARK                            x       y       z     vdW  Elec       q    Type
REMARK                         _______ _______ _______ _____ _____    ______ ____
ROOT
ATOM      1  C   LIG A   1      -5.158   1.096 127.828  0.00  0.00    +0.162 A 
ATOM      2  C   LIG A   1      -5.479   1.470 126.530  0.00  0.00    +0.162 A 
ATOM      3  C   LIG A   1      -6.371   0.674 125.812  0.00  0.00    +0.061 A 
ATOM      4  C   LIG A   1      -5.740  -0.060 128.380  0.00  0.00    +0.058 A 
ATOM      5  C   LIG A   1      -6.702  -0.863 127.686  0.00  0.00    -0.003 A 
ATOM      6  C   LIG A   1      -6.995  -0.462 126.372  0.00  0.00    +0.028 A 
ATOM      7  C   LIG A   1      -7.894  -1.206 125.584  0.00  0.00    +0.128 A 
ATOM      8  C   LIG A   1      -8.490  -2.378 126.044  0.00  0.00    -0.005 A 
ATOM      9  C   LIG A   1      -9.382  -3.164 125.117  0.00  0.00    +0.048 C 
ATOM     10  C   LIG A   1      -8.267  -2.774 127.388  0.00  0.00    -0.036 A 
ATOM     11  C   LIG A   1      -8.980  -4.019 127.881  0.00  0.00    +0.045 C 
ATOM     12  C   LIG A   1      -7.363  -2.035 128.237  0.00  0.00    -0.007 A 
ENDROOT
BRANCH  12  13
ATOM     13  C   LIG A   1      -7.102  -2.466 129.657  0.00  0.00    -0.013 A 
ATOM     14  C   LIG A   1      -7.775  -1.875 130.745  0.00  0.00    +0.058 A 
ATOM     15  C   LIG A   1      -7.500  -2.298 132.032  0.00  0.00    +0.167 A 
ATOM     16  C   LIG A   1      -6.645  -3.340 132.287  0.00  0.00    +0.166 A 
ATOM     17  O   LIG A   1      -6.554  -3.629 133.611  0.00  0.00    -0.453 OA
ATOM     18  C   LIG A   1      -7.405  -2.606 134.170  0.00  0.00    +0.466 C 
ATOM     19  O   LIG A   1      -8.023  -1.767 133.171  0.00  0.00    -0.453 OA
ATOM     20  C   LIG A   1      -5.978  -3.977 131.269  0.00  0.00    +0.050 A 
ATOM     21  C   LIG A   1      -6.172  -3.502 129.963  0.00  0.00    +0.012 A 
ENDBRANCH  12  13
BRANCH   1  23
ATOM     22  C   LIG A   1      -4.150   1.638 129.909  0.00  0.00    +0.277 C 
ATOM     23  O   LIG A   1      -4.308   1.922 128.524  0.00  0.00    -0.491 OA
ENDBRANCH   1  23
BRANCH   2  24
ATOM     24  O   LIG A   1      -4.871   2.585 126.003  0.00  0.00    -0.491 OA
ATOM     25  C   LIG A   1      -5.586   3.295 124.997  0.00  0.00    +0.277 C 
ENDBRANCH   2  24
BRANCH   7  26
ATOM     26  O   LIG A   1      -8.228  -0.792 124.317  0.00  0.00    -0.506 OA
ATOM     27  H   LIG A   1      -7.569  -0.126 124.052  0.00  0.00    +0.292 HD
ENDBRANCH   7  26
TORSDOF 4
ENDMDL
MODEL 6
REMARK VINA RESULT:      -7.0      2.886      5.903
REMARK  Name = NuBBE_2170
REMARK  8 active torsions:
REMARK  status: ('A' for Active; 'I' for Inactive)
REMARK    1  A    between atoms: C_1  and  O_2
REMARK    2  A    between atoms: O_2  and  C_3
REMARK    3  A    between atoms: C_4  and  O_5
REMARK    4  A    between atoms: O_5  and  C_6
REMARK    5  A    between atoms: C_11  and  O_12
REMARK    6  A    between atoms: C_13  and  C_14
REMARK    7  A    between atoms: C_15  and  C_16
REMARK    8  A    between atoms: C_17  and  C_18
REMARK                            x       y       z     vdW  Elec       q    Type
REMARK                         _______ _______ _______ _____ _____    ______ ____
ROOT
ATOM      1  C   LIG A   1      -6.931   1.779 129.601  0.00  0.00    +0.162 A 
ATOM      2  C   LIG A   1      -6.723   0.841 130.604  0.00  0.00    +0.162 A 
ATOM      3  C   LIG A   1      -7.054  -0.489 130.346  0.00  0.00    +0.061 A 
ATOM      4  C   LIG A   1      -7.456   1.365 128.363  0.00  0.00    +0.058 A 
ATOM      5  C   LIG A   1      -7.750  -0.002 128.052  0.00  0.00    -0.003 A 
ATOM      6  C   LIG A   1      -7.538  -0.922 129.093  0.00  0.00    +0.028 A 
ATOM      7  C   LIG A   1      -7.837  -2.286 128.909  0.00  0.00    +0.128 A 
ATOM      8  C   LIG A   1      -8.388  -2.773 127.725  0.00  0.00    -0.005 A 
ATOM      9  C   LIG A   1      -8.753  -4.232 127.629  0.00  0.00    +0.048 C 
ATOM     10  C   LIG A   1      -8.551  -1.882 126.633  0.00  0.00    -0.036 A 
ATOM     11  C   LIG A   1      -9.093  -2.453 125.337  0.00  0.00    +0.045 C 
ATOM     12  C   LIG A   1      -8.247  -0.478 126.771  0.00  0.00    -0.007 A 
ENDROOT
BRANCH  12  13
ATOM     13  C   LIG A   1      -8.444   0.478 125.622  0.00  0.00    -0.013 A 
ATOM     14  C   LIG A   1      -7.359   0.935 124.847  0.00  0.00    +0.058 A 
ATOM     15  C   LIG A   1      -7.586   1.816 123.806  0.00  0.00    +0.167 A 
ATOM     16  C   LIG A   1      -8.850   2.203 123.444  0.00  0.00    +0.166 A 
ATOM     17  O   LIG A   1      -8.856   3.029 122.366  0.00  0.00    -0.453 OA
ATOM     18  C   LIG A   1      -7.439   3.169 122.126  0.00  0.00    +0.466 C 
ATOM     19  O   LIG A   1      -6.627   2.388 123.027  0.00  0.00    -0.453 OA
ATOM     20  C   LIG A   1      -9.953   1.771 124.141  0.00  0.00    +0.050 A 
ATOM     21  C   LIG A   1      -9.738   0.951 125.259  0.00  0.00    +0.012 A 
ENDBRANCH  12  13
BRANCH   1  23
ATOM     22  C   LIG A   1      -6.876   4.040 128.876  0.00  0.00    +0.277 C 
ATOM     23  O   LIG A   1      -6.558   3.074 129.871  0.00  0.00    -0.491 OA
ENDBRANCH   1  23
BRANCH   2  24
ATOM     24  O   LIG A   1      -6.240   1.277 131.815  0.00  0.00    -0.491 OA
ATOM     25  C   LIG A   1      -6.865   0.759 132.984  0.00  0.00    +0.277 C 
ENDBRANCH   2  24
BRANCH   7  26
ATOM     26  O   LIG A   1      -7.583  -3.201 129.902  0.00  0.00    -0.506 OA
ATOM     27  H   LIG A   1      -7.368  -2.697 130.706  0.00  0.00    +0.292 HD
ENDBRANCH   7  26
TORSDOF 4
ENDMDL
MODEL 7
REMARK VINA RESULT:      -6.9      3.561      6.719
REMARK  Name = NuBBE_2170
REMARK  8 active torsions:
REMARK  status: ('A' for Active; 'I' for Inactive)
REMARK    1  A    between atoms: C_1  and  O_2
REMARK    2  A    between atoms: O_2  and  C_3
REMARK    3  A    between atoms: C_4  and  O_5
REMARK    4  A    between atoms: O_5  and  C_6
REMARK    5  A    between atoms: C_11  and  O_12
REMARK    6  A    between atoms: C_13  and  C_14
REMARK    7  A    between atoms: C_15  and  C_16
REMARK    8  A    between atoms: C_17  and  C_18
REMARK                            x       y       z     vdW  Elec       q    Type
REMARK                         _______ _______ _______ _____ _____    ______ ____
ROOT
ATOM      1  C   LIG A   1      -8.046  -0.448 125.422  0.00  0.00    +0.162 A 
ATOM      2  C   LIG A   1      -8.070  -1.836 125.393  0.00  0.00    +0.162 A 
ATOM      3  C   LIG A   1      -7.948  -2.527 126.598  0.00  0.00    +0.061 A 
ATOM      4  C   LIG A   1      -7.908   0.216 126.654  0.00  0.00    +0.058 A 
ATOM      5  C   LIG A   1      -7.839  -0.466 127.911  0.00  0.00    -0.003 A 
ATOM      6  C   LIG A   1      -7.855  -1.870 127.844  0.00  0.00    +0.028 A 
ATOM      7  C   LIG A   1      -7.746  -2.641 129.018  0.00  0.00    +0.128 A 
ATOM      8  C   LIG A   1      -7.577  -2.062 130.273  0.00  0.00    -0.005 A 
ATOM      9  C   LIG A   1      -7.391  -2.952 131.475  0.00  0.00    +0.048 C 
ATOM     10  C   LIG A   1      -7.624  -0.648 130.383  0.00  0.00    -0.036 A 
ATOM     11  C   LIG A   1      -7.501  -0.047 131.771  0.00  0.00    +0.045 C 
ATOM     12  C   LIG A   1      -7.745   0.183 129.209  0.00  0.00    -0.007 A 
ENDROOT
BRANCH  12  13
ATOM     13  C   LIG A   1      -7.768   1.686 129.318  0.00  0.00    -0.013 A 
ATOM     14  C   LIG A   1      -8.976   2.399 129.460  0.00  0.00    +0.058 A 
ATOM     15  C   LIG A   1      -8.951   3.777 129.551  0.00  0.00    +0.167 A 
ATOM     16  C   LIG A   1      -7.775   4.481 129.590  0.00  0.00    +0.166 A 
ATOM     17  O   LIG A   1      -7.970   5.817 129.733  0.00  0.00    -0.453 OA
ATOM     18  C   LIG A   1      -9.411   5.883 129.717  0.00  0.00    +0.466 C 
ATOM     19  O   LIG A   1     -10.042   4.589 129.619  0.00  0.00    -0.453 OA
ATOM     20  C   LIG A   1      -6.562   3.844 129.484  0.00  0.00    +0.050 A 
ATOM     21  C   LIG A   1      -6.568   2.454 129.297  0.00  0.00    +0.012 A 
ENDBRANCH  12  13
BRANCH   1  23
ATOM     22  C   LIG A   1      -8.664   1.550 124.297  0.00  0.00    +0.277 C 
ATOM     23  O   LIG A   1      -8.210   0.204 124.223  0.00  0.00    -0.491 OA
ENDBRANCH   1  23
BRANCH   2  24
ATOM     24  O   LIG A   1      -8.173  -2.461 124.172  0.00  0.00    -0.491 OA
ATOM     25  C   LIG A   1      -9.316  -3.284 123.963  0.00  0.00    +0.277 C 
ENDBRANCH   2  24
BRANCH   7  26
ATOM     26  O   LIG A   1      -7.816  -4.012 128.967  0.00  0.00    -0.506 OA
ATOM     27  H   LIG A   1      -6.941  -4.331 128.682  0.00  0.00    +0.292 HD
ENDBRANCH   7  26
TORSDOF 4
ENDMDL
MODEL 8
REMARK VINA RESULT:      -6.9      2.834      8.445
REMARK  Name = NuBBE_2170
REMARK  8 active torsions:
REMARK  status: ('A' for Active; 'I' for Inactive)
REMARK    1  A    between atoms: C_1  and  O_2
REMARK    2  A    between atoms: O_2  and  C_3
REMARK    3  A    between atoms: C_4  and  O_5
REMARK    4  A    between atoms: O_5  and  C_6
REMARK    5  A    between atoms: C_11  and  O_12
REMARK    6  A    between atoms: C_13  and  C_14
REMARK    7  A    between atoms: C_15  and  C_16
REMARK    8  A    between atoms: C_17  and  C_18
REMARK                            x       y       z     vdW  Elec       q    Type
REMARK                         _______ _______ _______ _____ _____    ______ ____
ROOT
ATOM      1  C   LIG A   1      -6.343   2.112 126.243  0.00  0.00    +0.162 A 
ATOM      2  C   LIG A   1      -6.978   2.532 125.082  0.00  0.00    +0.162 A 
ATOM      3  C   LIG A   1      -7.674   1.587 124.329  0.00  0.00    +0.061 A 
ATOM      4  C   LIG A   1      -6.425   0.761 126.628  0.00  0.00    +0.058 A 
ATOM      5  C   LIG A   1      -7.180  -0.217 125.904  0.00  0.00    -0.003 A 
ATOM      6  C   LIG A   1      -7.801   0.239 124.729  0.00  0.00    +0.028 A 
ATOM      7  C   LIG A   1      -8.531  -0.650 123.918  0.00  0.00    +0.128 A 
ATOM      8  C   LIG A   1      -8.636  -2.008 124.211  0.00  0.00    -0.005 A 
ATOM      9  C   LIG A   1      -9.371  -2.912 123.256  0.00  0.00    +0.048 C 
ATOM     10  C   LIG A   1      -8.078  -2.487 125.424  0.00  0.00    -0.036 A 
ATOM     11  C   LIG A   1      -8.263  -3.958 125.749  0.00  0.00    +0.045 C 
ATOM     12  C   LIG A   1      -7.330  -1.610 126.293  0.00  0.00    -0.007 A 
ENDROOT
BRANCH  12  13
ATOM     13  C   LIG A   1      -6.712  -2.121 127.570  0.00  0.00    -0.013 A 
ATOM     14  C   LIG A   1      -7.485  -2.344 128.728  0.00  0.00    +0.058 A 
ATOM     15  C   LIG A   1      -6.875  -2.807 129.878  0.00  0.00    +0.167 A 
ATOM     16  C   LIG A   1      -5.546  -3.140 129.912  0.00  0.00    +0.166 A 
ATOM     17  O   LIG A   1      -5.158  -3.623 131.121  0.00  0.00    -0.453 OA
ATOM     18  C   LIG A   1      -6.387  -3.499 131.868  0.00  0.00    +0.466 C 
ATOM     19  O   LIG A   1      -7.487  -2.997 131.080  0.00  0.00    -0.453 OA
ATOM     20  C   LIG A   1      -4.743  -2.973 128.810  0.00  0.00    +0.050 A 
ATOM     21  C   LIG A   1      -5.321  -2.415 127.659  0.00  0.00    +0.012 A 
ENDBRANCH  12  13
BRANCH   1  23
ATOM     22  C   LIG A   1      -4.508   2.664 127.646  0.00  0.00    +0.277 C 
ATOM     23  O   LIG A   1      -5.699   3.073 126.985  0.00  0.00    -0.491 OA
ENDBRANCH   1  23
BRANCH   2  24
ATOM     24  O   LIG A   1      -6.855   3.850 124.712  0.00  0.00    -0.491 OA
ATOM     25  C   LIG A   1      -6.012   4.132 123.600  0.00  0.00    +0.277 C 
ENDBRANCH   2  24
BRANCH   7  26
ATOM     26  O   LIG A   1      -9.186  -0.201 122.796  0.00  0.00    -0.506 OA
ATOM     27  H   LIG A   1      -9.809   0.489 123.086  0.00  0.00    +0.292 HD
ENDBRANCH   7  26
TORSDOF 4
ENDMDL
MODEL 9
REMARK VINA RESULT:      -6.9      7.784     10.624
REMARK  Name = NuBBE_2170
REMARK  8 active torsions:
REMARK  status: ('A' for Active; 'I' for Inactive)
REMARK    1  A    between atoms: C_1  and  O_2
REMARK    2  A    between atoms: O_2  and  C_3
REMARK    3  A    between atoms: C_4  and  O_5
REMARK    4  A    between atoms: O_5  and  C_6
REMARK    5  A    between atoms: C_11  and  O_12
REMARK    6  A    between atoms: C_13  and  C_14
REMARK    7  A    between atoms: C_15  and  C_16
REMARK    8  A    between atoms: C_17  and  C_18
REMARK                            x       y       z     vdW  Elec       q    Type
REMARK                         _______ _______ _______ _____ _____    ______ ____
ROOT
ATOM      1  C   LIG A   1      -2.950   6.610 131.168  0.00  0.00    +0.162 A 
ATOM      2  C   LIG A   1      -2.070   6.643 132.241  0.00  0.00    +0.162 A 
ATOM      3  C   LIG A   1      -2.579   6.433 133.522  0.00  0.00    +0.061 A 
ATOM      4  C   LIG A   1      -4.315   6.362 131.399  0.00  0.00    +0.058 A 
ATOM      5  C   LIG A   1      -4.855   6.086 132.697  0.00  0.00    -0.003 A 
ATOM      6  C   LIG A   1      -3.938   6.138 133.761  0.00  0.00    +0.028 A 
ATOM      7  C   LIG A   1      -4.370   5.927 135.084  0.00  0.00    +0.128 A 
ATOM      8  C   LIG A   1      -5.708   5.704 135.402  0.00  0.00    -0.005 A 
ATOM      9  C   LIG A   1      -6.107   5.563 136.848  0.00  0.00    +0.048 C 
ATOM     10  C   LIG A   1      -6.648   5.580 134.346  0.00  0.00    -0.036 A 
ATOM     11  C   LIG A   1      -8.086   5.274 134.719  0.00  0.00    +0.045 C 
ATOM     12  C   LIG A   1      -6.249   5.777 132.973  0.00  0.00    -0.007 A 
ENDROOT
BRANCH  12  13
ATOM     13  C   LIG A   1      -7.248   5.672 131.850  0.00  0.00    -0.013 A 
ATOM     14  C   LIG A   1      -7.887   6.812 131.320  0.00  0.00    +0.058 A 
ATOM     15  C   LIG A   1      -8.801   6.669 130.294  0.00  0.00    +0.167 A 
ATOM     16  C   LIG A   1      -9.053   5.455 129.709  0.00  0.00    +0.166 A 
ATOM     17  O   LIG A   1      -9.942   5.541 128.687  0.00  0.00    -0.453 OA
ATOM     18  C   LIG A   1     -10.272   6.946 128.734  0.00  0.00    +0.466 C 
ATOM     19  O   LIG A   1      -9.538   7.672 129.742  0.00  0.00    -0.453 OA
ATOM     20  C   LIG A   1      -8.442   4.309 130.159  0.00  0.00    +0.050 A 
ATOM     21  C   LIG A   1      -7.581   4.418 131.262  0.00  0.00    +0.012 A 
ENDBRANCH  12  13
BRANCH   1  23
ATOM     22  C   LIG A   1      -3.315   6.655 128.822  0.00  0.00    +0.277 C 
ATOM     23  O   LIG A   1      -2.413   6.780 129.914  0.00  0.00    -0.491 OA
ENDBRANCH   1  23
BRANCH   2  24
ATOM     24  O   LIG A   1      -0.746   6.920 131.991  0.00  0.00    -0.491 OA
ATOM     25  C   LIG A   1      -0.024   7.596 133.014  0.00  0.00    +0.277 C 
ENDBRANCH   2  24
BRANCH   7  26
ATOM     26  O   LIG A   1      -3.472   5.922 136.125  0.00  0.00    -0.506 OA
ATOM     27  H   LIG A   1      -3.060   6.803 136.150  0.00  0.00    +0.292 HD
ENDBRANCH   7  26
TORSDOF 4
ENDMDL
