MODEL 1
REMARK VINA RESULT:      -8.1      0.000      0.000
REMARK  Name = NuBBE_2341
REMARK  8 active torsions:
REMARK  status: ('A' for Active; 'I' for Inactive)
REMARK    1  A    between atoms: C_1  and  O_2
REMARK    2  A    between atoms: O_2  and  C_3
REMARK    3  A    between atoms: C_10  and  C_11
REMARK    4  A    between atoms: C_16  and  C_18
REMARK    5  A    between atoms: C_20  and  C_21
REMARK    6  A    between atoms: C_20  and  O_24
REMARK    7  A    between atoms: C_21  and  C_22
REMARK    8  A    between atoms: O_24  and  C_25
REMARK                            x       y       z     vdW  Elec       q    Type
REMARK                         _______ _______ _______ _____ _____    ______ ____
ROOT
ATOM      1  C   LIG A   1      -8.722   2.432 124.147  0.00  0.00    +0.211 C 
ATOM      2  O   LIG A   1      -9.637   1.461 123.567  0.00  0.00    -0.483 OA
ATOM      3  C   LIG A   1      -9.023   0.236 123.735  0.00  0.00    +0.128 C 
ATOM      4  C   LIG A   1      -7.948   0.304 124.675  0.00  0.00    +0.000 C 
ATOM      5  C   LIG A   1      -7.966   1.674 125.259  0.00  0.00    +0.065 C 
ATOM      6  C   LIG A   1      -8.737   1.688 126.582  0.00  0.00    +0.016 C 
ATOM      7  C   LIG A   1      -7.091  -0.705 124.863  0.00  0.00    +0.023 C 
ATOM      8  C   LIG A   1      -7.253  -2.029 124.140  0.00  0.00    +0.153 C 
ATOM      9  C   LIG A   1      -9.375  -0.870 123.078  0.00  0.00    +0.095 C 
ATOM     10  C   LIG A   1      -8.587  -2.109 123.306  0.00  0.00    +0.195 C 
ATOM     11  O   LIG A   1      -9.009  -3.158 122.812  0.00  0.00    -0.289 OA
ENDROOT
BRANCH   1  19
ATOM     12  C   LIG A   1      -7.399   3.821 120.773  0.00  0.00    +0.166 A 
ATOM     13  C   LIG A   1      -6.147   4.240 121.177  0.00  0.00    +0.207 A 
ATOM     14  O   LIG A   1      -5.183   4.833 120.418  0.00  0.00    -0.449 OA
ATOM     15  C   LIG A   1      -4.142   5.048 121.385  0.00  0.00    +0.467 C 
ATOM     16  O   LIG A   1      -4.476   4.564 122.698  0.00  0.00    -0.453 OA
ATOM     17  C   LIG A   1      -5.735   4.089 122.485  0.00  0.00    +0.170 A 
ATOM     18  C   LIG A   1      -6.533   3.514 123.454  0.00  0.00    +0.057 A 
ATOM     19  C   LIG A   1      -7.816   3.069 123.091  0.00  0.00    +0.000 A 
ATOM     20  C   LIG A   1      -8.235   3.251 121.750  0.00  0.00    +0.057 A 
BRANCH  12  22
ATOM     21  C   LIG A   1      -9.318   4.255 119.441  0.00  0.00    +0.277 C 
ATOM     22  O   LIG A   1      -7.944   3.890 119.523  0.00  0.00    -0.491 OA
ENDBRANCH  12  22
ENDBRANCH   1  19
BRANCH   8  23
ATOM     23  O   LIG A   1      -7.138  -3.106 125.082  0.00  0.00    -0.364 OA
ATOM     24  C   LIG A   1      -8.000  -3.021 126.209  0.00  0.00    +0.195 C 
ENDBRANCH   8  23
BRANCH   8  25
ATOM     25  C   LIG A   1      -6.107  -2.204 123.098  0.00  0.00    +0.074 C 
BRANCH  25  26
ATOM     26  C   LIG A   1      -4.841  -2.825 123.647  0.00  0.00    -0.031 C 
ATOM     27  C   LIG A   1      -4.498  -4.110 123.493  0.00  0.00    +0.004 C 
ENDBRANCH  25  26
ENDBRANCH   8  25
TORSDOF 5
ENDMDL
MODEL 2
REMARK VINA RESULT:      -7.9      1.037      2.370
REMARK  Name = NuBBE_2341
REMARK  8 active torsions:
REMARK  status: ('A' for Active; 'I' for Inactive)
REMARK    1  A    between atoms: C_1  and  O_2
REMARK    2  A    between atoms: O_2  and  C_3
REMARK    3  A    between atoms: C_10  and  C_11
REMARK    4  A    between atoms: C_16  and  C_18
REMARK    5  A    between atoms: C_20  and  C_21
REMARK    6  A    between atoms: C_20  and  O_24
REMARK    7  A    between atoms: C_21  and  C_22
REMARK    8  A    between atoms: O_24  and  C_25
REMARK                            x       y       z     vdW  Elec       q    Type
REMARK                         _______ _______ _______ _____ _____    ______ ____
ROOT
ATOM      1  C   LIG A   1      -8.774   2.116 124.658  0.00  0.00    +0.211 C 
ATOM      2  O   LIG A   1      -9.619   1.278 123.823  0.00  0.00    -0.483 OA
ATOM      3  C   LIG A   1      -9.074   0.012 123.908  0.00  0.00    +0.128 C 
ATOM      4  C   LIG A   1      -8.152  -0.098 124.994  0.00  0.00    +0.000 C 
ATOM      5  C   LIG A   1      -8.216   1.181 125.753  0.00  0.00    +0.065 C 
ATOM      6  C   LIG A   1      -9.177   1.058 126.939  0.00  0.00    +0.016 C 
ATOM      7  C   LIG A   1      -7.363  -1.165 125.163  0.00  0.00    +0.023 C 
ATOM      8  C   LIG A   1      -7.452  -2.372 124.248  0.00  0.00    +0.153 C 
ATOM      9  C   LIG A   1      -9.356  -0.978 123.060  0.00  0.00    +0.095 C 
ATOM     10  C   LIG A   1      -8.648  -2.275 123.227  0.00  0.00    +0.195 C 
ATOM     11  O   LIG A   1      -9.021  -3.226 122.536  0.00  0.00    -0.289 OA
ENDROOT
BRANCH   1  19
ATOM     12  C   LIG A   1      -5.529   4.015 123.693  0.00  0.00    +0.166 A 
ATOM     13  C   LIG A   1      -5.749   4.161 122.338  0.00  0.00    +0.207 A 
ATOM     14  O   LIG A   1      -4.937   4.764 121.424  0.00  0.00    -0.449 OA
ATOM     15  C   LIG A   1      -5.681   4.582 120.208  0.00  0.00    +0.467 C 
ATOM     16  O   LIG A   1      -6.934   3.902 120.404  0.00  0.00    -0.453 OA
ATOM     17  C   LIG A   1      -6.893   3.669 121.746  0.00  0.00    +0.170 A 
ATOM     18  C   LIG A   1      -7.877   3.015 122.460  0.00  0.00    +0.057 A 
ATOM     19  C   LIG A   1      -7.701   2.842 123.843  0.00  0.00    +0.000 A 
ATOM     20  C   LIG A   1      -6.510   3.332 124.435  0.00  0.00    +0.057 A 
BRANCH  12  22
ATOM     21  C   LIG A   1      -4.315   3.915 125.732  0.00  0.00    +0.277 C 
ATOM     22  O   LIG A   1      -4.461   4.452 124.422  0.00  0.00    -0.491 OA
ENDBRANCH  12  22
ENDBRANCH   1  19
BRANCH   8  23
ATOM     23  O   LIG A   1      -7.513  -3.568 125.039  0.00  0.00    -0.364 OA
ATOM     24  C   LIG A   1      -8.514  -3.580 126.048  0.00  0.00    +0.195 C 
ENDBRANCH   8  23
BRANCH   8  25
ATOM     25  C   LIG A   1      -6.169  -2.465 123.370  0.00  0.00    +0.074 C 
BRANCH  25  26
ATOM     26  C   LIG A   1      -5.006  -3.181 124.021  0.00  0.00    -0.031 C 
ATOM     27  C   LIG A   1      -4.407  -4.267 123.517  0.00  0.00    +0.004 C 
ENDBRANCH  25  26
ENDBRANCH   8  25
TORSDOF 5
ENDMDL
MODEL 3
REMARK VINA RESULT:      -7.7      2.121      2.851
REMARK  Name = NuBBE_2341
REMARK  8 active torsions:
REMARK  status: ('A' for Active; 'I' for Inactive)
REMARK    1  A    between atoms: C_1  and  O_2
REMARK    2  A    between atoms: O_2  and  C_3
REMARK    3  A    between atoms: C_10  and  C_11
REMARK    4  A    between atoms: C_16  and  C_18
REMARK    5  A    between atoms: C_20  and  C_21
REMARK    6  A    between atoms: C_20  and  O_24
REMARK    7  A    between atoms: C_21  and  C_22
REMARK    8  A    between atoms: O_24  and  C_25
REMARK                            x       y       z     vdW  Elec       q    Type
REMARK                         _______ _______ _______ _____ _____    ______ ____
ROOT
ATOM      1  C   LIG A   1      -6.204   3.158 125.843  0.00  0.00    +0.211 C 
ATOM      2  O   LIG A   1      -7.330   2.548 126.532  0.00  0.00    -0.483 OA
ATOM      3  C   LIG A   1      -7.043   1.198 126.577  0.00  0.00    +0.128 C 
ATOM      4  C   LIG A   1      -5.672   0.936 126.273  0.00  0.00    +0.000 C 
ATOM      5  C   LIG A   1      -4.990   2.255 126.155  0.00  0.00    +0.065 C 
ATOM      6  C   LIG A   1      -4.322   2.639 127.478  0.00  0.00    +0.016 C 
ATOM      7  C   LIG A   1      -5.202  -0.300 126.073  0.00  0.00    +0.023 C 
ATOM      8  C   LIG A   1      -6.088  -1.522 126.232  0.00  0.00    +0.153 C 
ATOM      9  C   LIG A   1      -7.946   0.254 126.844  0.00  0.00    +0.095 C 
ATOM     10  C   LIG A   1      -7.517  -1.169 126.795  0.00  0.00    +0.195 C 
ATOM     11  O   LIG A   1      -8.315  -2.023 127.188  0.00  0.00    -0.289 OA
ENDROOT
BRANCH   1  19
ATOM     12  C   LIG A   1      -7.927   3.057 122.367  0.00  0.00    +0.166 A 
ATOM     13  C   LIG A   1      -6.966   3.709 121.620  0.00  0.00    +0.207 A 
ATOM     14  O   LIG A   1      -6.999   3.992 120.287  0.00  0.00    -0.449 OA
ATOM     15  C   LIG A   1      -5.754   4.687 120.106  0.00  0.00    +0.467 C 
ATOM     16  O   LIG A   1      -4.980   4.791 121.314  0.00  0.00    -0.453 OA
ATOM     17  C   LIG A   1      -5.805   4.171 122.203  0.00  0.00    +0.170 A 
ATOM     18  C   LIG A   1      -5.533   4.008 123.547  0.00  0.00    +0.057 A 
ATOM     19  C   LIG A   1      -6.480   3.348 124.349  0.00  0.00    +0.000 A 
ATOM     20  C   LIG A   1      -7.678   2.899 123.742  0.00  0.00    +0.057 A 
BRANCH  12  22
ATOM     21  C   LIG A   1      -9.683   1.498 122.727  0.00  0.00    +0.277 C 
ATOM     22  O   LIG A   1      -9.114   2.536 121.936  0.00  0.00    -0.491 OA
ENDBRANCH  12  22
ENDBRANCH   1  19
BRANCH   8  23
ATOM     23  O   LIG A   1      -5.415  -2.499 127.040  0.00  0.00    -0.364 OA
ATOM     24  C   LIG A   1      -5.020  -2.053 128.331  0.00  0.00    +0.195 C 
ENDBRANCH   8  23
BRANCH   8  25
ATOM     25  C   LIG A   1      -6.345  -2.172 124.840  0.00  0.00    +0.074 C 
BRANCH  25  26
ATOM     26  C   LIG A   1      -5.387  -3.284 124.473  0.00  0.00    -0.031 C 
ATOM     27  C   LIG A   1      -4.659  -3.318 123.350  0.00  0.00    +0.004 C 
ENDBRANCH  25  26
ENDBRANCH   8  25
TORSDOF 5
ENDMDL
MODEL 4
REMARK VINA RESULT:      -7.5      2.563      4.386
REMARK  Name = NuBBE_2341
REMARK  8 active torsions:
REMARK  status: ('A' for Active; 'I' for Inactive)
REMARK    1  A    between atoms: C_1  and  O_2
REMARK    2  A    between atoms: O_2  and  C_3
REMARK    3  A    between atoms: C_10  and  C_11
REMARK    4  A    between atoms: C_16  and  C_18
REMARK    5  A    between atoms: C_20  and  C_21
REMARK    6  A    between atoms: C_20  and  O_24
REMARK    7  A    between atoms: C_21  and  C_22
REMARK    8  A    between atoms: O_24  and  C_25
REMARK                            x       y       z     vdW  Elec       q    Type
REMARK                         _______ _______ _______ _____ _____    ______ ____
ROOT
ATOM      1  C   LIG A   1      -7.746   2.184 123.454  0.00  0.00    +0.211 C 
ATOM      2  O   LIG A   1      -6.831   1.170 122.954  0.00  0.00    -0.483 OA
ATOM      3  C   LIG A   1      -7.209  -0.001 123.580  0.00  0.00    +0.128 C 
ATOM      4  C   LIG A   1      -8.501   0.109 124.180  0.00  0.00    +0.000 C 
ATOM      5  C   LIG A   1      -9.055   1.434 123.785  0.00  0.00    +0.065 C 
ATOM      6  C   LIG A   1      -9.959   1.298 122.557  0.00  0.00    +0.016 C 
ATOM      7  C   LIG A   1      -8.998  -0.827 124.996  0.00  0.00    +0.023 C 
ATOM      8  C   LIG A   1      -8.246  -2.115 125.278  0.00  0.00    +0.153 C 
ATOM      9  C   LIG A   1      -6.446  -1.093 123.638  0.00  0.00    +0.095 C 
ATOM     10  C   LIG A   1      -6.948  -2.267 124.400  0.00  0.00    +0.195 C 
ATOM     11  O   LIG A   1      -6.307  -3.318 124.324  0.00  0.00    -0.289 OA
ENDROOT
BRANCH   1  19
ATOM     12  C   LIG A   1      -7.421   4.236 126.732  0.00  0.00    +0.166 A 
ATOM     13  C   LIG A   1      -6.049   4.382 126.772  0.00  0.00    +0.207 A 
ATOM     14  O   LIG A   1      -5.308   5.027 127.716  0.00  0.00    -0.449 OA
ATOM     15  C   LIG A   1      -3.971   4.820 127.230  0.00  0.00    +0.467 C 
ATOM     16  O   LIG A   1      -3.924   4.082 125.996  0.00  0.00    -0.453 OA
ATOM     17  C   LIG A   1      -5.248   3.842 125.787  0.00  0.00    +0.170 A 
ATOM     18  C   LIG A   1      -5.761   3.138 124.716  0.00  0.00    +0.057 A 
ATOM     19  C   LIG A   1      -7.153   2.964 124.630  0.00  0.00    +0.000 A 
ATOM     20  C   LIG A   1      -7.962   3.505 125.659  0.00  0.00    +0.057 A 
BRANCH  12  22
ATOM     21  C   LIG A   1      -8.352   4.132 128.916  0.00  0.00    +0.277 C 
ATOM     22  O   LIG A   1      -8.342   4.718 127.618  0.00  0.00    -0.491 OA
ENDBRANCH  12  22
ENDBRANCH   1  19
BRANCH   8  23
ATOM     23  O   LIG A   1      -9.136  -3.231 125.126  0.00  0.00    -0.364 OA
ATOM     24  C   LIG A   1      -9.584  -3.474 123.799  0.00  0.00    +0.195 C 
ENDBRANCH   8  23
BRANCH   8  25
ATOM     25  C   LIG A   1      -7.747  -2.122 126.754  0.00  0.00    +0.074 C 
BRANCH  25  26
ATOM     26  C   LIG A   1      -8.388  -3.170 127.636  0.00  0.00    -0.031 C 
ATOM     27  C   LIG A   1      -8.156  -3.303 128.948  0.00  0.00    +0.004 C 
ENDBRANCH  25  26
ENDBRANCH   8  25
TORSDOF 5
ENDMDL
MODEL 5
REMARK VINA RESULT:      -7.4      2.575      4.723
REMARK  Name = NuBBE_2341
REMARK  8 active torsions:
REMARK  status: ('A' for Active; 'I' for Inactive)
REMARK    1  A    between atoms: C_1  and  O_2
REMARK    2  A    between atoms: O_2  and  C_3
REMARK    3  A    between atoms: C_10  and  C_11
REMARK    4  A    between atoms: C_16  and  C_18
REMARK    5  A    between atoms: C_20  and  C_21
REMARK    6  A    between atoms: C_20  and  O_24
REMARK    7  A    between atoms: C_21  and  C_22
REMARK    8  A    between atoms: O_24  and  C_25
REMARK                            x       y       z     vdW  Elec       q    Type
REMARK                         _______ _______ _______ _____ _____    ______ ____
ROOT
ATOM      1  C   LIG A   1      -7.789   1.977 123.510  0.00  0.00    +0.211 C 
ATOM      2  O   LIG A   1      -6.817   1.041 122.968  0.00  0.00    -0.483 OA
ATOM      3  C   LIG A   1      -7.166  -0.190 123.489  0.00  0.00    +0.128 C 
ATOM      4  C   LIG A   1      -8.480  -0.177 124.050  0.00  0.00    +0.000 C 
ATOM      5  C   LIG A   1      -9.076   1.152 123.737  0.00  0.00    +0.065 C 
ATOM      6  C   LIG A   1      -9.933   1.076 122.471  0.00  0.00    +0.016 C 
ATOM      7  C   LIG A   1      -8.964  -1.192 124.774  0.00  0.00    +0.023 C 
ATOM      8  C   LIG A   1      -8.169  -2.467 124.984  0.00  0.00    +0.153 C 
ATOM      9  C   LIG A   1      -6.360  -1.252 123.491  0.00  0.00    +0.095 C 
ATOM     10  C   LIG A   1      -6.837  -2.500 124.143  0.00  0.00    +0.195 C 
ATOM     11  O   LIG A   1      -6.151  -3.516 124.010  0.00  0.00    -0.289 OA
ENDROOT
BRANCH   1  19
ATOM     12  C   LIG A   1      -5.449   3.803 126.011  0.00  0.00    +0.166 A 
ATOM     13  C   LIG A   1      -6.333   3.982 127.056  0.00  0.00    +0.207 A 
ATOM     14  O   LIG A   1      -6.092   4.585 128.255  0.00  0.00    -0.449 OA
ATOM     15  C   LIG A   1      -7.375   4.486 128.894  0.00  0.00    +0.467 C 
ATOM     16  O   LIG A   1      -8.359   3.809 128.092  0.00  0.00    -0.453 OA
ATOM     17  C   LIG A   1      -7.636   3.539 126.969  0.00  0.00    +0.170 A 
ATOM     18  C   LIG A   1      -8.129   2.894 125.852  0.00  0.00    +0.057 A 
ATOM     19  C   LIG A   1      -7.267   2.686 124.762  0.00  0.00    +0.000 A 
ATOM     20  C   LIG A   1      -5.937   3.166 124.855  0.00  0.00    +0.057 A 
BRANCH  12  22
ATOM     21  C   LIG A   1      -3.193   3.293 126.555  0.00  0.00    +0.277 C 
ATOM     22  O   LIG A   1      -4.136   4.172 125.949  0.00  0.00    -0.491 OA
ENDBRANCH  12  22
ENDBRANCH   1  19
BRANCH   8  23
ATOM     23  O   LIG A   1      -9.006  -3.602 124.716  0.00  0.00    -0.364 OA
ATOM     24  C   LIG A   1      -9.697  -3.568 123.474  0.00  0.00    +0.195 C 
ENDBRANCH   8  23
BRANCH   8  25
ATOM     25  C   LIG A   1      -7.718  -2.569 126.472  0.00  0.00    +0.074 C 
BRANCH  25  26
ATOM     26  C   LIG A   1      -8.676  -3.311 127.376  0.00  0.00    -0.031 C 
ATOM     27  C   LIG A   1      -8.480  -3.517 128.685  0.00  0.00    +0.004 C 
ENDBRANCH  25  26
ENDBRANCH   8  25
TORSDOF 5
ENDMDL
MODEL 6
REMARK VINA RESULT:      -7.2      2.693      6.705
REMARK  Name = NuBBE_2341
REMARK  8 active torsions:
REMARK  status: ('A' for Active; 'I' for Inactive)
REMARK    1  A    between atoms: C_1  and  O_2
REMARK    2  A    between atoms: O_2  and  C_3
REMARK    3  A    between atoms: C_10  and  C_11
REMARK    4  A    between atoms: C_16  and  C_18
REMARK    5  A    between atoms: C_20  and  C_21
REMARK    6  A    between atoms: C_20  and  O_24
REMARK    7  A    between atoms: C_21  and  C_22
REMARK    8  A    between atoms: O_24  and  C_25
REMARK                            x       y       z     vdW  Elec       q    Type
REMARK                         _______ _______ _______ _____ _____    ______ ____
ROOT
ATOM      1  C   LIG A   1      -7.844   2.039 123.261  0.00  0.00    +0.211 C 
ATOM      2  O   LIG A   1      -8.526   2.863 124.247  0.00  0.00    -0.483 OA
ATOM      3  C   LIG A   1      -7.531   3.322 125.088  0.00  0.00    +0.128 C 
ATOM      4  C   LIG A   1      -6.231   3.136 124.526  0.00  0.00    +0.000 C 
ATOM      5  C   LIG A   1      -6.423   2.632 123.137  0.00  0.00    +0.065 C 
ATOM      6  C   LIG A   1      -6.374   3.785 122.132  0.00  0.00    +0.016 C 
ATOM      7  C   LIG A   1      -5.108   3.330 125.227  0.00  0.00    +0.023 C 
ATOM      8  C   LIG A   1      -5.143   3.840 126.656  0.00  0.00    +0.153 C 
ATOM      9  C   LIG A   1      -7.759   3.849 126.291  0.00  0.00    +0.095 C 
ATOM     10  C   LIG A   1      -6.592   4.245 127.123  0.00  0.00    +0.195 C 
ATOM     11  O   LIG A   1      -6.813   4.866 128.165  0.00  0.00    -0.289 OA
ENDROOT
BRANCH   1  19
ATOM     12  C   LIG A   1      -6.942  -1.729 123.482  0.00  0.00    +0.166 A 
ATOM     13  C   LIG A   1      -7.951  -2.153 124.323  0.00  0.00    +0.207 A 
ATOM     14  O   LIG A   1      -8.173  -3.416 124.785  0.00  0.00    -0.449 OA
ATOM     15  C   LIG A   1      -9.329  -3.224 125.617  0.00  0.00    +0.467 C 
ATOM     16  O   LIG A   1      -9.803  -1.865 125.626  0.00  0.00    -0.453 OA
ATOM     17  C   LIG A   1      -8.891  -1.268 124.809  0.00  0.00    +0.170 A 
ATOM     18  C   LIG A   1      -8.884   0.074 124.486  0.00  0.00    +0.057 A 
ATOM     19  C   LIG A   1      -7.877   0.555 123.631  0.00  0.00    +0.000 A 
ATOM     20  C   LIG A   1      -6.905  -0.361 123.157  0.00  0.00    +0.057 A 
BRANCH  12  22
ATOM     21  C   LIG A   1      -4.927  -2.953 123.781  0.00  0.00    +0.277 C 
ATOM     22  O   LIG A   1      -5.952  -2.479 122.913  0.00  0.00    -0.491 OA
ENDBRANCH  12  22
ENDBRANCH   1  19
BRANCH   8  23
ATOM     23  O   LIG A   1      -4.207   4.918 126.801  0.00  0.00    -0.364 OA
ATOM     24  C   LIG A   1      -3.131   4.672 127.697  0.00  0.00    +0.195 C 
ENDBRANCH   8  23
BRANCH   8  25
ATOM     25  C   LIG A   1      -4.699   2.709 127.630  0.00  0.00    +0.074 C 
BRANCH  25  26
ATOM     26  C   LIG A   1      -4.955   1.304 127.131  0.00  0.00    -0.031 C 
ATOM     27  C   LIG A   1      -6.041   0.580 127.428  0.00  0.00    +0.004 C 
ENDBRANCH  25  26
ENDBRANCH   8  25
TORSDOF 5
ENDMDL
MODEL 7
REMARK VINA RESULT:      -7.0      3.491      8.020
REMARK  Name = NuBBE_2341
REMARK  8 active torsions:
REMARK  status: ('A' for Active; 'I' for Inactive)
REMARK    1  A    between atoms: C_1  and  O_2
REMARK    2  A    between atoms: O_2  and  C_3
REMARK    3  A    between atoms: C_10  and  C_11
REMARK    4  A    between atoms: C_16  and  C_18
REMARK    5  A    between atoms: C_20  and  C_21
REMARK    6  A    between atoms: C_20  and  O_24
REMARK    7  A    between atoms: C_21  and  C_22
REMARK    8  A    between atoms: O_24  and  C_25
REMARK                            x       y       z     vdW  Elec       q    Type
REMARK                         _______ _______ _______ _____ _____    ______ ____
ROOT
ATOM      1  C   LIG A   1      -7.849  -2.750 126.657  0.00  0.00    +0.211 C 
ATOM      2  O   LIG A   1      -9.025  -1.903 126.534  0.00  0.00    -0.483 OA
ATOM      3  C   LIG A   1      -8.607  -0.803 125.811  0.00  0.00    +0.128 C 
ATOM      4  C   LIG A   1      -7.350  -1.032 125.172  0.00  0.00    +0.000 C 
ATOM      5  C   LIG A   1      -6.998  -2.461 125.402  0.00  0.00    +0.065 C 
ATOM      6  C   LIG A   1      -7.430  -3.322 124.212  0.00  0.00    +0.016 C 
ATOM      7  C   LIG A   1      -6.659  -0.057 124.572  0.00  0.00    +0.023 C 
ATOM      8  C   LIG A   1      -7.206   1.354 124.465  0.00  0.00    +0.153 C 
ATOM      9  C   LIG A   1      -9.285   0.344 125.743  0.00  0.00    +0.095 C 
ATOM     10  C   LIG A   1      -8.690   1.473 124.980  0.00  0.00    +0.195 C 
ATOM     11  O   LIG A   1      -9.388   2.473 124.797  0.00  0.00    -0.289 OA
ENDROOT
BRANCH   1  19
ATOM     12  C   LIG A   1      -5.022  -2.341 129.286  0.00  0.00    +0.166 A 
ATOM     13  C   LIG A   1      -5.791  -2.105 130.408  0.00  0.00    +0.207 A 
ATOM     14  O   LIG A   1      -5.358  -1.876 131.680  0.00  0.00    -0.449 OA
ATOM     15  C   LIG A   1      -6.598  -1.683 132.380  0.00  0.00    +0.467 C 
ATOM     16  O   LIG A   1      -7.755  -1.824 131.537  0.00  0.00    -0.453 OA
ATOM     17  C   LIG A   1      -7.168  -2.074 130.333  0.00  0.00    +0.170 A 
ATOM     18  C   LIG A   1      -7.853  -2.278 129.151  0.00  0.00    +0.057 A 
ATOM     19  C   LIG A   1      -7.114  -2.524 127.981  0.00  0.00    +0.000 A 
ATOM     20  C   LIG A   1      -5.700  -2.531 128.068  0.00  0.00    +0.057 A 
BRANCH  12  22
ATOM     21  C   LIG A   1      -3.087  -3.715 129.197  0.00  0.00    +0.277 C 
ATOM     22  O   LIG A   1      -3.661  -2.413 129.200  0.00  0.00    -0.491 OA
ENDBRANCH  12  22
ENDBRANCH   1  19
BRANCH   8  23
ATOM     23  O   LIG A   1      -7.064   1.820 123.115  0.00  0.00    -0.364 OA
ATOM     24  C   LIG A   1      -6.451   3.095 122.973  0.00  0.00    +0.195 C 
ENDBRANCH   8  23
BRANCH   8  25
ATOM     25  C   LIG A   1      -6.378   2.312 125.373  0.00  0.00    +0.074 C 
BRANCH  25  26
ATOM     26  C   LIG A   1      -5.530   1.621 126.417  0.00  0.00    -0.031 C 
ATOM     27  C   LIG A   1      -5.903   1.423 127.688  0.00  0.00    +0.004 C 
ENDBRANCH  25  26
ENDBRANCH   8  25
TORSDOF 5
ENDMDL
MODEL 8
REMARK VINA RESULT:      -7.0      3.403      7.751
REMARK  Name = NuBBE_2341
REMARK  8 active torsions:
REMARK  status: ('A' for Active; 'I' for Inactive)
REMARK    1  A    between atoms: C_1  and  O_2
REMARK    2  A    between atoms: O_2  and  C_3
REMARK    3  A    between atoms: C_10  and  C_11
REMARK    4  A    between atoms: C_16  and  C_18
REMARK    5  A    between atoms: C_20  and  C_21
REMARK    6  A    between atoms: C_20  and  O_24
REMARK    7  A    between atoms: C_21  and  C_22
REMARK    8  A    between atoms: O_24  and  C_25
REMARK                            x       y       z     vdW  Elec       q    Type
REMARK                         _______ _______ _______ _____ _____    ______ ____
ROOT
ATOM      1  C   LIG A   1      -7.924  -2.680 126.579  0.00  0.00    +0.211 C 
ATOM      2  O   LIG A   1      -9.075  -1.796 126.488  0.00  0.00    -0.483 OA
ATOM      3  C   LIG A   1      -8.647  -0.715 125.743  0.00  0.00    +0.128 C 
ATOM      4  C   LIG A   1      -7.420  -0.990 125.064  0.00  0.00    +0.000 C 
ATOM      5  C   LIG A   1      -7.107  -2.428 125.293  0.00  0.00    +0.065 C 
ATOM      6  C   LIG A   1      -7.607  -3.283 124.125  0.00  0.00    +0.016 C 
ATOM      7  C   LIG A   1      -6.717  -0.042 124.433  0.00  0.00    +0.023 C 
ATOM      8  C   LIG A   1      -7.222   1.385 124.333  0.00  0.00    +0.153 C 
ATOM      9  C   LIG A   1      -9.289   0.453 125.688  0.00  0.00    +0.095 C 
ATOM     10  C   LIG A   1      -8.683   1.556 124.897  0.00  0.00    +0.195 C 
ATOM     11  O   LIG A   1      -9.353   2.578 124.730  0.00  0.00    -0.289 OA
ENDROOT
BRANCH   1  19
ATOM     12  C   LIG A   1      -7.061  -1.993 130.300  0.00  0.00    +0.166 A 
ATOM     13  C   LIG A   1      -5.686  -2.093 130.234  0.00  0.00    +0.207 A 
ATOM     14  O   LIG A   1      -4.791  -1.949 131.252  0.00  0.00    -0.449 OA
ATOM     15  C   LIG A   1      -3.543  -2.184 130.580  0.00  0.00    +0.467 C 
ATOM     16  O   LIG A   1      -3.695  -2.438 129.172  0.00  0.00    -0.453 OA
ATOM     17  C   LIG A   1      -5.049  -2.373 129.043  0.00  0.00    +0.170 A 
ATOM     18  C   LIG A   1      -5.736  -2.563 127.860  0.00  0.00    +0.057 A 
ATOM     19  C   LIG A   1      -7.138  -2.470 127.875  0.00  0.00    +0.000 A 
ATOM     20  C   LIG A   1      -7.781  -2.204 129.109  0.00  0.00    +0.057 A 
BRANCH  12  22
ATOM     21  C   LIG A   1      -8.388  -0.405 131.466  0.00  0.00    +0.277 C 
ATOM     22  O   LIG A   1      -7.831  -1.713 131.392  0.00  0.00    -0.491 OA
ENDBRANCH  12  22
ENDBRANCH   1  19
BRANCH   8  23
ATOM     23  O   LIG A   1      -7.110   1.837 122.976  0.00  0.00    -0.364 OA
ATOM     24  C   LIG A   1      -6.462   3.090 122.803  0.00  0.00    +0.195 C 
ENDBRANCH   8  23
BRANCH   8  25
ATOM     25  C   LIG A   1      -6.333   2.321 125.205  0.00  0.00    +0.074 C 
BRANCH  25  26
ATOM     26  C   LIG A   1      -5.471   1.609 126.225  0.00  0.00    -0.031 C 
ATOM     27  C   LIG A   1      -5.809   1.426 127.507  0.00  0.00    +0.004 C 
ENDBRANCH  25  26
ENDBRANCH   8  25
TORSDOF 5
ENDMDL
MODEL 9
REMARK VINA RESULT:      -7.0      3.604      7.294
REMARK  Name = NuBBE_2341
REMARK  8 active torsions:
REMARK  status: ('A' for Active; 'I' for Inactive)
REMARK    1  A    between atoms: C_1  and  O_2
REMARK    2  A    between atoms: O_2  and  C_3
REMARK    3  A    between atoms: C_10  and  C_11
REMARK    4  A    between atoms: C_16  and  C_18
REMARK    5  A    between atoms: C_20  and  C_21
REMARK    6  A    between atoms: C_20  and  O_24
REMARK    7  A    between atoms: C_21  and  C_22
REMARK    8  A    between atoms: O_24  and  C_25
REMARK                            x       y       z     vdW  Elec       q    Type
REMARK                         _______ _______ _______ _____ _____    ______ ____
ROOT
ATOM      1  C   LIG A   1      -6.510   0.731 127.121  0.00  0.00    +0.211 C 
ATOM      2  O   LIG A   1      -5.745   0.339 125.948  0.00  0.00    -0.483 OA
ATOM      3  C   LIG A   1      -6.669  -0.188 125.069  0.00  0.00    +0.128 C 
ATOM      4  C   LIG A   1      -8.008   0.141 125.444  0.00  0.00    +0.000 C 
ATOM      5  C   LIG A   1      -7.921   1.080 126.597  0.00  0.00    +0.065 C 
ATOM      6  C   LIG A   1      -8.007   2.532 126.119  0.00  0.00    +0.016 C 
ATOM      7  C   LIG A   1      -9.077  -0.408 124.856  0.00  0.00    +0.023 C 
ATOM      8  C   LIG A   1      -8.935  -1.369 123.690  0.00  0.00    +0.153 C 
ATOM      9  C   LIG A   1      -6.349  -0.938 124.014  0.00  0.00    +0.095 C 
ATOM     10  C   LIG A   1      -7.448  -1.498 123.184  0.00  0.00    +0.195 C 
ATOM     11  O   LIG A   1      -7.143  -2.062 122.131  0.00  0.00    -0.289 OA
ENDROOT
BRANCH   1  19
ATOM     12  C   LIG A   1      -7.405  -1.345 130.275  0.00  0.00    +0.166 A 
ATOM     13  C   LIG A   1      -6.442  -2.330 130.177  0.00  0.00    +0.207 A 
ATOM     14  O   LIG A   1      -6.240  -3.383 131.019  0.00  0.00    -0.449 OA
ATOM     15  C   LIG A   1      -5.133  -4.051 130.391  0.00  0.00    +0.467 C 
ATOM     16  O   LIG A   1      -4.667  -3.384 129.203  0.00  0.00    -0.453 OA
ATOM     17  C   LIG A   1      -5.536  -2.337 129.138  0.00  0.00    +0.170 A 
ATOM     18  C   LIG A   1      -5.531  -1.373 128.149  0.00  0.00    +0.057 A 
ATOM     19  C   LIG A   1      -6.491  -0.348 128.206  0.00  0.00    +0.000 A 
ATOM     20  C   LIG A   1      -7.430  -0.365 129.267  0.00  0.00    +0.057 A 
BRANCH  12  22
ATOM     21  C   LIG A   1      -8.820   0.128 131.488  0.00  0.00    +0.277 C 
ATOM     22  O   LIG A   1      -8.357  -1.196 131.242  0.00  0.00    -0.491 OA
ENDBRANCH  12  22
ENDBRANCH   1  19
BRANCH   8  23
ATOM     23  O   LIG A   1      -9.832  -0.980 122.639  0.00  0.00    -0.364 OA
ATOM     24  C   LIG A   1     -10.151   0.404 122.593  0.00  0.00    +0.195 C 
ENDBRANCH   8  23
BRANCH   8  25
ATOM     25  C   LIG A   1      -9.343  -2.805 124.137  0.00  0.00    +0.074 C 
BRANCH  25  26
ATOM     26  C   LIG A   1      -8.410  -3.446 125.140  0.00  0.00    -0.031 C 
ATOM     27  C   LIG A   1      -8.644  -3.514 126.457  0.00  0.00    +0.004 C 
ENDBRANCH  25  26
ENDBRANCH   8  25
TORSDOF 5
ENDMDL
