MODEL 1
REMARK VINA RESULT:      -7.6      0.000      0.000
REMARK  Name = NuBBE_82
REMARK  11 active torsions:
REMARK  status: ('A' for Active; 'I' for Inactive)
REMARK    1  A    between atoms: C_1  and  C_2
REMARK    2  A    between atoms: C_4  and  C_6
REMARK    3  A    between atoms: C_7  and  C_9
REMARK    4  A    between atoms: C_11  and  O_12
REMARK    5  A    between atoms: O_12  and  C_13
REMARK    6  A    between atoms: C_21  and  C_23
REMARK    7  A    between atoms: C_25  and  O_26
REMARK    8  A    between atoms: O_26  and  C_27
REMARK    9  A    between atoms: C_28  and  O_29
REMARK   10  A    between atoms: C_30  and  O_31
REMARK   11  A    between atoms: O_31  and  C_32
REMARK                            x       y       z     vdW  Elec       q    Type
REMARK                         _______ _______ _______ _____ _____    ______ ____
ROOT
ATOM      1  C   LIG A   1      -9.125   2.935 133.360  0.00  0.00    +0.011 C 
ATOM      2  C   LIG A   1      -8.117   4.032 133.658  0.00  0.00    +0.025 C 
ATOM      3  C   LIG A   1      -6.804   3.886 132.899  0.00  0.00    +0.025 C 
ATOM      4  C   LIG A   1      -5.946   2.718 133.371  0.00  0.00    +0.011 C 
ATOM      5  C   LIG A   1      -6.156   5.260 133.131  0.00  0.00    +0.152 C 
ATOM      6  O   LIG A   1      -7.256   6.197 133.240  0.00  0.00    -0.364 OA
ATOM      7  C   LIG A   1      -8.517   5.479 133.350  0.00  0.00    +0.152 C 
ENDROOT
BRANCH   5   8
ATOM      8  C   LIG A   1      -5.165   5.763 132.079  0.00  0.00    -0.011 A 
ATOM      9  C   LIG A   1      -3.981   6.458 132.424  0.00  0.00    +0.056 A 
ATOM     10  C   LIG A   1      -3.057   6.894 131.467  0.00  0.00    +0.166 A 
ATOM     11  C   LIG A   1      -3.362   6.652 130.138  0.00  0.00    +0.207 A 
ATOM     12  O   LIG A   1      -2.634   7.012 129.052  0.00  0.00    -0.449 OA
ATOM     13  C   LIG A   1      -3.458   6.506 127.974  0.00  0.00    +0.467 C 
ATOM     14  O   LIG A   1      -4.653   5.871 128.430  0.00  0.00    -0.453 OA
ATOM     15  C   LIG A   1      -4.522   5.999 129.783  0.00  0.00    +0.170 A 
ATOM     16  C   LIG A   1      -5.433   5.548 130.717  0.00  0.00    +0.056 A 
BRANCH  10  17
ATOM     17  O   LIG A   1      -1.967   7.545 131.958  0.00  0.00    -0.491 OA
ATOM     18  C   LIG A   1      -0.793   6.760 132.132  0.00  0.00    +0.277 C 
ENDBRANCH  10  17
ENDBRANCH   5   8
BRANCH   7  19
ATOM     19  C   LIG A   1      -9.374   5.779 132.127  0.00  0.00    -0.011 A 
ATOM     20  C   LIG A   1      -8.896   5.550 130.821  0.00  0.00    +0.056 A 
ATOM     21  C   LIG A   1      -9.722   5.700 129.689  0.00  0.00    +0.165 A 
ATOM     22  C   LIG A   1     -11.058   6.064 129.883  0.00  0.00    +0.201 A 
ATOM     23  C   LIG A   1     -11.547   6.326 131.170  0.00  0.00    +0.165 A 
ATOM     24  C   LIG A   1     -10.701   6.201 132.271  0.00  0.00    +0.056 A 
BRANCH  21  25
ATOM     25  O   LIG A   1      -9.096   5.425 128.501  0.00  0.00    -0.491 OA
ATOM     26  C   LIG A   1      -8.130   4.377 128.494  0.00  0.00    +0.277 C 
ENDBRANCH  21  25
BRANCH  22  27
ATOM     27  O   LIG A   1     -11.959   6.121 128.849  0.00  0.00    -0.501 OA
ATOM     28  H   LIG A   1     -11.416   6.192 128.041  0.00  0.00    +0.292 HD
ENDBRANCH  22  27
BRANCH  23  29
ATOM     29  O   LIG A   1     -12.865   6.708 131.234  0.00  0.00    -0.491 OA
ATOM     30  C   LIG A   1     -13.088   8.090 131.499  0.00  0.00    +0.277 C 
ENDBRANCH  23  29
ENDBRANCH   7  19
TORSDOF 6
ENDMDL
MODEL 2
REMARK VINA RESULT:      -7.4      1.202      2.717
REMARK  Name = NuBBE_82
REMARK  11 active torsions:
REMARK  status: ('A' for Active; 'I' for Inactive)
REMARK    1  A    between atoms: C_1  and  C_2
REMARK    2  A    between atoms: C_4  and  C_6
REMARK    3  A    between atoms: C_7  and  C_9
REMARK    4  A    between atoms: C_11  and  O_12
REMARK    5  A    between atoms: O_12  and  C_13
REMARK    6  A    between atoms: C_21  and  C_23
REMARK    7  A    between atoms: C_25  and  O_26
REMARK    8  A    between atoms: O_26  and  C_27
REMARK    9  A    between atoms: C_28  and  O_29
REMARK   10  A    between atoms: C_30  and  O_31
REMARK   11  A    between atoms: O_31  and  C_32
REMARK                            x       y       z     vdW  Elec       q    Type
REMARK                         _______ _______ _______ _____ _____    ______ ____
ROOT
ATOM      1  C   LIG A   1      -9.727   2.587 132.978  0.00  0.00    +0.011 C 
ATOM      2  C   LIG A   1      -8.935   3.744 133.560  0.00  0.00    +0.025 C 
ATOM      3  C   LIG A   1      -7.462   3.739 133.175  0.00  0.00    +0.025 C 
ATOM      4  C   LIG A   1      -6.657   2.622 133.829  0.00  0.00    +0.011 C 
ATOM      5  C   LIG A   1      -7.022   5.148 133.604  0.00  0.00    +0.152 C 
ATOM      6  O   LIG A   1      -8.190   5.988 133.440  0.00  0.00    -0.364 OA
ATOM      7  C   LIG A   1      -9.367   5.168 133.193  0.00  0.00    +0.152 C 
ENDROOT
BRANCH   5   8
ATOM      8  C   LIG A   1      -5.838   5.777 132.866  0.00  0.00    -0.011 A 
ATOM      9  C   LIG A   1      -4.502   5.630 133.312  0.00  0.00    +0.056 A 
ATOM     10  C   LIG A   1      -3.414   6.180 132.624  0.00  0.00    +0.166 A 
ATOM     11  C   LIG A   1      -3.693   6.919 131.488  0.00  0.00    +0.207 A 
ATOM     12  O   LIG A   1      -2.804   7.564 130.691  0.00  0.00    -0.449 OA
ATOM     13  C   LIG A   1      -3.682   8.153 129.701  0.00  0.00    +0.467 C 
ATOM     14  O   LIG A   1      -5.062   7.865 129.929  0.00  0.00    -0.453 OA
ATOM     15  C   LIG A   1      -4.989   7.093 131.053  0.00  0.00    +0.170 A 
ATOM     16  C   LIG A   1      -6.070   6.542 131.711  0.00  0.00    +0.056 A 
BRANCH  10  17
ATOM     17  O   LIG A   1      -2.192   5.950 133.179  0.00  0.00    -0.491 OA
ATOM     18  C   LIG A   1      -1.462   4.847 132.653  0.00  0.00    +0.277 C 
ENDBRANCH  10  17
ENDBRANCH   5   8
BRANCH   7  19
ATOM     19  C   LIG A   1      -9.896   5.457 131.795  0.00  0.00    -0.011 A 
ATOM     20  C   LIG A   1     -11.120   6.128 131.597  0.00  0.00    +0.056 A 
ATOM     21  C   LIG A   1     -11.558   6.516 130.315  0.00  0.00    +0.165 A 
ATOM     22  C   LIG A   1     -10.734   6.244 129.220  0.00  0.00    +0.201 A 
ATOM     23  C   LIG A   1      -9.527   5.552 129.389  0.00  0.00    +0.165 A 
ATOM     24  C   LIG A   1      -9.131   5.150 130.663  0.00  0.00    +0.056 A 
BRANCH  21  25
ATOM     25  O   LIG A   1     -12.764   7.168 130.312  0.00  0.00    -0.491 OA
ATOM     26  C   LIG A   1     -13.129   7.884 131.489  0.00  0.00    +0.277 C 
ENDBRANCH  21  25
BRANCH  22  27
ATOM     27  O   LIG A   1     -11.027   6.687 127.954  0.00  0.00    -0.501 OA
ATOM     28  H   LIG A   1     -11.718   6.080 127.625  0.00  0.00    +0.292 HD
ENDBRANCH  22  27
BRANCH  23  29
ATOM     29  O   LIG A   1      -8.818   5.312 128.236  0.00  0.00    -0.491 OA
ATOM     30  C   LIG A   1      -7.932   4.196 128.285  0.00  0.00    +0.277 C 
ENDBRANCH  23  29
ENDBRANCH   7  19
TORSDOF 6
ENDMDL
MODEL 3
REMARK VINA RESULT:      -7.4      1.339      2.151
REMARK  Name = NuBBE_82
REMARK  11 active torsions:
REMARK  status: ('A' for Active; 'I' for Inactive)
REMARK    1  A    between atoms: C_1  and  C_2
REMARK    2  A    between atoms: C_4  and  C_6
REMARK    3  A    between atoms: C_7  and  C_9
REMARK    4  A    between atoms: C_11  and  O_12
REMARK    5  A    between atoms: O_12  and  C_13
REMARK    6  A    between atoms: C_21  and  C_23
REMARK    7  A    between atoms: C_25  and  O_26
REMARK    8  A    between atoms: O_26  and  C_27
REMARK    9  A    between atoms: C_28  and  O_29
REMARK   10  A    between atoms: C_30  and  O_31
REMARK   11  A    between atoms: O_31  and  C_32
REMARK                            x       y       z     vdW  Elec       q    Type
REMARK                         _______ _______ _______ _____ _____    ______ ____
ROOT
ATOM      1  C   LIG A   1      -9.262   3.431 133.906  0.00  0.00    +0.011 C 
ATOM      2  C   LIG A   1      -8.026   4.309 133.824  0.00  0.00    +0.025 C 
ATOM      3  C   LIG A   1      -6.884   3.695 133.024  0.00  0.00    +0.025 C 
ATOM      4  C   LIG A   1      -6.219   2.508 133.710  0.00  0.00    +0.011 C 
ATOM      5  C   LIG A   1      -5.951   4.901 132.837  0.00  0.00    +0.152 C 
ATOM      6  O   LIG A   1      -6.817   6.061 132.789  0.00  0.00    -0.364 OA
ATOM      7  C   LIG A   1      -8.168   5.694 133.186  0.00  0.00    +0.152 C 
ENDROOT
BRANCH   5   8
ATOM      8  C   LIG A   1      -5.033   4.904 131.612  0.00  0.00    -0.011 A 
ATOM      9  C   LIG A   1      -4.773   3.735 130.857  0.00  0.00    +0.056 A 
ATOM     10  C   LIG A   1      -3.957   3.739 129.719  0.00  0.00    +0.166 A 
ATOM     11  C   LIG A   1      -3.369   4.942 129.367  0.00  0.00    +0.207 A 
ATOM     12  O   LIG A   1      -2.524   5.169 128.331  0.00  0.00    -0.449 OA
ATOM     13  C   LIG A   1      -2.247   6.581 128.491  0.00  0.00    +0.467 C 
ATOM     14  O   LIG A   1      -2.913   7.162 129.613  0.00  0.00    -0.453 OA
ATOM     15  C   LIG A   1      -3.592   6.084 130.106  0.00  0.00    +0.170 A 
ATOM     16  C   LIG A   1      -4.408   6.099 131.219  0.00  0.00    +0.056 A 
BRANCH  10  17
ATOM     17  O   LIG A   1      -3.807   2.536 129.100  0.00  0.00    -0.491 OA
ATOM     18  C   LIG A   1      -4.649   2.298 127.977  0.00  0.00    +0.277 C 
ENDBRANCH  10  17
ENDBRANCH   5   8
BRANCH   7  19
ATOM     19  C   LIG A   1      -9.108   5.885 132.002  0.00  0.00    -0.011 A 
ATOM     20  C   LIG A   1      -8.693   5.608 130.683  0.00  0.00    +0.056 A 
ATOM     21  C   LIG A   1      -9.588   5.655 129.596  0.00  0.00    +0.165 A 
ATOM     22  C   LIG A   1     -10.928   5.962 129.850  0.00  0.00    +0.201 A 
ATOM     23  C   LIG A   1     -11.357   6.270 131.148  0.00  0.00    +0.165 A 
ATOM     24  C   LIG A   1     -10.445   6.248 132.202  0.00  0.00    +0.056 A 
BRANCH  21  25
ATOM     25  O   LIG A   1      -9.016   5.346 128.389  0.00  0.00    -0.491 OA
ATOM     26  C   LIG A   1      -8.032   4.316 128.372  0.00  0.00    +0.277 C 
ENDBRANCH  21  25
BRANCH  22  27
ATOM     27  O   LIG A   1     -11.889   5.918 128.870  0.00  0.00    -0.501 OA
ATOM     28  H   LIG A   1     -12.394   5.101 129.044  0.00  0.00    +0.292 HD
ENDBRANCH  22  27
BRANCH  23  29
ATOM     29  O   LIG A   1     -12.688   6.590 131.271  0.00  0.00    -0.491 OA
ATOM     30  C   LIG A   1     -12.962   7.949 131.596  0.00  0.00    +0.277 C 
ENDBRANCH  23  29
ENDBRANCH   7  19
TORSDOF 6
ENDMDL
MODEL 4
REMARK VINA RESULT:      -7.4      6.560      9.708
REMARK  Name = NuBBE_82
REMARK  11 active torsions:
REMARK  status: ('A' for Active; 'I' for Inactive)
REMARK    1  A    between atoms: C_1  and  C_2
REMARK    2  A    between atoms: C_4  and  C_6
REMARK    3  A    between atoms: C_7  and  C_9
REMARK    4  A    between atoms: C_11  and  O_12
REMARK    5  A    between atoms: O_12  and  C_13
REMARK    6  A    between atoms: C_21  and  C_23
REMARK    7  A    between atoms: C_25  and  O_26
REMARK    8  A    between atoms: O_26  and  C_27
REMARK    9  A    between atoms: C_28  and  O_29
REMARK   10  A    between atoms: C_30  and  O_31
REMARK   11  A    between atoms: O_31  and  C_32
REMARK                            x       y       z     vdW  Elec       q    Type
REMARK                         _______ _______ _______ _____ _____    ______ ____
ROOT
ATOM      1  C   LIG A   1      -7.898  -2.027 122.223  0.00  0.00    +0.011 C 
ATOM      2  C   LIG A   1      -8.715  -2.043 123.503  0.00  0.00    +0.025 C 
ATOM      3  C   LIG A   1      -7.944  -2.537 124.721  0.00  0.00    +0.025 C 
ATOM      4  C   LIG A   1      -7.628  -4.028 124.688  0.00  0.00    +0.011 C 
ATOM      5  C   LIG A   1      -8.881  -2.131 125.869  0.00  0.00    +0.152 C 
ATOM      6  O   LIG A   1      -9.555  -0.931 125.417  0.00  0.00    -0.364 OA
ATOM      7  C   LIG A   1      -9.300  -0.717 124.000  0.00  0.00    +0.152 C 
ENDROOT
BRANCH   5   8
ATOM      8  C   LIG A   1      -8.252  -1.872 127.240  0.00  0.00    -0.011 A 
ATOM      9  C   LIG A   1      -7.890  -0.574 127.675  0.00  0.00    +0.056 A 
ATOM     10  C   LIG A   1      -7.341  -0.329 128.939  0.00  0.00    +0.166 A 
ATOM     11  C   LIG A   1      -7.123  -1.425 129.757  0.00  0.00    +0.207 A 
ATOM     12  O   LIG A   1      -6.576  -1.425 130.998  0.00  0.00    -0.449 OA
ATOM     13  C   LIG A   1      -6.600  -2.837 131.321  0.00  0.00    +0.467 C 
ATOM     14  O   LIG A   1      -7.142  -3.645 130.275  0.00  0.00    -0.453 OA
ATOM     15  C   LIG A   1      -7.447  -2.698 129.339  0.00  0.00    +0.170 A 
ATOM     16  C   LIG A   1      -8.005  -2.952 128.103  0.00  0.00    +0.056 A 
BRANCH  10  17
ATOM     17  O   LIG A   1      -7.049   0.973 129.210  0.00  0.00    -0.491 OA
ATOM     18  C   LIG A   1      -7.913   1.944 128.629  0.00  0.00    +0.277 C 
ENDBRANCH  10  17
ENDBRANCH   5   8
BRANCH   7  19
ATOM     19  C   LIG A   1      -8.507   0.571 123.821  0.00  0.00    -0.011 A 
ATOM     20  C   LIG A   1      -8.902   1.553 122.891  0.00  0.00    +0.056 A 
ATOM     21  C   LIG A   1      -8.255   2.802 122.807  0.00  0.00    +0.165 A 
ATOM     22  C   LIG A   1      -7.208   3.070 123.693  0.00  0.00    +0.201 A 
ATOM     23  C   LIG A   1      -6.778   2.097 124.606  0.00  0.00    +0.165 A 
ATOM     24  C   LIG A   1      -7.414   0.858 124.648  0.00  0.00    +0.056 A 
BRANCH  21  25
ATOM     25  O   LIG A   1      -8.778   3.639 121.855  0.00  0.00    -0.491 OA
ATOM     26  C   LIG A   1      -8.049   3.791 120.640  0.00  0.00    +0.277 C 
ENDBRANCH  21  25
BRANCH  22  27
ATOM     27  O   LIG A   1      -6.598   4.299 123.758  0.00  0.00    -0.501 OA
ATOM     28  H   LIG A   1      -7.329   4.947 123.752  0.00  0.00    +0.292 HD
ENDBRANCH  22  27
BRANCH  23  29
ATOM     29  O   LIG A   1      -5.719   2.462 125.403  0.00  0.00    -0.491 OA
ATOM     30  C   LIG A   1      -5.133   1.406 126.160  0.00  0.00    +0.277 C 
ENDBRANCH  23  29
ENDBRANCH   7  19
TORSDOF 6
ENDMDL
MODEL 5
REMARK VINA RESULT:      -7.4      3.565      7.040
REMARK  Name = NuBBE_82
REMARK  11 active torsions:
REMARK  status: ('A' for Active; 'I' for Inactive)
REMARK    1  A    between atoms: C_1  and  C_2
REMARK    2  A    between atoms: C_4  and  C_6
REMARK    3  A    between atoms: C_7  and  C_9
REMARK    4  A    between atoms: C_11  and  O_12
REMARK    5  A    between atoms: O_12  and  C_13
REMARK    6  A    between atoms: C_21  and  C_23
REMARK    7  A    between atoms: C_25  and  O_26
REMARK    8  A    between atoms: O_26  and  C_27
REMARK    9  A    between atoms: C_28  and  O_29
REMARK   10  A    between atoms: C_30  and  O_31
REMARK   11  A    between atoms: O_31  and  C_32
REMARK                            x       y       z     vdW  Elec       q    Type
REMARK                         _______ _______ _______ _____ _____    ______ ____
ROOT
ATOM      1  C   LIG A   1      -5.799   2.185 129.417  0.00  0.00    +0.011 C 
ATOM      2  C   LIG A   1      -7.230   2.314 129.909  0.00  0.00    +0.025 C 
ATOM      3  C   LIG A   1      -7.594   3.713 130.388  0.00  0.00    +0.025 C 
ATOM      4  C   LIG A   1      -6.916   4.114 131.693  0.00  0.00    +0.011 C 
ATOM      5  C   LIG A   1      -9.124   3.619 130.492  0.00  0.00    +0.152 C 
ATOM      6  O   LIG A   1      -9.528   2.676 129.469  0.00  0.00    -0.364 OA
ATOM      7  C   LIG A   1      -8.361   1.999 128.925  0.00  0.00    +0.152 C 
ENDROOT
BRANCH   5   8
ATOM      8  C   LIG A   1      -9.926   4.912 130.334  0.00  0.00    -0.011 A 
ATOM      9  C   LIG A   1      -9.665   5.845 129.301  0.00  0.00    +0.056 A 
ATOM     10  C   LIG A   1     -10.415   7.015 129.135  0.00  0.00    +0.166 A 
ATOM     11  C   LIG A   1     -11.421   7.257 130.054  0.00  0.00    +0.207 A 
ATOM     12  O   LIG A   1     -12.244   8.334 130.105  0.00  0.00    -0.449 OA
ATOM     13  C   LIG A   1     -13.049   8.025 131.268  0.00  0.00    +0.467 C 
ATOM     14  O   LIG A   1     -12.688   6.792 131.891  0.00  0.00    -0.453 OA
ATOM     15  C   LIG A   1     -11.673   6.372 131.080  0.00  0.00    +0.170 A 
ATOM     16  C   LIG A   1     -10.953   5.206 131.246  0.00  0.00    +0.056 A 
BRANCH  10  17
ATOM     17  O   LIG A   1     -10.041   7.809 128.094  0.00  0.00    -0.491 OA
ATOM     18  C   LIG A   1     -10.652   7.527 126.839  0.00  0.00    +0.277 C 
ENDBRANCH  10  17
ENDBRANCH   5   8
BRANCH   7  19
ATOM     19  C   LIG A   1      -8.205   2.369 127.455  0.00  0.00    -0.011 A 
ATOM     20  C   LIG A   1      -8.578   1.476 126.430  0.00  0.00    +0.056 A 
ATOM     21  C   LIG A   1      -8.561   1.854 125.072  0.00  0.00    +0.165 A 
ATOM     22  C   LIG A   1      -8.186   3.161 124.749  0.00  0.00    +0.201 A 
ATOM     23  C   LIG A   1      -7.783   4.056 125.749  0.00  0.00    +0.165 A 
ATOM     24  C   LIG A   1      -7.777   3.649 127.082  0.00  0.00    +0.056 A 
BRANCH  21  25
ATOM     25  O   LIG A   1      -8.965   0.864 124.213  0.00  0.00    -0.491 OA
ATOM     26  C   LIG A   1      -7.953   0.062 123.611  0.00  0.00    +0.277 C 
ENDBRANCH  21  25
BRANCH  22  27
ATOM     27  O   LIG A   1      -8.251   3.646 123.466  0.00  0.00    -0.501 OA
ATOM     28  H   LIG A   1      -8.902   4.374 123.502  0.00  0.00    +0.292 HD
ENDBRANCH  22  27
BRANCH  23  29
ATOM     29  O   LIG A   1      -7.404   5.302 125.309  0.00  0.00    -0.491 OA
ATOM     30  C   LIG A   1      -5.999   5.506 125.191  0.00  0.00    +0.277 C 
ENDBRANCH  23  29
ENDBRANCH   7  19
TORSDOF 6
ENDMDL
MODEL 6
REMARK VINA RESULT:      -7.3      6.604      9.294
REMARK  Name = NuBBE_82
REMARK  11 active torsions:
REMARK  status: ('A' for Active; 'I' for Inactive)
REMARK    1  A    between atoms: C_1  and  C_2
REMARK    2  A    between atoms: C_4  and  C_6
REMARK    3  A    between atoms: C_7  and  C_9
REMARK    4  A    between atoms: C_11  and  O_12
REMARK    5  A    between atoms: O_12  and  C_13
REMARK    6  A    between atoms: C_21  and  C_23
REMARK    7  A    between atoms: C_25  and  O_26
REMARK    8  A    between atoms: O_26  and  C_27
REMARK    9  A    between atoms: C_28  and  O_29
REMARK   10  A    between atoms: C_30  and  O_31
REMARK   11  A    between atoms: O_31  and  C_32
REMARK                            x       y       z     vdW  Elec       q    Type
REMARK                         _______ _______ _______ _____ _____    ______ ____
ROOT
ATOM      1  C   LIG A   1      -6.767  -1.574 122.496  0.00  0.00    +0.011 C 
ATOM      2  C   LIG A   1      -7.389  -2.201 123.732  0.00  0.00    +0.025 C 
ATOM      3  C   LIG A   1      -6.402  -2.439 124.867  0.00  0.00    +0.025 C 
ATOM      4  C   LIG A   1      -5.397  -3.550 124.587  0.00  0.00    +0.011 C 
ATOM      5  C   LIG A   1      -7.345  -2.743 126.041  0.00  0.00    +0.152 C 
ATOM      6  O   LIG A   1      -8.548  -1.979 125.784  0.00  0.00    -0.364 OA
ATOM      7  C   LIG A   1      -8.519  -1.440 124.432  0.00  0.00    +0.152 C 
ENDROOT
BRANCH   5   8
ATOM      8  C   LIG A   1      -6.842  -2.434 127.453  0.00  0.00    -0.011 A 
ATOM      9  C   LIG A   1      -5.470  -2.497 127.800  0.00  0.00    +0.056 A 
ATOM     10  C   LIG A   1      -5.003  -2.187 129.083  0.00  0.00    +0.166 A 
ATOM     11  C   LIG A   1      -5.947  -1.843 130.034  0.00  0.00    +0.207 A 
ATOM     12  O   LIG A   1      -5.725  -1.539 131.337  0.00  0.00    -0.449 OA
ATOM     13  C   LIG A   1      -7.072  -1.290 131.807  0.00  0.00    +0.467 C 
ATOM     14  O   LIG A   1      -8.063  -1.460 130.792  0.00  0.00    -0.453 OA
ATOM     15  C   LIG A   1      -7.289  -1.801 129.720  0.00  0.00    +0.170 A 
ATOM     16  C   LIG A   1      -7.762  -2.086 128.456  0.00  0.00    +0.056 A 
BRANCH  10  17
ATOM     17  O   LIG A   1      -3.657  -2.293 129.258  0.00  0.00    -0.491 OA
ATOM     18  C   LIG A   1      -3.133  -3.616 129.310  0.00  0.00    +0.277 C 
ENDBRANCH  10  17
ENDBRANCH   5   8
BRANCH   7  19
ATOM     19  C   LIG A   1      -8.474   0.081 124.499  0.00  0.00    -0.011 A 
ATOM     20  C   LIG A   1      -8.704   0.874 123.356  0.00  0.00    +0.056 A 
ATOM     21  C   LIG A   1      -8.794   2.278 123.430  0.00  0.00    +0.165 A 
ATOM     22  C   LIG A   1      -8.675   2.888 124.681  0.00  0.00    +0.201 A 
ATOM     23  C   LIG A   1      -8.416   2.123 125.827  0.00  0.00    +0.165 A 
ATOM     24  C   LIG A   1      -8.300   0.739 125.723  0.00  0.00    +0.056 A 
BRANCH  21  25
ATOM     25  O   LIG A   1      -9.032   2.885 122.223  0.00  0.00    -0.491 OA
ATOM     26  C   LIG A   1      -7.914   3.431 121.529  0.00  0.00    +0.277 C 
ENDBRANCH  21  25
BRANCH  22  27
ATOM     27  O   LIG A   1      -8.862   4.237 124.860  0.00  0.00    -0.501 OA
ATOM     28  H   LIG A   1      -9.112   4.336 125.799  0.00  0.00    +0.292 HD
ENDBRANCH  22  27
BRANCH  23  29
ATOM     29  O   LIG A   1      -8.285   2.835 126.995  0.00  0.00    -0.491 OA
ATOM     30  C   LIG A   1      -7.318   2.330 127.912  0.00  0.00    +0.277 C 
ENDBRANCH  23  29
ENDBRANCH   7  19
TORSDOF 6
ENDMDL
MODEL 7
REMARK VINA RESULT:      -7.3      6.573      9.395
REMARK  Name = NuBBE_82
REMARK  11 active torsions:
REMARK  status: ('A' for Active; 'I' for Inactive)
REMARK    1  A    between atoms: C_1  and  C_2
REMARK    2  A    between atoms: C_4  and  C_6
REMARK    3  A    between atoms: C_7  and  C_9
REMARK    4  A    between atoms: C_11  and  O_12
REMARK    5  A    between atoms: O_12  and  C_13
REMARK    6  A    between atoms: C_21  and  C_23
REMARK    7  A    between atoms: C_25  and  O_26
REMARK    8  A    between atoms: O_26  and  C_27
REMARK    9  A    between atoms: C_28  and  O_29
REMARK   10  A    between atoms: C_30  and  O_31
REMARK   11  A    between atoms: O_31  and  C_32
REMARK                            x       y       z     vdW  Elec       q    Type
REMARK                         _______ _______ _______ _____ _____    ______ ____
ROOT
ATOM      1  C   LIG A   1      -6.755  -1.329 122.529  0.00  0.00    +0.011 C 
ATOM      2  C   LIG A   1      -7.350  -2.064 123.717  0.00  0.00    +0.025 C 
ATOM      3  C   LIG A   1      -6.379  -2.253 124.875  0.00  0.00    +0.025 C 
ATOM      4  C   LIG A   1      -5.262  -3.249 124.587  0.00  0.00    +0.011 C 
ATOM      5  C   LIG A   1      -7.322  -2.695 126.004  0.00  0.00    +0.152 C 
ATOM      6  O   LIG A   1      -8.586  -2.040 125.736  0.00  0.00    -0.364 OA
ATOM      7  C   LIG A   1      -8.569  -1.445 124.408  0.00  0.00    +0.152 C 
ENDROOT
BRANCH   5   8
ATOM      8  C   LIG A   1      -6.894  -2.398 127.443  0.00  0.00    -0.011 A 
ATOM      9  C   LIG A   1      -5.551  -2.520 127.875  0.00  0.00    +0.056 A 
ATOM     10  C   LIG A   1      -5.151  -2.222 129.184  0.00  0.00    +0.166 A 
ATOM     11  C   LIG A   1      -6.137  -1.828 130.072  0.00  0.00    +0.207 A 
ATOM     12  O   LIG A   1      -5.983  -1.524 131.385  0.00  0.00    -0.449 OA
ATOM     13  C   LIG A   1      -7.343  -1.210 131.768  0.00  0.00    +0.467 C 
ATOM     14  O   LIG A   1      -8.276  -1.343 130.694  0.00  0.00    -0.453 OA
ATOM     15  C   LIG A   1      -7.452  -1.727 129.674  0.00  0.00    +0.170 A 
ATOM     16  C   LIG A   1      -7.859  -2.001 128.384  0.00  0.00    +0.056 A 
BRANCH  10  17
ATOM     17  O   LIG A   1      -3.825  -2.388 129.443  0.00  0.00    -0.491 OA
ATOM     18  C   LIG A   1      -3.295  -3.686 129.199  0.00  0.00    +0.277 C 
ENDBRANCH  10  17
ENDBRANCH   5   8
BRANCH   7  19
ATOM     19  C   LIG A   1      -8.676   0.069 124.535  0.00  0.00    -0.011 A 
ATOM     20  C   LIG A   1      -8.460   0.719 125.767  0.00  0.00    +0.056 A 
ATOM     21  C   LIG A   1      -8.427   2.124 125.871  0.00  0.00    +0.165 A 
ATOM     22  C   LIG A   1      -8.589   2.882 124.708  0.00  0.00    +0.201 A 
ATOM     23  C   LIG A   1      -8.835   2.258 123.478  0.00  0.00    +0.165 A 
ATOM     24  C   LIG A   1      -8.895   0.868 123.406  0.00  0.00    +0.056 A 
BRANCH  21  25
ATOM     25  O   LIG A   1      -8.194   2.584 127.142  0.00  0.00    -0.491 OA
ATOM     26  C   LIG A   1      -8.614   1.760 128.227  0.00  0.00    +0.277 C 
ENDBRANCH  21  25
BRANCH  22  27
ATOM     27  O   LIG A   1      -8.458   4.249 124.700  0.00  0.00    -0.501 OA
ATOM     28  H   LIG A   1      -8.925   4.545 123.894  0.00  0.00    +0.292 HD
ENDBRANCH  22  27
BRANCH  23  29
ATOM     29  O   LIG A   1      -9.013   3.106 122.411  0.00  0.00    -0.491 OA
ATOM     30  C   LIG A   1      -7.905   3.207 121.520  0.00  0.00    +0.277 C 
ENDBRANCH  23  29
ENDBRANCH   7  19
TORSDOF 6
ENDMDL
MODEL 8
REMARK VINA RESULT:      -7.3      6.525      9.684
REMARK  Name = NuBBE_82
REMARK  11 active torsions:
REMARK  status: ('A' for Active; 'I' for Inactive)
REMARK    1  A    between atoms: C_1  and  C_2
REMARK    2  A    between atoms: C_4  and  C_6
REMARK    3  A    between atoms: C_7  and  C_9
REMARK    4  A    between atoms: C_11  and  O_12
REMARK    5  A    between atoms: O_12  and  C_13
REMARK    6  A    between atoms: C_21  and  C_23
REMARK    7  A    between atoms: C_25  and  O_26
REMARK    8  A    between atoms: O_26  and  C_27
REMARK    9  A    between atoms: C_28  and  O_29
REMARK   10  A    between atoms: C_30  and  O_31
REMARK   11  A    between atoms: O_31  and  C_32
REMARK                            x       y       z     vdW  Elec       q    Type
REMARK                         _______ _______ _______ _____ _____    ______ ____
ROOT
ATOM      1  C   LIG A   1      -7.494  -1.967 122.218  0.00  0.00    +0.011 C 
ATOM      2  C   LIG A   1      -8.402  -1.981 123.435  0.00  0.00    +0.025 C 
ATOM      3  C   LIG A   1      -7.699  -2.387 124.725  0.00  0.00    +0.025 C 
ATOM      4  C   LIG A   1      -7.306  -3.859 124.775  0.00  0.00    +0.011 C 
ATOM      5  C   LIG A   1      -8.739  -1.990 125.784  0.00  0.00    +0.152 C 
ATOM      6  O   LIG A   1      -9.438  -0.846 125.237  0.00  0.00    -0.364 OA
ATOM      7  C   LIG A   1      -9.090  -0.672 123.834  0.00  0.00    +0.152 C 
ENDROOT
BRANCH   5   8
ATOM      8  C   LIG A   1      -8.227  -1.647 127.185  0.00  0.00    -0.011 A 
ATOM      9  C   LIG A   1      -8.043  -2.631 128.187  0.00  0.00    +0.056 A 
ATOM     10  C   LIG A   1      -7.548  -2.326 129.461  0.00  0.00    +0.166 A 
ATOM     11  C   LIG A   1      -7.272  -0.996 129.730  0.00  0.00    +0.207 A 
ATOM     12  O   LIG A   1      -6.820  -0.473 130.897  0.00  0.00    -0.449 OA
ATOM     13  C   LIG A   1      -6.744   0.936 130.568  0.00  0.00    +0.467 C 
ATOM     14  O   LIG A   1      -7.159   1.226 129.233  0.00  0.00    -0.453 OA
ATOM     15  C   LIG A   1      -7.470  -0.023 128.774  0.00  0.00    +0.170 A 
ATOM     16  C   LIG A   1      -7.940  -0.311 127.509  0.00  0.00    +0.056 A 
BRANCH  10  17
ATOM     17  O   LIG A   1      -7.425  -3.382 130.311  0.00  0.00    -0.491 OA
ATOM     18  C   LIG A   1      -6.244  -4.164 130.174  0.00  0.00    +0.277 C 
ENDBRANCH  10  17
ENDBRANCH   5   8
BRANCH   7  19
ATOM     19  C   LIG A   1      -8.353   0.650 123.661  0.00  0.00    -0.011 A 
ATOM     20  C   LIG A   1      -8.826   1.644 122.780  0.00  0.00    +0.056 A 
ATOM     21  C   LIG A   1      -8.228   2.919 122.707  0.00  0.00    +0.165 A 
ATOM     22  C   LIG A   1      -7.153   3.200 123.554  0.00  0.00    +0.201 A 
ATOM     23  C   LIG A   1      -6.647   2.217 124.416  0.00  0.00    +0.165 A 
ATOM     24  C   LIG A   1      -7.235   0.954 124.447  0.00  0.00    +0.056 A 
BRANCH  21  25
ATOM     25  O   LIG A   1      -8.825   3.763 121.806  0.00  0.00    -0.491 OA
ATOM     26  C   LIG A   1      -8.267   3.828 120.496  0.00  0.00    +0.277 C 
ENDBRANCH  21  25
BRANCH  22  27
ATOM     27  O   LIG A   1      -6.586   4.448 123.631  0.00  0.00    -0.501 OA
ATOM     28  H   LIG A   1      -6.425   4.712 122.704  0.00  0.00    +0.292 HD
ENDBRANCH  22  27
BRANCH  23  29
ATOM     29  O   LIG A   1      -5.567   2.597 125.177  0.00  0.00    -0.491 OA
ATOM     30  C   LIG A   1      -5.182   1.676 126.193  0.00  0.00    +0.277 C 
ENDBRANCH  23  29
ENDBRANCH   7  19
TORSDOF 6
ENDMDL
MODEL 9
REMARK VINA RESULT:      -7.2      6.092      8.555
REMARK  Name = NuBBE_82
REMARK  11 active torsions:
REMARK  status: ('A' for Active; 'I' for Inactive)
REMARK    1  A    between atoms: C_1  and  C_2
REMARK    2  A    between atoms: C_4  and  C_6
REMARK    3  A    between atoms: C_7  and  C_9
REMARK    4  A    between atoms: C_11  and  O_12
REMARK    5  A    between atoms: O_12  and  C_13
REMARK    6  A    between atoms: C_21  and  C_23
REMARK    7  A    between atoms: C_25  and  O_26
REMARK    8  A    between atoms: O_26  and  C_27
REMARK    9  A    between atoms: C_28  and  O_29
REMARK   10  A    between atoms: C_30  and  O_31
REMARK   11  A    between atoms: O_31  and  C_32
REMARK                            x       y       z     vdW  Elec       q    Type
REMARK                         _______ _______ _______ _____ _____    ______ ____
ROOT
ATOM      1  C   LIG A   1      -8.256  -0.736 131.284  0.00  0.00    +0.011 C 
ATOM      2  C   LIG A   1      -7.164  -1.101 130.295  0.00  0.00    +0.025 C 
ATOM      3  C   LIG A   1      -7.662  -1.882 129.085  0.00  0.00    +0.025 C 
ATOM      4  C   LIG A   1      -8.099  -3.306 129.407  0.00  0.00    +0.011 C 
ATOM      5  C   LIG A   1      -6.450  -1.807 128.144  0.00  0.00    +0.152 C 
ATOM      6  O   LIG A   1      -5.805  -0.543 128.438  0.00  0.00    -0.364 OA
ATOM      7  C   LIG A   1      -6.370   0.038 129.647  0.00  0.00    +0.152 C 
ENDROOT
BRANCH   5   8
ATOM      8  C   LIG A   1      -6.713  -1.903 126.640  0.00  0.00    -0.011 A 
ATOM      9  C   LIG A   1      -5.719  -2.320 125.722  0.00  0.00    +0.056 A 
ATOM     10  C   LIG A   1      -5.964  -2.437 124.348  0.00  0.00    +0.166 A 
ATOM     11  C   LIG A   1      -7.227  -2.090 123.899  0.00  0.00    +0.207 A 
ATOM     12  O   LIG A   1      -7.671  -2.095 122.617  0.00  0.00    -0.449 OA
ATOM     13  C   LIG A   1      -9.032  -1.629 122.784  0.00  0.00    +0.467 C 
ATOM     14  O   LIG A   1      -9.368  -1.346 124.143  0.00  0.00    -0.453 OA
ATOM     15  C   LIG A   1      -8.198  -1.658 124.776  0.00  0.00    +0.170 A 
ATOM     16  C   LIG A   1      -7.977  -1.555 126.134  0.00  0.00    +0.056 A 
BRANCH  10  17
ATOM     17  O   LIG A   1      -4.907  -2.853 123.597  0.00  0.00    -0.491 OA
ATOM     18  C   LIG A   1      -4.557  -4.228 123.713  0.00  0.00    +0.277 C 
ENDBRANCH  10  17
ENDBRANCH   5   8
BRANCH   7  19
ATOM     19  C   LIG A   1      -7.074   1.342 129.296  0.00  0.00    -0.011 A 
ATOM     20  C   LIG A   1      -7.207   2.381 130.240  0.00  0.00    +0.056 A 
ATOM     21  C   LIG A   1      -7.739   3.639 129.891  0.00  0.00    +0.165 A 
ATOM     22  C   LIG A   1      -8.119   3.857 128.564  0.00  0.00    +0.201 A 
ATOM     23  C   LIG A   1      -8.023   2.829 127.616  0.00  0.00    +0.165 A 
ATOM     24  C   LIG A   1      -7.524   1.584 127.993  0.00  0.00    +0.056 A 
BRANCH  21  25
ATOM     25  O   LIG A   1      -7.783   4.532 130.931  0.00  0.00    -0.491 OA
ATOM     26  C   LIG A   1      -9.008   4.644 131.651  0.00  0.00    +0.277 C 
ENDBRANCH  21  25
BRANCH  22  27
ATOM     27  O   LIG A   1      -8.539   5.084 128.114  0.00  0.00    -0.501 OA
ATOM     28  H   LIG A   1      -7.720   5.568 127.892  0.00  0.00    +0.292 HD
ENDBRANCH  22  27
BRANCH  23  29
ATOM     29  O   LIG A   1      -8.458   3.149 126.352  0.00  0.00    -0.491 OA
ATOM     30  C   LIG A   1      -8.397   2.091 125.400  0.00  0.00    +0.277 C 
ENDBRANCH  23  29
ENDBRANCH   7  19
TORSDOF 6
ENDMDL
