MODEL 1
REMARK VINA RESULT:      -7.7      0.000      0.000
REMARK  Name = NuBBE_2492
REMARK  7 active torsions:
REMARK  status: ('A' for Active; 'I' for Inactive)
REMARK    1  A    between atoms: C_2  and  C_3
REMARK    2  A    between atoms: C_3  and  C_4
REMARK    3  A    between atoms: C_8  and  C_9
REMARK    4  A    between atoms: C_14  and  C_15
REMARK    5  A    between atoms: C_14  and  C_16
REMARK    6  A    between atoms: C_19  and  O_21
REMARK    7  A    between atoms: C_22  and  O_23
REMARK                            x       y       z     vdW  Elec       q    Type
REMARK                         _______ _______ _______ _____ _____    ______ ____
ROOT
ATOM      1  C   LIG A   1      -6.253  -3.236 124.300  0.00  0.00    -0.012 C 
ATOM      2  C   LIG A   1      -7.631  -3.828 124.666  0.00  0.00    +0.015 C 
ATOM      3  C   LIG A   1      -6.369  -2.348 123.040  0.00  0.00    +0.011 C 
ATOM      4  C   LIG A   1      -7.092  -1.019 123.280  0.00  0.00    +0.008 C 
ATOM      5  C   LIG A   1      -6.409  -0.196 124.393  0.00  0.00    +0.030 C 
ATOM      6  C   LIG A   1      -6.991   1.272 124.587  0.00  0.00    -0.022 C 
ATOM      7  C   LIG A   1      -8.495   1.229 124.946  0.00  0.00    +0.012 C 
ATOM      8  C   LIG A   1      -6.826   2.067 123.264  0.00  0.00    +0.015 C 
ATOM      9  C   LIG A   1      -7.142   3.550 123.388  0.00  0.00    +0.075 C 
ATOM     10  C   LIG A   1      -6.345   4.209 124.485  0.00  0.00    +0.139 C 
ATOM     11  O   LIG A   1      -5.850   5.322 124.293  0.00  0.00    -0.297 OA
ATOM     12  C   LIG A   1      -6.303   3.524 125.863  0.00  0.00    +0.027 C 
ATOM     13  C   LIG A   1      -7.563   3.927 126.643  0.00  0.00    +0.019 C 
ATOM     14  C   LIG A   1      -5.090   4.112 126.632  0.00  0.00    +0.019 C 
ATOM     15  C   LIG A   1      -6.098   1.981 125.677  0.00  0.00    +0.011 C 
ATOM     16  C   LIG A   1      -6.101   1.185 126.998  0.00  0.00    +0.039 C 
ATOM     17  C   LIG A   1      -5.575  -0.239 126.801  0.00  0.00    +0.147 C 
ATOM     18  C   LIG A   1      -6.343  -1.020 125.707  0.00  0.00    +0.096 C 
ATOM     19  C   LIG A   1      -5.669  -2.394 125.467  0.00  0.00    +0.048 C 
ENDROOT
BRANCH   1  21
ATOM     20  C   LIG A   1      -4.079  -4.434 123.579  0.00  0.00    +0.004 C 
ATOM     21  C   LIG A   1      -5.371  -4.435 123.934  0.00  0.00    -0.028 C 
ENDBRANCH   1  21
BRANCH  17  22
ATOM     22  O   LIG A   1      -5.705  -0.944 128.044  0.00  0.00    -0.389 OA
ATOM     23  H   LIG A   1      -5.704  -0.279 128.756  0.00  0.00    +0.210 HD
ENDBRANCH  17  22
BRANCH  18  24
ATOM     24  O   LIG A   1      -7.661  -1.265 126.212  0.00  0.00    -0.386 OA
ATOM     25  H   LIG A   1      -8.072  -0.379 126.285  0.00  0.00    +0.210 HD
ENDBRANCH  18  24
TORSDOF 3
ENDMDL
MODEL 2
REMARK VINA RESULT:      -7.4      7.451      9.682
REMARK  Name = NuBBE_2492
REMARK  7 active torsions:
REMARK  status: ('A' for Active; 'I' for Inactive)
REMARK    1  A    between atoms: C_2  and  C_3
REMARK    2  A    between atoms: C_3  and  C_4
REMARK    3  A    between atoms: C_8  and  C_9
REMARK    4  A    between atoms: C_14  and  C_15
REMARK    5  A    between atoms: C_14  and  C_16
REMARK    6  A    between atoms: C_19  and  O_21
REMARK    7  A    between atoms: C_22  and  O_23
REMARK                            x       y       z     vdW  Elec       q    Type
REMARK                         _______ _______ _______ _____ _____    ______ ____
ROOT
ATOM      1  C   LIG A   1     -11.788   7.146 129.118  0.00  0.00    -0.012 C 
ATOM      2  C   LIG A   1     -12.699   7.716 130.225  0.00  0.00    +0.015 C 
ATOM      3  C   LIG A   1     -10.436   7.894 129.098  0.00  0.00    +0.011 C 
ATOM      4  C   LIG A   1      -9.524   7.563 130.284  0.00  0.00    +0.008 C 
ATOM      5  C   LIG A   1      -9.241   6.049 130.375  0.00  0.00    +0.030 C 
ATOM      6  C   LIG A   1      -8.165   5.639 131.473  0.00  0.00    -0.022 C 
ATOM      7  C   LIG A   1      -8.620   6.078 132.886  0.00  0.00    +0.012 C 
ATOM      8  C   LIG A   1      -6.816   6.339 131.155  0.00  0.00    +0.015 C 
ATOM      9  C   LIG A   1      -5.650   5.855 132.004  0.00  0.00    +0.075 C 
ATOM     10  C   LIG A   1      -5.482   4.358 131.932  0.00  0.00    +0.139 C 
ATOM     11  O   LIG A   1      -4.350   3.877 131.836  0.00  0.00    -0.297 OA
ATOM     12  C   LIG A   1      -6.729   3.477 132.131  0.00  0.00    +0.027 C 
ATOM     13  C   LIG A   1      -6.962   3.300 133.638  0.00  0.00    +0.019 C 
ATOM     14  C   LIG A   1      -6.394   2.073 131.559  0.00  0.00    +0.019 C 
ATOM     15  C   LIG A   1      -7.934   4.086 131.335  0.00  0.00    +0.011 C 
ATOM     16  C   LIG A   1      -9.256   3.311 131.512  0.00  0.00    +0.039 C 
ATOM     17  C   LIG A   1     -10.301   3.734 130.477  0.00  0.00    +0.147 C 
ATOM     18  C   LIG A   1     -10.573   5.258 130.481  0.00  0.00    +0.096 C 
ATOM     19  C   LIG A   1     -11.530   5.628 129.320  0.00  0.00    +0.048 C 
ENDROOT
BRANCH   1  21
ATOM     20  C   LIG A   1     -12.107   7.149 126.552  0.00  0.00    +0.004 C 
ATOM     21  C   LIG A   1     -12.501   7.455 127.796  0.00  0.00    -0.028 C 
ENDBRANCH   1  21
BRANCH  17  22
ATOM     22  O   LIG A   1     -11.528   3.050 130.770  0.00  0.00    -0.389 OA
ATOM     23  H   LIG A   1     -11.665   2.387 130.069  0.00  0.00    +0.210 HD
ENDBRANCH  17  22
BRANCH  18  24
ATOM     24  O   LIG A   1     -11.241   5.563 131.710  0.00  0.00    -0.386 OA
ATOM     25  H   LIG A   1     -11.313   6.540 131.723  0.00  0.00    +0.210 HD
ENDBRANCH  18  24
TORSDOF 3
ENDMDL
MODEL 3
REMARK VINA RESULT:      -7.4      6.613      9.809
REMARK  Name = NuBBE_2492
REMARK  7 active torsions:
REMARK  status: ('A' for Active; 'I' for Inactive)
REMARK    1  A    between atoms: C_2  and  C_3
REMARK    2  A    between atoms: C_3  and  C_4
REMARK    3  A    between atoms: C_8  and  C_9
REMARK    4  A    between atoms: C_14  and  C_15
REMARK    5  A    between atoms: C_14  and  C_16
REMARK    6  A    between atoms: C_19  and  O_21
REMARK    7  A    between atoms: C_22  and  O_23
REMARK                            x       y       z     vdW  Elec       q    Type
REMARK                         _______ _______ _______ _____ _____    ______ ____
ROOT
ATOM      1  C   LIG A   1     -11.421   7.072 129.829  0.00  0.00    -0.012 C 
ATOM      2  C   LIG A   1     -11.340   7.072 128.288  0.00  0.00    +0.015 C 
ATOM      3  C   LIG A   1     -12.078   5.766 130.331  0.00  0.00    +0.011 C 
ATOM      4  C   LIG A   1     -11.189   4.527 130.186  0.00  0.00    +0.008 C 
ATOM      5  C   LIG A   1      -9.843   4.707 130.918  0.00  0.00    +0.030 C 
ATOM      6  C   LIG A   1      -8.931   3.404 130.964  0.00  0.00    -0.022 C 
ATOM      7  C   LIG A   1      -8.582   2.921 129.536  0.00  0.00    +0.012 C 
ATOM      8  C   LIG A   1      -9.699   2.267 131.691  0.00  0.00    +0.015 C 
ATOM      9  C   LIG A   1      -8.852   1.040 131.993  0.00  0.00    +0.075 C 
ATOM     10  C   LIG A   1      -7.604   1.390 132.764  0.00  0.00    +0.139 C 
ATOM     11  O   LIG A   1      -7.244   0.671 133.698  0.00  0.00    -0.297 OA
ATOM     12  C   LIG A   1      -6.742   2.560 132.256  0.00  0.00    +0.027 C 
ATOM     13  C   LIG A   1      -5.817   2.035 131.148  0.00  0.00    +0.019 C 
ATOM     14  C   LIG A   1      -5.831   3.003 133.432  0.00  0.00    +0.019 C 
ATOM     15  C   LIG A   1      -7.669   3.755 131.842  0.00  0.00    +0.011 C 
ATOM     16  C   LIG A   1      -6.909   4.964 131.260  0.00  0.00    +0.039 C 
ATOM     17  C   LIG A   1      -7.799   6.207 131.184  0.00  0.00    +0.147 C 
ATOM     18  C   LIG A   1      -9.105   5.965 130.388  0.00  0.00    +0.096 C 
ATOM     19  C   LIG A   1     -10.015   7.217 130.472  0.00  0.00    +0.048 C 
ENDROOT
BRANCH   1  21
ATOM     20  C   LIG A   1     -12.786   9.226 129.410  0.00  0.00    +0.004 C 
ATOM     21  C   LIG A   1     -12.362   8.226 130.194  0.00  0.00    -0.028 C 
ENDBRANCH   1  21
BRANCH  17  22
ATOM     22  O   LIG A   1      -7.058   7.254 130.541  0.00  0.00    -0.389 OA
ATOM     23  H   LIG A   1      -6.884   7.940 131.210  0.00  0.00    +0.210 HD
ENDBRANCH  17  22
BRANCH  18  24
ATOM     24  O   LIG A   1      -8.735   5.789 129.015  0.00  0.00    -0.386 OA
ATOM     25  H   LIG A   1      -8.184   6.569 128.800  0.00  0.00    +0.210 HD
ENDBRANCH  18  24
TORSDOF 3
ENDMDL
MODEL 4
REMARK VINA RESULT:      -7.1      3.500      5.833
REMARK  Name = NuBBE_2492
REMARK  7 active torsions:
REMARK  status: ('A' for Active; 'I' for Inactive)
REMARK    1  A    between atoms: C_2  and  C_3
REMARK    2  A    between atoms: C_3  and  C_4
REMARK    3  A    between atoms: C_8  and  C_9
REMARK    4  A    between atoms: C_14  and  C_15
REMARK    5  A    between atoms: C_14  and  C_16
REMARK    6  A    between atoms: C_19  and  O_21
REMARK    7  A    between atoms: C_22  and  O_23
REMARK                            x       y       z     vdW  Elec       q    Type
REMARK                         _______ _______ _______ _____ _____    ______ ____
ROOT
ATOM      1  C   LIG A   1      -8.110  -2.692 125.153  0.00  0.00    -0.012 C 
ATOM      2  C   LIG A   1      -7.155  -3.796 124.652  0.00  0.00    +0.015 C 
ATOM      3  C   LIG A   1      -8.974  -3.221 126.319  0.00  0.00    +0.011 C 
ATOM      4  C   LIG A   1      -8.202  -3.414 127.628  0.00  0.00    +0.008 C 
ATOM      5  C   LIG A   1      -7.521  -2.106 128.082  0.00  0.00    +0.030 C 
ATOM      6  C   LIG A   1      -6.843  -2.173 129.519  0.00  0.00    -0.022 C 
ATOM      7  C   LIG A   1      -5.748  -3.266 129.565  0.00  0.00    +0.012 C 
ATOM      8  C   LIG A   1      -7.923  -2.518 130.580  0.00  0.00    +0.015 C 
ATOM      9  C   LIG A   1      -7.443  -2.394 132.019  0.00  0.00    +0.075 C 
ATOM     10  C   LIG A   1      -6.858  -1.034 132.304  0.00  0.00    +0.139 C 
ATOM     11  O   LIG A   1      -7.126  -0.468 133.367  0.00  0.00    -0.297 OA
ATOM     12  C   LIG A   1      -5.827  -0.464 131.314  0.00  0.00    +0.027 C 
ATOM     13  C   LIG A   1      -4.449  -1.044 131.663  0.00  0.00    +0.019 C 
ATOM     14  C   LIG A   1      -5.749   1.066 131.562  0.00  0.00    +0.019 C 
ATOM     15  C   LIG A   1      -6.309  -0.726 129.845  0.00  0.00    +0.011 C 
ATOM     16  C   LIG A   1      -5.316  -0.246 128.766  0.00  0.00    +0.039 C 
ATOM     17  C   LIG A   1      -5.962  -0.216 127.379  0.00  0.00    +0.147 C 
ATOM     18  C   LIG A   1      -6.575  -1.578 126.970  0.00  0.00    +0.096 C 
ATOM     19  C   LIG A   1      -7.329  -1.435 125.624  0.00  0.00    +0.048 C 
ENDROOT
BRANCH   1  21
ATOM     20  C   LIG A   1      -9.704  -3.276 123.203  0.00  0.00    +0.004 C 
ATOM     21  C   LIG A   1      -9.053  -2.399 123.981  0.00  0.00    -0.028 C 
ENDBRANCH   1  21
BRANCH  17  22
ATOM     22  O   LIG A   1      -4.954   0.138 126.420  0.00  0.00    -0.389 OA
ATOM     23  H   LIG A   1      -4.879   1.109 126.424  0.00  0.00    +0.210 HD
ENDBRANCH  17  22
BRANCH  18  24
ATOM     24  O   LIG A   1      -5.487  -2.486 126.765  0.00  0.00    -0.386 OA
ATOM     25  H   LIG A   1      -4.780  -2.172 127.367  0.00  0.00    +0.210 HD
ENDBRANCH  18  24
TORSDOF 3
ENDMDL
MODEL 5
REMARK VINA RESULT:      -7.1      3.027      6.126
REMARK  Name = NuBBE_2492
REMARK  7 active torsions:
REMARK  status: ('A' for Active; 'I' for Inactive)
REMARK    1  A    between atoms: C_2  and  C_3
REMARK    2  A    between atoms: C_3  and  C_4
REMARK    3  A    between atoms: C_8  and  C_9
REMARK    4  A    between atoms: C_14  and  C_15
REMARK    5  A    between atoms: C_14  and  C_16
REMARK    6  A    between atoms: C_19  and  O_21
REMARK    7  A    between atoms: C_22  and  O_23
REMARK                            x       y       z     vdW  Elec       q    Type
REMARK                         _______ _______ _______ _____ _____    ______ ____
ROOT
ATOM      1  C   LIG A   1      -7.783   0.751 130.526  0.00  0.00    -0.012 C 
ATOM      2  C   LIG A   1      -6.292   1.075 130.758  0.00  0.00    +0.015 C 
ATOM      3  C   LIG A   1      -8.399   1.751 129.522  0.00  0.00    +0.011 C 
ATOM      4  C   LIG A   1      -7.932   1.549 128.077  0.00  0.00    +0.008 C 
ATOM      5  C   LIG A   1      -8.228   0.118 127.581  0.00  0.00    +0.030 C 
ATOM      6  C   LIG A   1      -7.933  -0.125 126.037  0.00  0.00    -0.022 C 
ATOM      7  C   LIG A   1      -6.446   0.145 125.707  0.00  0.00    +0.012 C 
ATOM      8  C   LIG A   1      -8.806   0.842 125.191  0.00  0.00    +0.015 C 
ATOM      9  C   LIG A   1      -8.778   0.557 123.697  0.00  0.00    +0.075 C 
ATOM     10  C   LIG A   1      -9.148  -0.872 123.387  0.00  0.00    +0.139 C 
ATOM     11  O   LIG A   1      -9.894  -1.115 122.436  0.00  0.00    -0.297 OA
ATOM     12  C   LIG A   1      -8.457  -1.991 124.189  0.00  0.00    +0.027 C 
ATOM     13  C   LIG A   1      -7.097  -2.284 123.538  0.00  0.00    +0.019 C 
ATOM     14  C   LIG A   1      -9.320  -3.271 124.027  0.00  0.00    +0.019 C 
ATOM     15  C   LIG A   1      -8.401  -1.593 125.704  0.00  0.00    +0.011 C 
ATOM     16  C   LIG A   1      -7.673  -2.621 126.594  0.00  0.00    +0.039 C 
ATOM     17  C   LIG A   1      -7.929  -2.363 128.081  0.00  0.00    +0.147 C 
ATOM     18  C   LIG A   1      -7.558  -0.924 128.516  0.00  0.00    +0.096 C 
ATOM     19  C   LIG A   1      -7.974  -0.695 129.990  0.00  0.00    +0.048 C 
ENDROOT
BRANCH   1  21
ATOM     20  C   LIG A   1      -9.625   1.611 132.122  0.00  0.00    +0.004 C 
ATOM     21  C   LIG A   1      -8.470   0.977 131.878  0.00  0.00    -0.028 C 
ENDBRANCH   1  21
BRANCH  17  22
ATOM     22  O   LIG A   1      -7.141  -3.290 128.842  0.00  0.00    -0.389 OA
ATOM     23  H   LIG A   1      -7.171  -3.001 129.771  0.00  0.00    +0.210 HD
ENDBRANCH  17  22
BRANCH  18  24
ATOM     24  O   LIG A   1      -6.131  -0.818 128.445  0.00  0.00    -0.386 OA
ATOM     25  H   LIG A   1      -5.965   0.006 127.943  0.00  0.00    +0.210 HD
ENDBRANCH  18  24
TORSDOF 3
ENDMDL
MODEL 6
REMARK VINA RESULT:      -6.9      3.328      5.548
REMARK  Name = NuBBE_2492
REMARK  7 active torsions:
REMARK  status: ('A' for Active; 'I' for Inactive)
REMARK    1  A    between atoms: C_2  and  C_3
REMARK    2  A    between atoms: C_3  and  C_4
REMARK    3  A    between atoms: C_8  and  C_9
REMARK    4  A    between atoms: C_14  and  C_15
REMARK    5  A    between atoms: C_14  and  C_16
REMARK    6  A    between atoms: C_19  and  O_21
REMARK    7  A    between atoms: C_22  and  O_23
REMARK                            x       y       z     vdW  Elec       q    Type
REMARK                         _______ _______ _______ _____ _____    ______ ____
ROOT
ATOM      1  C   LIG A   1      -8.071  -1.719 124.423  0.00  0.00    -0.012 C 
ATOM      2  C   LIG A   1      -6.731  -1.350 123.753  0.00  0.00    +0.015 C 
ATOM      3  C   LIG A   1      -7.874  -2.898 125.402  0.00  0.00    +0.011 C 
ATOM      4  C   LIG A   1      -7.117  -2.525 126.681  0.00  0.00    +0.008 C 
ATOM      5  C   LIG A   1      -7.816  -1.377 127.438  0.00  0.00    +0.030 C 
ATOM      6  C   LIG A   1      -7.192  -1.044 128.863  0.00  0.00    -0.022 C 
ATOM      7  C   LIG A   1      -5.706  -0.634 128.737  0.00  0.00    +0.012 C 
ATOM      8  C   LIG A   1      -7.277  -2.305 129.766  0.00  0.00    +0.015 C 
ATOM      9  C   LIG A   1      -6.915  -2.051 131.222  0.00  0.00    +0.075 C 
ATOM     10  C   LIG A   1      -7.733  -0.935 131.821  0.00  0.00    +0.139 C 
ATOM     11  O   LIG A   1      -8.182  -1.055 132.964  0.00  0.00    -0.297 OA
ATOM     12  C   LIG A   1      -7.853   0.382 131.032  0.00  0.00    +0.027 C 
ATOM     13  C   LIG A   1      -6.613   1.237 131.326  0.00  0.00    +0.019 C 
ATOM     14  C   LIG A   1      -9.076   1.149 131.603  0.00  0.00    +0.019 C 
ATOM     15  C   LIG A   1      -8.103   0.065 129.517  0.00  0.00    +0.011 C 
ATOM     16  C   LIG A   1      -8.181   1.317 128.620  0.00  0.00    +0.039 C 
ATOM     17  C   LIG A   1      -8.747   0.987 127.238  0.00  0.00    +0.147 C 
ATOM     18  C   LIG A   1      -7.962  -0.136 126.517  0.00  0.00    +0.096 C 
ATOM     19  C   LIG A   1      -8.673  -0.511 125.192  0.00  0.00    +0.048 C 
ENDROOT
BRANCH   1  21
ATOM     20  C   LIG A   1      -9.710  -3.333 123.245  0.00  0.00    +0.004 C 
ATOM     21  C   LIG A   1      -8.978  -2.212 123.290  0.00  0.00    -0.028 C 
ENDBRANCH   1  21
BRANCH  17  22
ATOM     22  O   LIG A   1      -8.692   2.174 126.433  0.00  0.00    -0.389 OA
ATOM     23  H   LIG A   1      -9.564   2.281 126.013  0.00  0.00    +0.210 HD
ENDBRANCH  17  22
BRANCH  18  24
ATOM     24  O   LIG A   1      -6.675   0.397 126.184  0.00  0.00    -0.386 OA
ATOM     25  H   LIG A   1      -6.154   0.332 127.010  0.00  0.00    +0.210 HD
ENDBRANCH  18  24
TORSDOF 3
ENDMDL
MODEL 7
REMARK VINA RESULT:      -6.9      8.373     10.022
REMARK  Name = NuBBE_2492
REMARK  7 active torsions:
REMARK  status: ('A' for Active; 'I' for Inactive)
REMARK    1  A    between atoms: C_2  and  C_3
REMARK    2  A    between atoms: C_3  and  C_4
REMARK    3  A    between atoms: C_8  and  C_9
REMARK    4  A    between atoms: C_14  and  C_15
REMARK    5  A    between atoms: C_14  and  C_16
REMARK    6  A    between atoms: C_19  and  O_21
REMARK    7  A    between atoms: C_22  and  O_23
REMARK                            x       y       z     vdW  Elec       q    Type
REMARK                         _______ _______ _______ _____ _____    ______ ____
ROOT
ATOM      1  C   LIG A   1     -10.951   6.082 130.527  0.00  0.00    -0.012 C 
ATOM      2  C   LIG A   1     -11.849   6.663 131.640  0.00  0.00    +0.015 C 
ATOM      3  C   LIG A   1      -9.672   6.935 130.370  0.00  0.00    +0.011 C 
ATOM      4  C   LIG A   1      -8.674   6.778 131.522  0.00  0.00    +0.008 C 
ATOM      5  C   LIG A   1      -8.256   5.305 131.711  0.00  0.00    +0.030 C 
ATOM      6  C   LIG A   1      -7.093   5.075 132.772  0.00  0.00    -0.022 C 
ATOM      7  C   LIG A   1      -7.509   5.587 134.172  0.00  0.00    +0.012 C 
ATOM      8  C   LIG A   1      -5.828   5.856 132.322  0.00  0.00    +0.015 C 
ATOM      9  C   LIG A   1      -4.581   5.539 133.135  0.00  0.00    +0.075 C 
ATOM     10  C   LIG A   1      -4.288   4.060 133.167  0.00  0.00    +0.139 C 
ATOM     11  O   LIG A   1      -3.125   3.669 133.041  0.00  0.00    -0.297 OA
ATOM     12  C   LIG A   1      -5.441   3.098 133.506  0.00  0.00    +0.027 C 
ATOM     13  C   LIG A   1      -5.579   3.026 135.033  0.00  0.00    +0.019 C 
ATOM     14  C   LIG A   1      -5.016   1.686 133.023  0.00  0.00    +0.019 C 
ATOM     15  C   LIG A   1      -6.735   3.540 132.738  0.00  0.00    +0.011 C 
ATOM     16  C   LIG A   1      -7.974   2.676 133.052  0.00  0.00    +0.039 C 
ATOM     17  C   LIG A   1      -9.104   2.925 132.051  0.00  0.00    +0.147 C 
ATOM     18  C   LIG A   1      -9.506   4.418 131.955  0.00  0.00    +0.096 C 
ATOM     19  C   LIG A   1     -10.551   4.612 130.828  0.00  0.00    +0.048 C 
ENDROOT
BRANCH   1  21
ATOM     20  C   LIG A   1     -12.220   7.346 128.663  0.00  0.00    +0.004 C 
ATOM     21  C   LIG A   1     -11.757   6.224 129.230  0.00  0.00    -0.028 C 
ENDBRANCH   1  21
BRANCH  17  22
ATOM     22  O   LIG A   1     -10.250   2.168 132.466  0.00  0.00    -0.389 OA
ATOM     23  H   LIG A   1     -10.666   1.807 131.664  0.00  0.00    +0.210 HD
ENDBRANCH  17  22
BRANCH  18  24
ATOM     24  O   LIG A   1     -10.134   4.764 133.195  0.00  0.00    -0.386 OA
ATOM     25  H   LIG A   1     -10.959   4.237 133.217  0.00  0.00    +0.210 HD
ENDBRANCH  18  24
TORSDOF 3
ENDMDL
MODEL 8
REMARK VINA RESULT:      -6.8      6.458      9.802
REMARK  Name = NuBBE_2492
REMARK  7 active torsions:
REMARK  status: ('A' for Active; 'I' for Inactive)
REMARK    1  A    between atoms: C_2  and  C_3
REMARK    2  A    between atoms: C_3  and  C_4
REMARK    3  A    between atoms: C_8  and  C_9
REMARK    4  A    between atoms: C_14  and  C_15
REMARK    5  A    between atoms: C_14  and  C_16
REMARK    6  A    between atoms: C_19  and  O_21
REMARK    7  A    between atoms: C_22  and  O_23
REMARK                            x       y       z     vdW  Elec       q    Type
REMARK                         _______ _______ _______ _____ _____    ______ ____
ROOT
ATOM      1  C   LIG A   1      -2.818   6.636 131.761  0.00  0.00    -0.012 C 
ATOM      2  C   LIG A   1      -3.064   8.151 131.604  0.00  0.00    +0.015 C 
ATOM      3  C   LIG A   1      -3.413   6.132 133.095  0.00  0.00    +0.011 C 
ATOM      4  C   LIG A   1      -4.943   6.080 133.114  0.00  0.00    +0.008 C 
ATOM      5  C   LIG A   1      -5.494   5.199 131.973  0.00  0.00    +0.030 C 
ATOM      6  C   LIG A   1      -7.064   4.951 132.023  0.00  0.00    -0.022 C 
ATOM      7  C   LIG A   1      -7.840   6.288 131.946  0.00  0.00    +0.012 C 
ATOM      8  C   LIG A   1      -7.430   4.250 133.359  0.00  0.00    +0.015 C 
ATOM      9  C   LIG A   1      -8.869   3.761 133.430  0.00  0.00    +0.075 C 
ATOM     10  C   LIG A   1      -9.221   2.866 132.268  0.00  0.00    +0.139 C 
ATOM     11  O   LIG A   1      -9.886   1.847 132.465  0.00  0.00    -0.297 OA
ATOM     12  C   LIG A   1      -8.856   3.341 130.850  0.00  0.00    +0.027 C 
ATOM     13  C   LIG A   1      -9.961   4.286 130.357  0.00  0.00    +0.019 C 
ATOM     14  C   LIG A   1      -8.883   2.094 129.927  0.00  0.00    +0.019 C 
ATOM     15  C   LIG A   1      -7.410   3.949 130.856  0.00  0.00    +0.011 C 
ATOM     16  C   LIG A   1      -6.963   4.513 129.491  0.00  0.00    +0.039 C 
ATOM     17  C   LIG A   1      -5.457   4.784 129.458  0.00  0.00    +0.147 C 
ATOM     18  C   LIG A   1      -4.988   5.718 130.600  0.00  0.00    +0.096 C 
ATOM     19  C   LIG A   1      -3.443   5.834 130.587  0.00  0.00    +0.048 C 
ENDROOT
BRANCH   1  21
ATOM     20  C   LIG A   1      -0.438   7.119 132.646  0.00  0.00    +0.004 C 
ATOM     21  C   LIG A   1      -1.296   6.471 131.847  0.00  0.00    -0.028 C 
ENDBRANCH   1  21
BRANCH  17  22
ATOM     22  O   LIG A   1      -5.137   5.399 128.202  0.00  0.00    -0.389 OA
ATOM     23  H   LIG A   1      -5.893   5.252 127.606  0.00  0.00    +0.210 HD
ENDBRANCH  17  22
BRANCH  18  24
ATOM     24  O   LIG A   1      -5.523   7.018 130.327  0.00  0.00    -0.386 OA
ATOM     25  H   LIG A   1      -5.537   7.086 129.350  0.00  0.00    +0.210 HD
ENDBRANCH  18  24
TORSDOF 3
ENDMDL
MODEL 9
REMARK VINA RESULT:      -6.7      2.264      6.788
REMARK  Name = NuBBE_2492
REMARK  7 active torsions:
REMARK  status: ('A' for Active; 'I' for Inactive)
REMARK    1  A    between atoms: C_2  and  C_3
REMARK    2  A    between atoms: C_3  and  C_4
REMARK    3  A    between atoms: C_8  and  C_9
REMARK    4  A    between atoms: C_14  and  C_15
REMARK    5  A    between atoms: C_14  and  C_16
REMARK    6  A    between atoms: C_19  and  O_21
REMARK    7  A    between atoms: C_22  and  O_23
REMARK                            x       y       z     vdW  Elec       q    Type
REMARK                         _______ _______ _______ _____ _____    ______ ____
ROOT
ATOM      1  C   LIG A   1      -3.630   5.192 128.404  0.00  0.00    -0.012 C 
ATOM      2  C   LIG A   1      -4.573   5.638 129.542  0.00  0.00    +0.015 C 
ATOM      3  C   LIG A   1      -3.241   3.708 128.582  0.00  0.00    +0.011 C 
ATOM      4  C   LIG A   1      -4.378   2.726 128.283  0.00  0.00    +0.008 C 
ATOM      5  C   LIG A   1      -4.929   2.916 126.854  0.00  0.00    +0.030 C 
ATOM      6  C   LIG A   1      -5.994   1.825 126.402  0.00  0.00    -0.022 C 
ATOM      7  C   LIG A   1      -7.224   1.826 127.341  0.00  0.00    +0.012 C 
ATOM      8  C   LIG A   1      -5.340   0.418 126.456  0.00  0.00    +0.015 C 
ATOM      9  C   LIG A   1      -6.186  -0.685 125.836  0.00  0.00    +0.075 C 
ATOM     10  C   LIG A   1      -6.589  -0.360 124.420  0.00  0.00    +0.139 C 
ATOM     11  O   LIG A   1      -6.548  -1.242 123.558  0.00  0.00    -0.297 OA
ATOM     12  C   LIG A   1      -7.180   1.032 124.134  0.00  0.00    +0.027 C 
ATOM     13  C   LIG A   1      -8.678   1.001 124.471  0.00  0.00    +0.019 C 
ATOM     14  C   LIG A   1      -7.066   1.274 122.605  0.00  0.00    +0.019 C 
ATOM     15  C   LIG A   1      -6.347   2.122 124.894  0.00  0.00    +0.011 C 
ATOM     16  C   LIG A   1      -6.890   3.556 124.725  0.00  0.00    +0.039 C 
ATOM     17  C   LIG A   1      -5.878   4.602 125.195  0.00  0.00    +0.147 C 
ATOM     18  C   LIG A   1      -5.412   4.378 126.654  0.00  0.00    +0.096 C 
ATOM     19  C   LIG A   1      -4.290   5.385 127.011  0.00  0.00    +0.048 C 
ENDROOT
BRANCH   1  21
ATOM     20  C   LIG A   1      -1.844   6.534 129.706  0.00  0.00    +0.004 C 
ATOM     21  C   LIG A   1      -2.354   6.024 128.576  0.00  0.00    -0.028 C 
ENDBRANCH   1  21
BRANCH  17  22
ATOM     22  O   LIG A   1      -6.491   5.896 125.103  0.00  0.00    -0.389 OA
ATOM     23  H   LIG A   1      -7.448   5.756 124.987  0.00  0.00    +0.210 HD
ENDBRANCH  17  22
BRANCH  18  24
ATOM     24  O   LIG A   1      -6.532   4.658 127.501  0.00  0.00    -0.386 OA
ATOM     25  H   LIG A   1      -7.242   4.951 126.893  0.00  0.00    +0.210 HD
ENDBRANCH  18  24
TORSDOF 3
ENDMDL
