MODEL 1
REMARK VINA RESULT:      -7.8      0.000      0.000
REMARK  Name = NuBBE_2328
REMARK  14 active torsions:
REMARK  status: ('A' for Active; 'I' for Inactive)
REMARK    1  A    between atoms: C_1  and  O_2
REMARK    2  A    between atoms: O_2  and  C_3
REMARK    3  A    between atoms: C_6  and  O_7
REMARK    4  A    between atoms: C_10  and  O_11
REMARK    5  A    between atoms: O_11  and  C_12
REMARK    6  A    between atoms: C_13  and  C_15
REMARK    7  A    between atoms: C_18  and  O_23
REMARK    8  A    between atoms: C_19  and  O_20
REMARK    9  A    between atoms: O_20  and  C_21
REMARK   10  A    between atoms: C_25  and  O_26
REMARK   11  A    between atoms: O_26  and  C_27
REMARK   12  A    between atoms: C_27  and  C_28
REMARK   13  A    between atoms: C_29  and  C_30
REMARK   14  A    between atoms: C_29  and  C_31
REMARK                            x       y       z     vdW  Elec       q    Type
REMARK                         _______ _______ _______ _____ _____    ______ ____
ROOT
ATOM      1  C   LIG A   1      -8.412   1.834 128.519  0.00  0.00    +0.205 A 
ATOM      2  C   LIG A   1      -8.779   2.567 129.680  0.00  0.00    +0.188 A 
ATOM      3  C   LIG A   1      -8.383   2.103 130.944  0.00  0.00    +0.113 A 
ATOM      4  C   LIG A   1      -7.597   0.951 131.048  0.00  0.00    +0.135 A 
ATOM      5  C   LIG A   1      -7.218   0.250 129.922  0.00  0.00    +0.095 A 
ATOM      6  C   LIG A   1      -8.787   2.853 132.145  0.00  0.00    +0.238 A 
ATOM      7  C   LIG A   1      -9.464   4.154 131.954  0.00  0.00    +0.211 A 
ATOM      8  C   LIG A   1      -9.818   4.451 130.678  0.00  0.00    +0.181 A 
ATOM      9  O   LIG A   1      -9.543   3.705 129.554  0.00  0.00    -0.447 OA
ATOM     10  O   LIG A   1      -8.545   2.389 133.248  0.00  0.00    -0.283 OA
ATOM     11  C   LIG A   1      -7.640   0.654 128.647  0.00  0.00    +0.170 A 
ENDROOT
BRANCH   8  12
ATOM     12  C   LIG A   1     -10.580   5.706 130.390  0.00  0.00    +0.025 A 
ATOM     13  C   LIG A   1     -11.658   6.088 131.197  0.00  0.00    +0.015 A 
ATOM     14  C   LIG A   1     -12.378   7.252 130.913  0.00  0.00    +0.050 A 
ATOM     15  C   LIG A   1     -12.037   8.045 129.811  0.00  0.00    +0.159 A 
ATOM     16  C   LIG A   1     -10.972   7.677 128.983  0.00  0.00    +0.162 A 
ATOM     17  C   LIG A   1     -10.244   6.514 129.289  0.00  0.00    +0.061 A 
BRANCH  16  18
ATOM     18  O   LIG A   1     -10.492   8.363 127.898  0.00  0.00    -0.491 OA
ATOM     19  C   LIG A   1     -10.901   7.911 126.611  0.00  0.00    +0.277 C 
ENDBRANCH  16  18
BRANCH  15  20
ATOM     20  O   LIG A   1     -12.749   9.189 129.589  0.00  0.00    -0.503 OA
ATOM     21  H   LIG A   1     -12.625   9.795 130.336  0.00  0.00    +0.292 HD
ENDBRANCH  15  20
ENDBRANCH   8  12
BRANCH   1  23
ATOM     22  C   LIG A   1      -7.842   3.155 126.589  0.00  0.00    +0.277 C 
ATOM     23  O   LIG A   1      -8.803   2.401 127.326  0.00  0.00    -0.488 OA
ENDBRANCH   1  23
BRANCH   4  24
ATOM     24  O   LIG A   1      -7.148   0.473 132.251  0.00  0.00    -0.506 OA
ATOM     25  H   LIG A   1      -6.449  -0.194 132.081  0.00  0.00    +0.292 HD
ENDBRANCH   4  24
BRANCH   7  26
ATOM     26  O   LIG A   1      -9.768   5.010 133.004  0.00  0.00    -0.488 OA
ATOM     27  C   LIG A   1      -8.682   5.833 133.457  0.00  0.00    +0.277 C 
ENDBRANCH   7  26
BRANCH  11  28
ATOM     28  O   LIG A   1      -7.255  -0.032 127.522  0.00  0.00    -0.484 OA
BRANCH  28  29
ATOM     29  C   LIG A   1      -6.601  -1.287 127.719  0.00  0.00    +0.257 C 
BRANCH  29  30
ATOM     30  C   LIG A   1      -7.581  -2.406 127.486  0.00  0.00    +0.012 C 
ATOM     31  C   LIG A   1      -8.163  -3.234 128.378  0.00  0.00    -0.076 C 
ATOM     32  C   LIG A   1      -7.837  -3.310 129.843  0.00  0.00    +0.038 C 
ATOM     33  C   LIG A   1      -9.243  -4.197 127.949  0.00  0.00    +0.038 C 
ENDBRANCH  29  30
ENDBRANCH  28  29
ENDBRANCH  11  28
TORSDOF 9
ENDMDL
MODEL 2
REMARK VINA RESULT:      -7.6      5.260      9.520
REMARK  Name = NuBBE_2328
REMARK  14 active torsions:
REMARK  status: ('A' for Active; 'I' for Inactive)
REMARK    1  A    between atoms: C_1  and  O_2
REMARK    2  A    between atoms: O_2  and  C_3
REMARK    3  A    between atoms: C_6  and  O_7
REMARK    4  A    between atoms: C_10  and  O_11
REMARK    5  A    between atoms: O_11  and  C_12
REMARK    6  A    between atoms: C_13  and  C_15
REMARK    7  A    between atoms: C_18  and  O_23
REMARK    8  A    between atoms: C_19  and  O_20
REMARK    9  A    between atoms: O_20  and  C_21
REMARK   10  A    between atoms: C_25  and  O_26
REMARK   11  A    between atoms: O_26  and  C_27
REMARK   12  A    between atoms: C_27  and  C_28
REMARK   13  A    between atoms: C_29  and  C_30
REMARK   14  A    between atoms: C_29  and  C_31
REMARK                            x       y       z     vdW  Elec       q    Type
REMARK                         _______ _______ _______ _____ _____    ______ ____
ROOT
ATOM      1  C   LIG A   1      -7.273   1.534 124.894  0.00  0.00    +0.205 A 
ATOM      2  C   LIG A   1      -7.562   0.236 125.396  0.00  0.00    +0.188 A 
ATOM      3  C   LIG A   1      -8.525  -0.556 124.753  0.00  0.00    +0.113 A 
ATOM      4  C   LIG A   1      -9.161  -0.081 123.601  0.00  0.00    +0.135 A 
ATOM      5  C   LIG A   1      -8.865   1.169 123.096  0.00  0.00    +0.095 A 
ATOM      6  C   LIG A   1      -8.838  -1.889 125.292  0.00  0.00    +0.238 A 
ATOM      7  C   LIG A   1      -8.005  -2.399 126.404  0.00  0.00    +0.211 A 
ATOM      8  C   LIG A   1      -7.142  -1.506 126.950  0.00  0.00    +0.181 A 
ATOM      9  O   LIG A   1      -6.916  -0.216 126.525  0.00  0.00    -0.447 OA
ATOM     10  O   LIG A   1      -9.756  -2.530 124.806  0.00  0.00    -0.283 OA
ATOM     11  C   LIG A   1      -7.948   2.009 123.743  0.00  0.00    +0.170 A 
ENDROOT
BRANCH   8  12
ATOM     12  C   LIG A   1      -6.313  -1.899 128.131  0.00  0.00    +0.025 A 
ATOM     13  C   LIG A   1      -5.058  -2.493 127.958  0.00  0.00    +0.015 A 
ATOM     14  C   LIG A   1      -4.295  -2.877 129.065  0.00  0.00    +0.050 A 
ATOM     15  C   LIG A   1      -4.783  -2.681 130.362  0.00  0.00    +0.159 A 
ATOM     16  C   LIG A   1      -6.040  -2.101 130.561  0.00  0.00    +0.162 A 
ATOM     17  C   LIG A   1      -6.789  -1.704 129.440  0.00  0.00    +0.061 A 
BRANCH  16  18
ATOM     18  O   LIG A   1      -6.635  -1.808 131.761  0.00  0.00    -0.491 OA
ATOM     19  C   LIG A   1      -7.385  -2.846 132.384  0.00  0.00    +0.277 C 
ENDBRANCH  16  18
BRANCH  15  20
ATOM     20  O   LIG A   1      -3.991  -3.043 131.415  0.00  0.00    -0.503 OA
ATOM     21  H   LIG A   1      -3.883  -4.008 131.418  0.00  0.00    +0.292 HD
ENDBRANCH  15  20
ENDBRANCH   8  12
BRANCH   1  23
ATOM     22  C   LIG A   1      -6.651   3.214 126.501  0.00  0.00    +0.277 C 
ATOM     23  O   LIG A   1      -6.276   2.208 125.563  0.00  0.00    -0.488 OA
ENDBRANCH   1  23
BRANCH   4  24
ATOM     24  O   LIG A   1     -10.080  -0.824 122.909  0.00  0.00    -0.506 OA
ATOM     25  H   LIG A   1      -9.957  -0.658 121.950  0.00  0.00    +0.292 HD
ENDBRANCH   4  24
BRANCH   7  26
ATOM     26  O   LIG A   1      -8.116  -3.690 126.902  0.00  0.00    -0.488 OA
ATOM     27  C   LIG A   1      -9.183  -3.895 127.840  0.00  0.00    +0.277 C 
ENDBRANCH   7  26
BRANCH  11  28
ATOM     28  O   LIG A   1      -7.641   3.246 123.237  0.00  0.00    -0.484 OA
BRANCH  28  29
ATOM     29  C   LIG A   1      -6.604   3.309 122.255  0.00  0.00    +0.257 C 
BRANCH  29  30
ATOM     30  C   LIG A   1      -7.197   3.675 120.920  0.00  0.00    +0.012 C 
ATOM     31  C   LIG A   1      -6.651   4.376 119.905  0.00  0.00    -0.076 C 
ATOM     32  C   LIG A   1      -5.331   5.092 119.947  0.00  0.00    +0.038 C 
ATOM     33  C   LIG A   1      -7.365   4.502 118.582  0.00  0.00    +0.038 C 
ENDBRANCH  29  30
ENDBRANCH  28  29
ENDBRANCH  11  28
TORSDOF 9
ENDMDL
MODEL 3
REMARK VINA RESULT:      -7.5      2.039      8.148
REMARK  Name = NuBBE_2328
REMARK  14 active torsions:
REMARK  status: ('A' for Active; 'I' for Inactive)
REMARK    1  A    between atoms: C_1  and  O_2
REMARK    2  A    between atoms: O_2  and  C_3
REMARK    3  A    between atoms: C_6  and  O_7
REMARK    4  A    between atoms: C_10  and  O_11
REMARK    5  A    between atoms: O_11  and  C_12
REMARK    6  A    between atoms: C_13  and  C_15
REMARK    7  A    between atoms: C_18  and  O_23
REMARK    8  A    between atoms: C_19  and  O_20
REMARK    9  A    between atoms: O_20  and  C_21
REMARK   10  A    between atoms: C_25  and  O_26
REMARK   11  A    between atoms: O_26  and  C_27
REMARK   12  A    between atoms: C_27  and  C_28
REMARK   13  A    between atoms: C_29  and  C_30
REMARK   14  A    between atoms: C_29  and  C_31
REMARK                            x       y       z     vdW  Elec       q    Type
REMARK                         _______ _______ _______ _____ _____    ______ ____
ROOT
ATOM      1  C   LIG A   1      -8.827   4.841 129.699  0.00  0.00    +0.205 A 
ATOM      2  C   LIG A   1      -8.425   3.962 130.740  0.00  0.00    +0.188 A 
ATOM      3  C   LIG A   1      -8.467   4.403 132.072  0.00  0.00    +0.113 A 
ATOM      4  C   LIG A   1      -8.941   5.684 132.367  0.00  0.00    +0.135 A 
ATOM      5  C   LIG A   1      -9.356   6.533 131.361  0.00  0.00    +0.095 A 
ATOM      6  C   LIG A   1      -8.026   3.495 133.144  0.00  0.00    +0.238 A 
ATOM      7  C   LIG A   1      -7.704   2.098 132.781  0.00  0.00    +0.211 A 
ATOM      8  C   LIG A   1      -7.668   1.830 131.451  0.00  0.00    +0.181 A 
ATOM      9  O   LIG A   1      -7.973   2.700 130.428  0.00  0.00    -0.447 OA
ATOM     10  O   LIG A   1      -7.949   3.916 134.288  0.00  0.00    -0.283 OA
ATOM     11  C   LIG A   1      -9.278   6.146 130.015  0.00  0.00    +0.170 A 
ENDROOT
BRANCH   8  12
ATOM     12  C   LIG A   1      -7.273   0.467 130.978  0.00  0.00    +0.025 A 
ATOM     13  C   LIG A   1      -8.237  -0.529 130.783  0.00  0.00    +0.015 A 
ATOM     14  C   LIG A   1      -7.862  -1.807 130.359  0.00  0.00    +0.050 A 
ATOM     15  C   LIG A   1      -6.514  -2.110 130.134  0.00  0.00    +0.159 A 
ATOM     16  C   LIG A   1      -5.531  -1.136 130.334  0.00  0.00    +0.162 A 
ATOM     17  C   LIG A   1      -5.923   0.150 130.744  0.00  0.00    +0.061 A 
BRANCH  16  18
ATOM     18  O   LIG A   1      -4.183  -1.265 130.120  0.00  0.00    -0.491 OA
ATOM     19  C   LIG A   1      -3.378  -1.609 131.242  0.00  0.00    +0.277 C 
ENDBRANCH  16  18
BRANCH  15  20
ATOM     20  O   LIG A   1      -6.196  -3.363 129.692  0.00  0.00    -0.503 OA
ATOM     21  H   LIG A   1      -6.113  -3.960 130.452  0.00  0.00    +0.292 HD
ENDBRANCH  15  20
ENDBRANCH   8  12
BRANCH   1  23
ATOM     22  C   LIG A   1      -7.599   4.406 127.675  0.00  0.00    +0.277 C 
ATOM     23  O   LIG A   1      -8.801   4.296 128.434  0.00  0.00    -0.488 OA
ENDBRANCH   1  23
BRANCH   4  24
ATOM     24  O   LIG A   1      -9.041   6.155 133.650  0.00  0.00    -0.506 OA
ATOM     25  H   LIG A   1      -9.984   6.124 133.921  0.00  0.00    +0.292 HD
ENDBRANCH   4  24
BRANCH   7  26
ATOM     26  O   LIG A   1      -7.411   1.120 133.721  0.00  0.00    -0.488 OA
ATOM     27  C   LIG A   1      -6.092   1.188 134.283  0.00  0.00    +0.277 C 
ENDBRANCH   7  26
BRANCH  11  28
ATOM     28  O   LIG A   1      -9.702   6.981 129.012  0.00  0.00    -0.484 OA
BRANCH  28  29
ATOM     29  C   LIG A   1     -11.054   6.836 128.572  0.00  0.00    +0.257 C 
BRANCH  29  30
ATOM     30  C   LIG A   1     -11.800   8.122 128.811  0.00  0.00    +0.012 C 
ATOM     31  C   LIG A   1     -12.536   8.499 129.878  0.00  0.00    -0.076 C 
ATOM     32  C   LIG A   1     -12.899   7.623 131.043  0.00  0.00    +0.038 C 
ATOM     33  C   LIG A   1     -13.080   9.902 129.983  0.00  0.00    +0.038 C 
ENDBRANCH  29  30
ENDBRANCH  28  29
ENDBRANCH  11  28
TORSDOF 9
ENDMDL
MODEL 4
REMARK VINA RESULT:      -7.5      1.350      1.807
REMARK  Name = NuBBE_2328
REMARK  14 active torsions:
REMARK  status: ('A' for Active; 'I' for Inactive)
REMARK    1  A    between atoms: C_1  and  O_2
REMARK    2  A    between atoms: O_2  and  C_3
REMARK    3  A    between atoms: C_6  and  O_7
REMARK    4  A    between atoms: C_10  and  O_11
REMARK    5  A    between atoms: O_11  and  C_12
REMARK    6  A    between atoms: C_13  and  C_15
REMARK    7  A    between atoms: C_18  and  O_23
REMARK    8  A    between atoms: C_19  and  O_20
REMARK    9  A    between atoms: O_20  and  C_21
REMARK   10  A    between atoms: C_25  and  O_26
REMARK   11  A    between atoms: O_26  and  C_27
REMARK   12  A    between atoms: C_27  and  C_28
REMARK   13  A    between atoms: C_29  and  C_30
REMARK   14  A    between atoms: C_29  and  C_31
REMARK                            x       y       z     vdW  Elec       q    Type
REMARK                         _______ _______ _______ _____ _____    ______ ____
ROOT
ATOM      1  C   LIG A   1      -8.461   1.582 128.544  0.00  0.00    +0.205 A 
ATOM      2  C   LIG A   1      -8.790   2.342 129.698  0.00  0.00    +0.188 A 
ATOM      3  C   LIG A   1      -8.395   1.885 130.964  0.00  0.00    +0.113 A 
ATOM      4  C   LIG A   1      -7.646   0.709 131.076  0.00  0.00    +0.135 A 
ATOM      5  C   LIG A   1      -7.303  -0.020 129.956  0.00  0.00    +0.095 A 
ATOM      6  C   LIG A   1      -8.760   2.665 132.158  0.00  0.00    +0.238 A 
ATOM      7  C   LIG A   1      -9.396   3.984 131.955  0.00  0.00    +0.211 A 
ATOM      8  C   LIG A   1      -9.756   4.274 130.678  0.00  0.00    +0.181 A 
ATOM      9  O   LIG A   1      -9.518   3.503 129.563  0.00  0.00    -0.447 OA
ATOM     10  O   LIG A   1      -8.520   2.209 133.265  0.00  0.00    -0.283 OA
ATOM     11  C   LIG A   1      -7.727   0.379 128.680  0.00  0.00    +0.170 A 
ENDROOT
BRANCH   8  12
ATOM     12  C   LIG A   1     -10.480   5.549 130.381  0.00  0.00    +0.025 A 
ATOM     13  C   LIG A   1     -11.558   5.960 131.172  0.00  0.00    +0.015 A 
ATOM     14  C   LIG A   1     -12.244   7.142 130.879  0.00  0.00    +0.050 A 
ATOM     15  C   LIG A   1     -11.866   7.926 129.782  0.00  0.00    +0.159 A 
ATOM     16  C   LIG A   1     -10.799   7.530 128.969  0.00  0.00    +0.162 A 
ATOM     17  C   LIG A   1     -10.107   6.347 129.285  0.00  0.00    +0.061 A 
BRANCH  16  18
ATOM     18  O   LIG A   1     -10.286   8.203 127.891  0.00  0.00    -0.491 OA
ATOM     19  C   LIG A   1     -10.824   7.886 126.612  0.00  0.00    +0.277 C 
ENDBRANCH  16  18
BRANCH  15  20
ATOM     20  O   LIG A   1     -12.544   9.089 129.550  0.00  0.00    -0.503 OA
ATOM     21  H   LIG A   1     -11.913   9.825 129.504  0.00  0.00    +0.292 HD
ENDBRANCH  15  20
ENDBRANCH   8  12
BRANCH   1  23
ATOM     22  C   LIG A   1      -7.887   2.904 126.616  0.00  0.00    +0.277 C 
ATOM     23  O   LIG A   1      -8.847   2.143 127.347  0.00  0.00    -0.488 OA
ENDBRANCH   1  23
BRANCH   4  24
ATOM     24  O   LIG A   1      -7.198   0.234 132.281  0.00  0.00    -0.506 OA
ATOM     25  H   LIG A   1      -6.607  -0.531 132.115  0.00  0.00    +0.292 HD
ENDBRANCH   4  24
BRANCH   7  26
ATOM     26  O   LIG A   1      -9.660   4.865 132.995  0.00  0.00    -0.488 OA
ATOM     27  C   LIG A   1      -8.542   5.656 133.426  0.00  0.00    +0.277 C 
ENDBRANCH   7  26
BRANCH  11  28
ATOM     28  O   LIG A   1      -7.377  -0.335 127.562  0.00  0.00    -0.484 OA
BRANCH  28  29
ATOM     29  C   LIG A   1      -6.016  -0.248 127.134  0.00  0.00    +0.257 C 
BRANCH  29  30
ATOM     30  C   LIG A   1      -5.676  -1.449 126.291  0.00  0.00    +0.012 C 
ATOM     31  C   LIG A   1      -5.854  -1.642 124.967  0.00  0.00    -0.076 C 
ATOM     32  C   LIG A   1      -6.588  -0.717 124.038  0.00  0.00    +0.038 C 
ATOM     33  C   LIG A   1      -5.300  -2.869 124.285  0.00  0.00    +0.038 C 
ENDBRANCH  29  30
ENDBRANCH  28  29
ENDBRANCH  11  28
TORSDOF 9
ENDMDL
MODEL 5
REMARK VINA RESULT:      -7.4      1.971      2.882
REMARK  Name = NuBBE_2328
REMARK  14 active torsions:
REMARK  status: ('A' for Active; 'I' for Inactive)
REMARK    1  A    between atoms: C_1  and  O_2
REMARK    2  A    between atoms: O_2  and  C_3
REMARK    3  A    between atoms: C_6  and  O_7
REMARK    4  A    between atoms: C_10  and  O_11
REMARK    5  A    between atoms: O_11  and  C_12
REMARK    6  A    between atoms: C_13  and  C_15
REMARK    7  A    between atoms: C_18  and  O_23
REMARK    8  A    between atoms: C_19  and  O_20
REMARK    9  A    between atoms: O_20  and  C_21
REMARK   10  A    between atoms: C_25  and  O_26
REMARK   11  A    between atoms: O_26  and  C_27
REMARK   12  A    between atoms: C_27  and  C_28
REMARK   13  A    between atoms: C_29  and  C_30
REMARK   14  A    between atoms: C_29  and  C_31
REMARK                            x       y       z     vdW  Elec       q    Type
REMARK                         _______ _______ _______ _____ _____    ______ ____
ROOT
ATOM      1  C   LIG A   1      -7.599   0.441 127.454  0.00  0.00    +0.205 A 
ATOM      2  C   LIG A   1      -8.068   0.810 128.743  0.00  0.00    +0.188 A 
ATOM      3  C   LIG A   1      -7.922  -0.085 129.814  0.00  0.00    +0.113 A 
ATOM      4  C   LIG A   1      -7.279  -1.310 129.615  0.00  0.00    +0.135 A 
ATOM      5  C   LIG A   1      -6.799  -1.663 128.370  0.00  0.00    +0.095 A 
ATOM      6  C   LIG A   1      -8.433   0.293 131.143  0.00  0.00    +0.238 A 
ATOM      7  C   LIG A   1      -8.940   1.671 131.323  0.00  0.00    +0.211 A 
ATOM      8  C   LIG A   1      -9.060   2.407 130.189  0.00  0.00    +0.181 A 
ATOM      9  O   LIG A   1      -8.687   2.027 128.920  0.00  0.00    -0.447 OA
ATOM     10  O   LIG A   1      -8.413  -0.529 132.046  0.00  0.00    -0.283 OA
ATOM     11  C   LIG A   1      -6.976  -0.817 127.265  0.00  0.00    +0.170 A 
ENDROOT
BRANCH   8  12
ATOM     12  C   LIG A   1      -9.640   3.784 130.255  0.00  0.00    +0.025 A 
ATOM     13  C   LIG A   1     -11.026   3.975 130.282  0.00  0.00    +0.015 A 
ATOM     14  C   LIG A   1     -11.564   5.265 130.323  0.00  0.00    +0.050 A 
ATOM     15  C   LIG A   1     -10.722   6.383 130.328  0.00  0.00    +0.159 A 
ATOM     16  C   LIG A   1      -9.334   6.218 130.289  0.00  0.00    +0.162 A 
ATOM     17  C   LIG A   1      -8.805   4.916 130.264  0.00  0.00    +0.061 A 
BRANCH  16  18
ATOM     18  O   LIG A   1      -8.382   7.204 130.328  0.00  0.00    -0.491 OA
ATOM     19  C   LIG A   1      -7.218   6.951 131.108  0.00  0.00    +0.277 C 
ENDBRANCH  16  18
BRANCH  15  20
ATOM     20  O   LIG A   1     -11.290   7.623 130.400  0.00  0.00    -0.503 OA
ATOM     21  H   LIG A   1     -10.727   8.203 130.938  0.00  0.00    +0.292 HD
ENDBRANCH  15  20
ENDBRANCH   8  12
BRANCH   1  23
ATOM     22  C   LIG A   1      -8.836   1.303 125.578  0.00  0.00    +0.277 C 
ATOM     23  O   LIG A   1      -7.740   1.409 126.484  0.00  0.00    -0.488 OA
ENDBRANCH   1  23
BRANCH   4  24
ATOM     24  O   LIG A   1      -7.073  -2.207 130.631  0.00  0.00    -0.506 OA
ATOM     25  H   LIG A   1      -7.510  -3.053 130.394  0.00  0.00    +0.292 HD
ENDBRANCH   4  24
BRANCH   7  26
ATOM     26  O   LIG A   1      -9.319   2.182 132.557  0.00  0.00    -0.488 OA
ATOM     27  C   LIG A   1      -8.250   2.719 133.351  0.00  0.00    +0.277 C 
ENDBRANCH   7  26
BRANCH  11  28
ATOM     28  O   LIG A   1      -6.489  -1.156 126.028  0.00  0.00    -0.484 OA
BRANCH  28  29
ATOM     29  C   LIG A   1      -6.386  -2.551 125.731  0.00  0.00    +0.257 C 
BRANCH  29  30
ATOM     30  C   LIG A   1      -7.355  -2.902 124.633  0.00  0.00    +0.012 C 
ATOM     31  C   LIG A   1      -8.694  -3.062 124.692  0.00  0.00    -0.076 C 
ATOM     32  C   LIG A   1      -9.521  -3.060 125.947  0.00  0.00    +0.038 C 
ATOM     33  C   LIG A   1      -9.504  -3.266 123.435  0.00  0.00    +0.038 C 
ENDBRANCH  29  30
ENDBRANCH  28  29
ENDBRANCH  11  28
TORSDOF 9
ENDMDL
MODEL 6
REMARK VINA RESULT:      -7.4      2.306      8.327
REMARK  Name = NuBBE_2328
REMARK  14 active torsions:
REMARK  status: ('A' for Active; 'I' for Inactive)
REMARK    1  A    between atoms: C_1  and  O_2
REMARK    2  A    between atoms: O_2  and  C_3
REMARK    3  A    between atoms: C_6  and  O_7
REMARK    4  A    between atoms: C_10  and  O_11
REMARK    5  A    between atoms: O_11  and  C_12
REMARK    6  A    between atoms: C_13  and  C_15
REMARK    7  A    between atoms: C_18  and  O_23
REMARK    8  A    between atoms: C_19  and  O_20
REMARK    9  A    between atoms: O_20  and  C_21
REMARK   10  A    between atoms: C_25  and  O_26
REMARK   11  A    between atoms: O_26  and  C_27
REMARK   12  A    between atoms: C_27  and  C_28
REMARK   13  A    between atoms: C_29  and  C_30
REMARK   14  A    between atoms: C_29  and  C_31
REMARK                            x       y       z     vdW  Elec       q    Type
REMARK                         _______ _______ _______ _____ _____    ______ ____
ROOT
ATOM      1  C   LIG A   1      -8.616   2.730 129.292  0.00  0.00    +0.205 A 
ATOM      2  C   LIG A   1      -8.248   1.365 129.150  0.00  0.00    +0.188 A 
ATOM      3  C   LIG A   1      -8.201   0.539 130.283  0.00  0.00    +0.113 A 
ATOM      4  C   LIG A   1      -8.556   1.053 131.534  0.00  0.00    +0.135 A 
ATOM      5  C   LIG A   1      -8.938   2.372 131.673  0.00  0.00    +0.095 A 
ATOM      6  C   LIG A   1      -7.796  -0.868 130.133  0.00  0.00    +0.238 A 
ATOM      7  C   LIG A   1      -7.606  -1.391 128.762  0.00  0.00    +0.211 A 
ATOM      8  C   LIG A   1      -7.643  -0.467 127.769  0.00  0.00    +0.181 A 
ATOM      9  O   LIG A   1      -7.914   0.876 127.906  0.00  0.00    -0.447 OA
ATOM     10  O   LIG A   1      -7.640  -1.555 131.131  0.00  0.00    -0.283 OA
ATOM     11  C   LIG A   1      -8.945   3.240 130.571  0.00  0.00    +0.170 A 
ENDROOT
BRANCH   8  12
ATOM     12  C   LIG A   1      -7.381  -0.882 126.356  0.00  0.00    +0.025 A 
ATOM     13  C   LIG A   1      -6.080  -0.889 125.843  0.00  0.00    +0.015 A 
ATOM     14  C   LIG A   1      -5.842  -1.259 124.516  0.00  0.00    +0.050 A 
ATOM     15  C   LIG A   1      -6.906  -1.619 123.681  0.00  0.00    +0.159 A 
ATOM     16  C   LIG A   1      -8.217  -1.608 124.167  0.00  0.00    +0.162 A 
ATOM     17  C   LIG A   1      -8.441  -1.250 125.508  0.00  0.00    +0.061 A 
BRANCH  16  18
ATOM     18  O   LIG A   1      -9.353  -1.970 123.491  0.00  0.00    -0.491 OA
ATOM     19  C   LIG A   1      -9.661  -3.359 123.434  0.00  0.00    +0.277 C 
ENDBRANCH  16  18
BRANCH  15  20
ATOM     20  O   LIG A   1      -6.625  -2.003 122.400  0.00  0.00    -0.503 OA
ATOM     21  H   LIG A   1      -6.988  -2.889 122.243  0.00  0.00    +0.292 HD
ENDBRANCH  15  20
ENDBRANCH   8  12
BRANCH   1  23
ATOM     22  C   LIG A   1      -7.551   4.212 127.723  0.00  0.00    +0.277 C 
ATOM     23  O   LIG A   1      -8.684   3.440 128.114  0.00  0.00    -0.488 OA
ENDBRANCH   1  23
BRANCH   4  24
ATOM     24  O   LIG A   1      -8.567   0.286 132.669  0.00  0.00    -0.506 OA
ATOM     25  H   LIG A   1      -9.436  -0.166 132.732  0.00  0.00    +0.292 HD
ENDBRANCH   4  24
BRANCH   7  26
ATOM     26  O   LIG A   1      -7.358  -2.730 128.491  0.00  0.00    -0.488 OA
ATOM     27  C   LIG A   1      -8.517  -3.577 128.480  0.00  0.00    +0.277 C 
ENDBRANCH   7  26
BRANCH  11  28
ATOM     28  O   LIG A   1      -9.336   4.548 130.702  0.00  0.00    -0.484 OA
BRANCH  28  29
ATOM     29  C   LIG A   1     -10.740   4.813 130.671  0.00  0.00    +0.257 C 
BRANCH  29  30
ATOM     30  C   LIG A   1     -11.002   6.035 129.831  0.00  0.00    +0.012 C 
ATOM     31  C   LIG A   1     -11.768   7.112 130.103  0.00  0.00    -0.076 C 
ATOM     32  C   LIG A   1     -12.672   7.265 131.294  0.00  0.00    +0.038 C 
ATOM     33  C   LIG A   1     -11.775   8.308 129.182  0.00  0.00    +0.038 C 
ENDBRANCH  29  30
ENDBRANCH  28  29
ENDBRANCH  11  28
TORSDOF 9
ENDMDL
MODEL 7
REMARK VINA RESULT:      -7.2      2.575      3.245
REMARK  Name = NuBBE_2328
REMARK  14 active torsions:
REMARK  status: ('A' for Active; 'I' for Inactive)
REMARK    1  A    between atoms: C_1  and  O_2
REMARK    2  A    between atoms: O_2  and  C_3
REMARK    3  A    between atoms: C_6  and  O_7
REMARK    4  A    between atoms: C_10  and  O_11
REMARK    5  A    between atoms: O_11  and  C_12
REMARK    6  A    between atoms: C_13  and  C_15
REMARK    7  A    between atoms: C_18  and  O_23
REMARK    8  A    between atoms: C_19  and  O_20
REMARK    9  A    between atoms: O_20  and  C_21
REMARK   10  A    between atoms: C_25  and  O_26
REMARK   11  A    between atoms: O_26  and  C_27
REMARK   12  A    between atoms: C_27  and  C_28
REMARK   13  A    between atoms: C_29  and  C_30
REMARK   14  A    between atoms: C_29  and  C_31
REMARK                            x       y       z     vdW  Elec       q    Type
REMARK                         _______ _______ _______ _____ _____    ______ ____
ROOT
ATOM      1  C   LIG A   1      -7.647   1.712 126.638  0.00  0.00    +0.205 A 
ATOM      2  C   LIG A   1      -7.467   2.461 127.832  0.00  0.00    +0.188 A 
ATOM      3  C   LIG A   1      -6.277   2.323 128.562  0.00  0.00    +0.113 A 
ATOM      4  C   LIG A   1      -5.263   1.484 128.089  0.00  0.00    +0.135 A 
ATOM      5  C   LIG A   1      -5.424   0.773 126.917  0.00  0.00    +0.095 A 
ATOM      6  C   LIG A   1      -6.106   3.084 129.811  0.00  0.00    +0.238 A 
ATOM      7  C   LIG A   1      -7.139   4.083 130.160  0.00  0.00    +0.211 A 
ATOM      8  C   LIG A   1      -8.252   4.075 129.383  0.00  0.00    +0.181 A 
ATOM      9  O   LIG A   1      -8.473   3.291 128.273  0.00  0.00    -0.447 OA
ATOM     10  O   LIG A   1      -5.125   2.876 130.508  0.00  0.00    -0.283 OA
ATOM     11  C   LIG A   1      -6.621   0.846 126.190  0.00  0.00    +0.170 A 
ENDROOT
BRANCH   8  12
ATOM     12  C   LIG A   1      -9.389   4.992 129.702  0.00  0.00    +0.025 A 
ATOM     13  C   LIG A   1     -10.346   4.637 130.660  0.00  0.00    +0.015 A 
ATOM     14  C   LIG A   1     -11.418   5.489 130.941  0.00  0.00    +0.050 A 
ATOM     15  C   LIG A   1     -11.553   6.705 130.262  0.00  0.00    +0.159 A 
ATOM     16  C   LIG A   1     -10.617   7.076 129.292  0.00  0.00    +0.162 A 
ATOM     17  C   LIG A   1      -9.534   6.219 129.030  0.00  0.00    +0.061 A 
BRANCH  16  18
ATOM     18  O   LIG A   1     -10.588   8.243 128.573  0.00  0.00    -0.491 OA
ATOM     19  C   LIG A   1     -10.979   8.174 127.206  0.00  0.00    +0.277 C 
ENDBRANCH  16  18
BRANCH  15  20
ATOM     20  O   LIG A   1     -12.599   7.520 130.590  0.00  0.00    -0.503 OA
ATOM     21  H   LIG A   1     -13.382   6.978 130.779  0.00  0.00    +0.292 HD
ENDBRANCH  15  20
ENDBRANCH   8  12
BRANCH   1  23
ATOM     22  C   LIG A   1      -8.788   2.825 124.835  0.00  0.00    +0.277 C 
ATOM     23  O   LIG A   1      -8.824   1.960 125.967  0.00  0.00    -0.488 OA
ENDBRANCH   1  23
BRANCH   4  24
ATOM     24  O   LIG A   1      -4.065   1.338 128.739  0.00  0.00    -0.506 OA
ATOM     25  H   LIG A   1      -3.675   2.228 128.876  0.00  0.00    +0.292 HD
ENDBRANCH   4  24
BRANCH   7  26
ATOM     26  O   LIG A   1      -7.019   4.952 131.236  0.00  0.00    -0.488 OA
ATOM     27  C   LIG A   1      -6.222   6.122 130.992  0.00  0.00    +0.277 C 
ENDBRANCH   7  26
BRANCH  11  28
ATOM     28  O   LIG A   1      -6.780   0.151 125.017  0.00  0.00    -0.484 OA
BRANCH  28  29
ATOM     29  C   LIG A   1      -7.348  -1.157 125.109  0.00  0.00    +0.257 C 
BRANCH  29  30
ATOM     30  C   LIG A   1      -6.287  -2.187 124.824  0.00  0.00    +0.012 C 
ATOM     31  C   LIG A   1      -5.714  -2.521 123.649  0.00  0.00    -0.076 C 
ATOM     32  C   LIG A   1      -6.129  -2.015 122.297  0.00  0.00    +0.038 C 
ATOM     33  C   LIG A   1      -4.551  -3.482 123.603  0.00  0.00    +0.038 C 
ENDBRANCH  29  30
ENDBRANCH  28  29
ENDBRANCH  11  28
TORSDOF 9
ENDMDL
MODEL 8
REMARK VINA RESULT:      -7.2      4.212      7.449
REMARK  Name = NuBBE_2328
REMARK  14 active torsions:
REMARK  status: ('A' for Active; 'I' for Inactive)
REMARK    1  A    between atoms: C_1  and  O_2
REMARK    2  A    between atoms: O_2  and  C_3
REMARK    3  A    between atoms: C_6  and  O_7
REMARK    4  A    between atoms: C_10  and  O_11
REMARK    5  A    between atoms: O_11  and  C_12
REMARK    6  A    between atoms: C_13  and  C_15
REMARK    7  A    between atoms: C_18  and  O_23
REMARK    8  A    between atoms: C_19  and  O_20
REMARK    9  A    between atoms: O_20  and  C_21
REMARK   10  A    between atoms: C_25  and  O_26
REMARK   11  A    between atoms: O_26  and  C_27
REMARK   12  A    between atoms: C_27  and  C_28
REMARK   13  A    between atoms: C_29  and  C_30
REMARK   14  A    between atoms: C_29  and  C_31
REMARK                            x       y       z     vdW  Elec       q    Type
REMARK                         _______ _______ _______ _____ _____    ______ ____
ROOT
ATOM      1  C   LIG A   1      -7.276  -0.246 128.853  0.00  0.00    +0.205 A 
ATOM      2  C   LIG A   1      -7.738  -0.674 127.579  0.00  0.00    +0.188 A 
ATOM      3  C   LIG A   1      -8.122  -2.011 127.397  0.00  0.00    +0.113 A 
ATOM      4  C   LIG A   1      -8.088  -2.899 128.476  0.00  0.00    +0.135 A 
ATOM      5  C   LIG A   1      -7.664  -2.482 129.721  0.00  0.00    +0.095 A 
ATOM      6  C   LIG A   1      -8.576  -2.455 126.068  0.00  0.00    +0.238 A 
ATOM      7  C   LIG A   1      -8.755  -1.427 125.019  0.00  0.00    +0.211 A 
ATOM      8  C   LIG A   1      -8.303  -0.185 125.328  0.00  0.00    +0.181 A 
ATOM      9  O   LIG A   1      -7.774   0.220 126.533  0.00  0.00    -0.447 OA
ATOM     10  O   LIG A   1      -8.797  -3.640 125.878  0.00  0.00    -0.283 OA
ATOM     11  C   LIG A   1      -7.222  -1.167 129.927  0.00  0.00    +0.170 A 
ENDROOT
BRANCH   8  12
ATOM     12  C   LIG A   1      -8.364   0.904 124.305  0.00  0.00    +0.025 A 
ATOM     13  C   LIG A   1      -9.564   1.201 123.649  0.00  0.00    +0.015 A 
ATOM     14  C   LIG A   1      -9.612   2.207 122.680  0.00  0.00    +0.050 A 
ATOM     15  C   LIG A   1      -8.457   2.925 122.347  0.00  0.00    +0.159 A 
ATOM     16  C   LIG A   1      -7.244   2.638 122.980  0.00  0.00    +0.162 A 
ATOM     17  C   LIG A   1      -7.212   1.635 123.964  0.00  0.00    +0.061 A 
BRANCH  16  18
ATOM     18  O   LIG A   1      -6.044   3.273 122.794  0.00  0.00    -0.491 OA
ATOM     19  C   LIG A   1      -5.691   4.283 123.735  0.00  0.00    +0.277 C 
ENDBRANCH  16  18
BRANCH  15  20
ATOM     20  O   LIG A   1      -8.557   3.920 121.416  0.00  0.00    -0.503 OA
ATOM     21  H   LIG A   1      -8.266   3.583 120.553  0.00  0.00    +0.292 HD
ENDBRANCH  15  20
ENDBRANCH   8  12
BRANCH   1  23
ATOM     22  C   LIG A   1      -5.603   1.481 128.949  0.00  0.00    +0.277 C 
ATOM     23  O   LIG A   1      -6.975   1.095 128.943  0.00  0.00    -0.488 OA
ENDBRANCH   1  23
BRANCH   4  24
ATOM     24  O   LIG A   1      -8.488  -4.205 128.368  0.00  0.00    -0.506 OA
ATOM     25  H   LIG A   1      -9.040  -4.297 127.561  0.00  0.00    +0.292 HD
ENDBRANCH   4  24
BRANCH   7  26
ATOM     26  O   LIG A   1      -9.305  -1.705 123.775  0.00  0.00    -0.488 OA
ATOM     27  C   LIG A   1      -8.405  -2.294 122.824  0.00  0.00    +0.277 C 
ENDBRANCH   7  26
BRANCH  11  28
ATOM     28  O   LIG A   1      -6.812  -0.743 131.166  0.00  0.00    -0.484 OA
BRANCH  28  29
ATOM     29  C   LIG A   1      -7.826  -0.550 132.156  0.00  0.00    +0.257 C 
BRANCH  29  30
ATOM     30  C   LIG A   1      -7.734   0.850 132.702  0.00  0.00    +0.012 C 
ATOM     31  C   LIG A   1      -8.647   1.843 132.669  0.00  0.00    -0.076 C 
ATOM     32  C   LIG A   1      -9.951   1.808 131.924  0.00  0.00    +0.038 C 
ATOM     33  C   LIG A   1      -8.412   3.134 133.415  0.00  0.00    +0.038 C 
ENDBRANCH  29  30
ENDBRANCH  28  29
ENDBRANCH  11  28
TORSDOF 9
ENDMDL
MODEL 9
REMARK VINA RESULT:      -7.2      4.517      6.138
REMARK  Name = NuBBE_2328
REMARK  14 active torsions:
REMARK  status: ('A' for Active; 'I' for Inactive)
REMARK    1  A    between atoms: C_1  and  O_2
REMARK    2  A    between atoms: O_2  and  C_3
REMARK    3  A    between atoms: C_6  and  O_7
REMARK    4  A    between atoms: C_10  and  O_11
REMARK    5  A    between atoms: O_11  and  C_12
REMARK    6  A    between atoms: C_13  and  C_15
REMARK    7  A    between atoms: C_18  and  O_23
REMARK    8  A    between atoms: C_19  and  O_20
REMARK    9  A    between atoms: O_20  and  C_21
REMARK   10  A    between atoms: C_25  and  O_26
REMARK   11  A    between atoms: O_26  and  C_27
REMARK   12  A    between atoms: C_27  and  C_28
REMARK   13  A    between atoms: C_29  and  C_30
REMARK   14  A    between atoms: C_29  and  C_31
REMARK                            x       y       z     vdW  Elec       q    Type
REMARK                         _______ _______ _______ _____ _____    ______ ____
ROOT
ATOM      1  C   LIG A   1      -8.503  -1.115 126.164  0.00  0.00    +0.205 A 
ATOM      2  C   LIG A   1      -7.734  -0.699 127.285  0.00  0.00    +0.188 A 
ATOM      3  C   LIG A   1      -7.555  -1.577 128.365  0.00  0.00    +0.113 A 
ATOM      4  C   LIG A   1      -8.097  -2.865 128.312  0.00  0.00    +0.135 A 
ATOM      5  C   LIG A   1      -8.823  -3.282 127.215  0.00  0.00    +0.095 A 
ATOM      6  C   LIG A   1      -6.778  -1.131 129.533  0.00  0.00    +0.238 A 
ATOM      7  C   LIG A   1      -6.086   0.174 129.449  0.00  0.00    +0.211 A 
ATOM      8  C   LIG A   1      -6.387   0.929 128.362  0.00  0.00    +0.181 A 
ATOM      9  O   LIG A   1      -7.199   0.569 127.310  0.00  0.00    -0.447 OA
ATOM     10  O   LIG A   1      -6.721  -1.847 130.521  0.00  0.00    -0.283 OA
ATOM     11  C   LIG A   1      -9.067  -2.413 126.142  0.00  0.00    +0.170 A 
ENDROOT
BRANCH   8  12
ATOM     12  C   LIG A   1      -5.802   2.299 128.224  0.00  0.00    +0.025 A 
ATOM     13  C   LIG A   1      -6.358   3.385 128.909  0.00  0.00    +0.015 A 
ATOM     14  C   LIG A   1      -5.820   4.667 128.761  0.00  0.00    +0.050 A 
ATOM     15  C   LIG A   1      -4.724   4.882 127.919  0.00  0.00    +0.159 A 
ATOM     16  C   LIG A   1      -4.159   3.815 127.214  0.00  0.00    +0.162 A 
ATOM     17  C   LIG A   1      -4.698   2.527 127.383  0.00  0.00    +0.061 A 
BRANCH  16  18
ATOM     18  O   LIG A   1      -3.066   3.855 126.386  0.00  0.00    -0.491 OA
ATOM     19  C   LIG A   1      -1.907   3.143 126.807  0.00  0.00    +0.277 C 
ENDBRANCH  16  18
BRANCH  15  20
ATOM     20  O   LIG A   1      -4.212   6.145 127.828  0.00  0.00    -0.503 OA
ATOM     21  H   LIG A   1      -3.247   6.108 127.927  0.00  0.00    +0.292 HD
ENDBRANCH  15  20
ENDBRANCH   8  12
BRANCH   1  23
ATOM     22  C   LIG A   1      -9.686   0.688 125.096  0.00  0.00    +0.277 C 
ATOM     23  O   LIG A   1      -8.573  -0.202 125.135  0.00  0.00    -0.488 OA
ENDBRANCH   1  23
BRANCH   4  24
ATOM     24  O   LIG A   1      -7.922  -3.778 129.319  0.00  0.00    -0.506 OA
ATOM     25  H   LIG A   1      -8.804  -4.104 129.600  0.00  0.00    +0.292 HD
ENDBRANCH   4  24
BRANCH   7  26
ATOM     26  O   LIG A   1      -5.218   0.635 130.429  0.00  0.00    -0.488 OA
ATOM     27  C   LIG A   1      -3.931  -0.000 130.454  0.00  0.00    +0.277 C 
ENDBRANCH   7  26
BRANCH  11  28
ATOM     28  O   LIG A   1      -9.778  -2.827 125.043  0.00  0.00    -0.484 OA
BRANCH  28  29
ATOM     29  C   LIG A   1      -9.062  -2.940 123.811  0.00  0.00    +0.257 C 
BRANCH  29  30
ATOM     30  C   LIG A   1      -7.679  -3.472 124.080  0.00  0.00    +0.012 C 
ATOM     31  C   LIG A   1      -6.485  -3.000 123.663  0.00  0.00    -0.076 C 
ATOM     32  C   LIG A   1      -6.281  -1.878 122.685  0.00  0.00    +0.038 C 
ATOM     33  C   LIG A   1      -5.198  -3.597 124.175  0.00  0.00    +0.038 C 
ENDBRANCH  29  30
ENDBRANCH  28  29
ENDBRANCH  11  28
TORSDOF 9
ENDMDL
