MODEL 1
REMARK VINA RESULT:      -7.9      0.000      0.000
REMARK  Name = NuBBE_2196
REMARK  8 active torsions:
REMARK  status: ('A' for Active; 'I' for Inactive)
REMARK    1  A    between atoms: C_1  and  C_2
REMARK    2  A    between atoms: C_9  and  O_11
REMARK    3  A    between atoms: O_11  and  C_12
REMARK    4  A    between atoms: C_12  and  C_13
REMARK    5  A    between atoms: C_15  and  C_16
REMARK    6  A    between atoms: C_15  and  C_18
REMARK    7  A    between atoms: C_22  and  C_23
REMARK    8  A    between atoms: C_22  and  C_24
REMARK                            x       y       z     vdW  Elec       q    Type
REMARK                         _______ _______ _______ _____ _____    ______ ____
ROOT
ATOM      1  C   LIG A   1      -4.846  -2.728 128.343  0.00  0.00    +0.016 C 
ATOM      2  C   LIG A   1      -6.122  -1.858 128.458  0.00  0.00    -0.007 C 
ATOM      3  C   LIG A   1      -7.010  -2.267 129.686  0.00  0.00    +0.012 C 
ATOM      4  C   LIG A   1      -7.663  -3.634 129.474  0.00  0.00    +0.084 C 
ATOM      5  C   LIG A   1      -8.518  -3.606 128.234  0.00  0.00    +0.160 C 
ATOM      6  C   LIG A   1      -8.040  -2.813 127.059  0.00  0.00    -0.004 C 
ATOM      7  C   LIG A   1      -6.922  -2.058 127.143  0.00  0.00    -0.053 C 
ATOM      8  C   LIG A   1      -6.375  -1.386 125.884  0.00  0.00    +0.077 C 
ATOM      9  C   LIG A   1      -6.933  -1.973 124.570  0.00  0.00    +0.190 C 
ATOM     10  C   LIG A   1      -8.483  -2.074 124.619  0.00  0.00    +0.027 C 
ATOM     11  C   LIG A   1      -9.000  -2.740 123.322  0.00  0.00    +0.019 C 
ATOM     12  C   LIG A   1      -8.872  -2.996 125.808  0.00  0.00    +0.053 C 
ATOM     13  O   LIG A   1      -9.545  -4.279 128.158  0.00  0.00    -0.292 OA
ATOM     14  C   LIG A   1      -6.337  -2.092 131.097  0.00  0.00    -0.031 C 
ATOM     15  C   LIG A   1      -7.456  -1.893 132.154  0.00  0.00    +0.011 C 
ATOM     16  C   LIG A   1      -5.515  -3.310 131.571  0.00  0.00    +0.011 C 
ATOM     17  C   LIG A   1      -5.423  -0.838 131.112  0.00  0.00    +0.007 C 
ATOM     18  C   LIG A   1      -5.826   0.186 130.061  0.00  0.00    +0.001 C 
ATOM     19  C   LIG A   1      -5.705  -0.362 128.635  0.00  0.00    +0.011 C 
ENDROOT
BRANCH  10  20
ATOM     20  C   LIG A   1      -9.097  -0.668 124.690  0.00  0.00    -0.024 C 
ATOM     21  C   LIG A   1      -9.126   0.258 123.719  0.00  0.00    +0.004 C 
ENDBRANCH  10  20
BRANCH   9  22
ATOM     22  O   LIG A   1      -6.388  -3.302 124.363  0.00  0.00    -0.460 OA
BRANCH  22  23
ATOM     23  C   LIG A   1      -5.363  -3.426 123.488  0.00  0.00    +0.304 C 
ATOM     24  C   LIG A   1      -4.562  -4.649 123.798  0.00  0.00    +0.136 C 
ATOM     25  O   LIG A   1      -5.119  -2.650 122.561  0.00  0.00    -0.251 OA
ENDBRANCH  22  23
ENDBRANCH   9  22
TORSDOF 3
ENDMDL
MODEL 2
REMARK VINA RESULT:      -7.7      3.110      5.829
REMARK  Name = NuBBE_2196
REMARK  8 active torsions:
REMARK  status: ('A' for Active; 'I' for Inactive)
REMARK    1  A    between atoms: C_1  and  C_2
REMARK    2  A    between atoms: C_9  and  O_11
REMARK    3  A    between atoms: O_11  and  C_12
REMARK    4  A    between atoms: C_12  and  C_13
REMARK    5  A    between atoms: C_15  and  C_16
REMARK    6  A    between atoms: C_15  and  C_18
REMARK    7  A    between atoms: C_22  and  C_23
REMARK    8  A    between atoms: C_22  and  C_24
REMARK                            x       y       z     vdW  Elec       q    Type
REMARK                         _______ _______ _______ _____ _____    ______ ____
ROOT
ATOM      1  C   LIG A   1      -6.887   1.822 127.321  0.00  0.00    +0.016 C 
ATOM      2  C   LIG A   1      -5.995   1.519 126.091  0.00  0.00    -0.007 C 
ATOM      3  C   LIG A   1      -6.245   2.528 124.915  0.00  0.00    +0.012 C 
ATOM      4  C   LIG A   1      -7.620   2.316 124.280  0.00  0.00    +0.084 C 
ATOM      5  C   LIG A   1      -7.732   0.909 123.756  0.00  0.00    +0.160 C 
ATOM      6  C   LIG A   1      -7.089  -0.193 124.537  0.00  0.00    -0.004 C 
ATOM      7  C   LIG A   1      -6.342   0.078 125.630  0.00  0.00    -0.053 C 
ATOM      8  C   LIG A   1      -5.831  -1.075 126.493  0.00  0.00    +0.077 C 
ATOM      9  C   LIG A   1      -6.564  -2.411 126.251  0.00  0.00    +0.190 C 
ATOM     10  C   LIG A   1      -6.642  -2.734 124.733  0.00  0.00    +0.027 C 
ATOM     11  C   LIG A   1      -7.452  -4.035 124.522  0.00  0.00    +0.019 C 
ATOM     12  C   LIG A   1      -7.411  -1.582 124.029  0.00  0.00    +0.053 C 
ATOM     13  O   LIG A   1      -8.397   0.657 122.752  0.00  0.00    -0.292 OA
ATOM     14  C   LIG A   1      -5.910   4.032 125.230  0.00  0.00    -0.031 C 
ATOM     15  C   LIG A   1      -5.575   4.750 123.895  0.00  0.00    +0.011 C 
ATOM     16  C   LIG A   1      -7.072   4.829 125.862  0.00  0.00    +0.011 C 
ATOM     17  C   LIG A   1      -4.673   4.130 126.162  0.00  0.00    +0.007 C 
ATOM     18  C   LIG A   1      -3.777   2.904 126.069  0.00  0.00    +0.001 C 
ATOM     19  C   LIG A   1      -4.493   1.623 126.512  0.00  0.00    +0.011 C 
ENDROOT
BRANCH  10  20
ATOM     20  C   LIG A   1      -5.231  -2.977 124.177  0.00  0.00    -0.024 C 
ATOM     21  C   LIG A   1      -4.690  -4.150 123.811  0.00  0.00    +0.004 C 
ENDBRANCH  10  20
BRANCH   9  22
ATOM     22  O   LIG A   1      -7.914  -2.325 126.776  0.00  0.00    -0.460 OA
BRANCH  22  23
ATOM     23  C   LIG A   1      -8.130  -2.809 128.022  0.00  0.00    +0.304 C 
ATOM     24  C   LIG A   1      -8.964  -4.047 127.958  0.00  0.00    +0.136 C 
ATOM     25  O   LIG A   1      -7.699  -2.313 129.064  0.00  0.00    -0.251 OA
ENDBRANCH  22  23
ENDBRANCH   9  22
TORSDOF 3
ENDMDL
MODEL 3
REMARK VINA RESULT:      -7.6      2.237      6.616
REMARK  Name = NuBBE_2196
REMARK  8 active torsions:
REMARK  status: ('A' for Active; 'I' for Inactive)
REMARK    1  A    between atoms: C_1  and  C_2
REMARK    2  A    between atoms: C_9  and  O_11
REMARK    3  A    between atoms: O_11  and  C_12
REMARK    4  A    between atoms: C_12  and  C_13
REMARK    5  A    between atoms: C_15  and  C_16
REMARK    6  A    between atoms: C_15  and  C_18
REMARK    7  A    between atoms: C_22  and  C_23
REMARK    8  A    between atoms: C_22  and  C_24
REMARK                            x       y       z     vdW  Elec       q    Type
REMARK                         _______ _______ _______ _____ _____    ______ ____
ROOT
ATOM      1  C   LIG A   1      -8.082   0.194 126.971  0.00  0.00    +0.016 C 
ATOM      2  C   LIG A   1      -7.178  -1.063 127.007  0.00  0.00    -0.007 C 
ATOM      3  C   LIG A   1      -7.659  -2.169 126.003  0.00  0.00    +0.012 C 
ATOM      4  C   LIG A   1      -8.977  -2.800 126.455  0.00  0.00    +0.084 C 
ATOM      5  C   LIG A   1      -8.811  -3.413 127.821  0.00  0.00    +0.160 C 
ATOM      6  C   LIG A   1      -7.936  -2.712 128.812  0.00  0.00    -0.004 C 
ATOM      7  C   LIG A   1      -7.233  -1.612 128.459  0.00  0.00    -0.053 C 
ATOM      8  C   LIG A   1      -6.475  -0.830 129.531  0.00  0.00    +0.077 C 
ATOM      9  C   LIG A   1      -6.925  -1.150 130.972  0.00  0.00    +0.190 C 
ATOM     10  C   LIG A   1      -6.972  -2.684 131.213  0.00  0.00    +0.027 C 
ATOM     11  C   LIG A   1      -7.502  -2.968 132.638  0.00  0.00    +0.019 C 
ATOM     12  C   LIG A   1      -7.978  -3.303 130.204  0.00  0.00    +0.053 C 
ATOM     13  O   LIG A   1      -9.435  -4.423 128.144  0.00  0.00    -0.292 OA
ATOM     14  C   LIG A   1      -7.633  -1.762 124.484  0.00  0.00    -0.031 C 
ATOM     15  C   LIG A   1      -7.486  -3.052 123.633  0.00  0.00    +0.011 C 
ATOM     16  C   LIG A   1      -8.918  -1.067 123.984  0.00  0.00    +0.011 C 
ATOM     17  C   LIG A   1      -6.420  -0.841 124.189  0.00  0.00    +0.007 C 
ATOM     18  C   LIG A   1      -5.294  -1.023 125.196  0.00  0.00    +0.001 C 
ATOM     19  C   LIG A   1      -5.720  -0.655 126.621  0.00  0.00    +0.011 C 
ENDROOT
BRANCH  10  20
ATOM     20  C   LIG A   1      -5.556  -3.271 131.125  0.00  0.00    -0.024 C 
ATOM     21  C   LIG A   1      -5.211  -4.515 130.755  0.00  0.00    +0.004 C 
ENDBRANCH  10  20
BRANCH   9  22
ATOM     22  O   LIG A   1      -8.250  -0.604 131.199  0.00  0.00    -0.460 OA
BRANCH  22  23
ATOM     23  C   LIG A   1      -8.373   0.361 132.141  0.00  0.00    +0.304 C 
ATOM     24  C   LIG A   1      -9.605   1.170 131.894  0.00  0.00    +0.136 C 
ATOM     25  O   LIG A   1      -7.592   0.550 133.074  0.00  0.00    -0.251 OA
ENDBRANCH  22  23
ENDBRANCH   9  22
TORSDOF 3
ENDMDL
MODEL 4
REMARK VINA RESULT:      -7.3      2.580      6.312
REMARK  Name = NuBBE_2196
REMARK  8 active torsions:
REMARK  status: ('A' for Active; 'I' for Inactive)
REMARK    1  A    between atoms: C_1  and  C_2
REMARK    2  A    between atoms: C_9  and  O_11
REMARK    3  A    between atoms: O_11  and  C_12
REMARK    4  A    between atoms: C_12  and  C_13
REMARK    5  A    between atoms: C_15  and  C_16
REMARK    6  A    between atoms: C_15  and  C_18
REMARK    7  A    between atoms: C_22  and  C_23
REMARK    8  A    between atoms: C_22  and  C_24
REMARK                            x       y       z     vdW  Elec       q    Type
REMARK                         _______ _______ _______ _____ _____    ______ ____
ROOT
ATOM      1  C   LIG A   1      -5.825  -2.802 125.466  0.00  0.00    +0.016 C 
ATOM      2  C   LIG A   1      -7.148  -2.191 125.991  0.00  0.00    -0.007 C 
ATOM      3  C   LIG A   1      -7.708  -1.080 125.036  0.00  0.00    +0.012 C 
ATOM      4  C   LIG A   1      -6.830   0.174 125.061  0.00  0.00    +0.084 C 
ATOM      5  C   LIG A   1      -6.756   0.719 126.462  0.00  0.00    +0.160 C 
ATOM      6  C   LIG A   1      -6.711  -0.251 127.601  0.00  0.00    -0.004 C 
ATOM      7  C   LIG A   1      -6.837  -1.579 127.383  0.00  0.00    -0.053 C 
ATOM      8  C   LIG A   1      -6.630  -2.551 128.544  0.00  0.00    +0.077 C 
ATOM      9  C   LIG A   1      -5.900  -1.933 129.755  0.00  0.00    +0.190 C 
ATOM     10  C   LIG A   1      -6.546  -0.580 130.162  0.00  0.00    +0.027 C 
ATOM     11  C   LIG A   1      -5.742   0.049 131.324  0.00  0.00    +0.019 C 
ATOM     12  C   LIG A   1      -6.454   0.387 128.949  0.00  0.00    +0.053 C 
ATOM     13  O   LIG A   1      -6.658   1.928 126.668  0.00  0.00    -0.292 OA
ATOM     14  C   LIG A   1      -8.094  -1.561 123.589  0.00  0.00    -0.031 C 
ATOM     15  C   LIG A   1      -9.177  -0.603 123.025  0.00  0.00    +0.011 C 
ATOM     16  C   LIG A   1      -6.931  -1.533 122.572  0.00  0.00    +0.011 C 
ATOM     17  C   LIG A   1      -8.684  -2.995 123.632  0.00  0.00    +0.007 C 
ATOM     18  C   LIG A   1      -9.273  -3.339 124.992  0.00  0.00    +0.001 C 
ATOM     19  C   LIG A   1      -8.222  -3.321 126.106  0.00  0.00    +0.011 C 
ENDROOT
BRANCH  10  20
ATOM     20  C   LIG A   1      -7.977  -0.814 130.668  0.00  0.00    -0.024 C 
ATOM     21  C   LIG A   1      -8.747   0.041 131.360  0.00  0.00    +0.004 C 
ENDBRANCH  10  20
BRANCH   9  22
ATOM     22  O   LIG A   1      -4.509  -1.699 129.415  0.00  0.00    -0.460 OA
BRANCH  22  23
ATOM     23  C   LIG A   1      -3.588  -2.532 129.954  0.00  0.00    +0.304 C 
ATOM     24  C   LIG A   1      -3.336  -3.686 129.040  0.00  0.00    +0.136 C 
ATOM     25  O   LIG A   1      -3.027  -2.367 131.039  0.00  0.00    -0.251 OA
ENDBRANCH  22  23
ENDBRANCH   9  22
TORSDOF 3
ENDMDL
MODEL 5
REMARK VINA RESULT:      -7.2      6.591      9.139
REMARK  Name = NuBBE_2196
REMARK  8 active torsions:
REMARK  status: ('A' for Active; 'I' for Inactive)
REMARK    1  A    between atoms: C_1  and  C_2
REMARK    2  A    between atoms: C_9  and  O_11
REMARK    3  A    between atoms: O_11  and  C_12
REMARK    4  A    between atoms: C_12  and  C_13
REMARK    5  A    between atoms: C_15  and  C_16
REMARK    6  A    between atoms: C_15  and  C_18
REMARK    7  A    between atoms: C_22  and  C_23
REMARK    8  A    between atoms: C_22  and  C_24
REMARK                            x       y       z     vdW  Elec       q    Type
REMARK                         _______ _______ _______ _____ _____    ______ ____
ROOT
ATOM      1  C   LIG A   1      -5.013   5.481 131.728  0.00  0.00    +0.016 C 
ATOM      2  C   LIG A   1      -3.686   4.976 131.108  0.00  0.00    -0.007 C 
ATOM      3  C   LIG A   1      -2.531   6.030 131.242  0.00  0.00    +0.012 C 
ATOM      4  C   LIG A   1      -2.776   7.245 130.345  0.00  0.00    +0.084 C 
ATOM      5  C   LIG A   1      -2.881   6.808 128.908  0.00  0.00    +0.160 C 
ATOM      6  C   LIG A   1      -3.556   5.507 128.608  0.00  0.00    -0.004 C 
ATOM      7  C   LIG A   1      -3.970   4.696 129.608  0.00  0.00    -0.053 C 
ATOM      8  C   LIG A   1      -4.793   3.453 129.273  0.00  0.00    +0.077 C 
ATOM      9  C   LIG A   1      -5.410   3.474 127.858  0.00  0.00    +0.190 C 
ATOM     10  C   LIG A   1      -4.341   3.840 126.791  0.00  0.00    +0.027 C 
ATOM     11  C   LIG A   1      -5.009   3.931 125.399  0.00  0.00    +0.019 C 
ATOM     12  C   LIG A   1      -3.774   5.246 127.134  0.00  0.00    +0.053 C 
ATOM     13  O   LIG A   1      -2.491   7.534 127.994  0.00  0.00    -0.292 OA
ATOM     14  C   LIG A   1      -2.114   6.396 132.713  0.00  0.00    -0.031 C 
ATOM     15  C   LIG A   1      -0.638   6.877 132.701  0.00  0.00    +0.011 C 
ATOM     16  C   LIG A   1      -2.931   7.544 133.345  0.00  0.00    +0.011 C 
ATOM     17  C   LIG A   1      -2.214   5.149 133.632  0.00  0.00    +0.007 C 
ATOM     18  C   LIG A   1      -2.104   3.845 132.856  0.00  0.00    +0.001 C 
ATOM     19  C   LIG A   1      -3.242   3.671 131.845  0.00  0.00    +0.011 C 
ENDROOT
BRANCH  10  20
ATOM     20  C   LIG A   1      -3.276   2.736 126.718  0.00  0.00    -0.024 C 
ATOM     21  C   LIG A   1      -1.948   2.892 126.601  0.00  0.00    +0.004 C 
ENDBRANCH  10  20
BRANCH   9  22
ATOM     22  O   LIG A   1      -6.472   4.461 127.807  0.00  0.00    -0.460 OA
BRANCH  22  23
ATOM     23  C   LIG A   1      -7.728   4.040 128.087  0.00  0.00    +0.304 C 
ATOM     24  C   LIG A   1      -8.257   4.752 129.289  0.00  0.00    +0.136 C 
ATOM     25  O   LIG A   1      -8.356   3.195 127.445  0.00  0.00    -0.251 OA
ENDBRANCH  22  23
ENDBRANCH   9  22
TORSDOF 3
ENDMDL
MODEL 6
REMARK VINA RESULT:      -7.1      3.661      6.801
REMARK  Name = NuBBE_2196
REMARK  8 active torsions:
REMARK  status: ('A' for Active; 'I' for Inactive)
REMARK    1  A    between atoms: C_1  and  C_2
REMARK    2  A    between atoms: C_9  and  O_11
REMARK    3  A    between atoms: O_11  and  C_12
REMARK    4  A    between atoms: C_12  and  C_13
REMARK    5  A    between atoms: C_15  and  C_16
REMARK    6  A    between atoms: C_15  and  C_18
REMARK    7  A    between atoms: C_22  and  C_23
REMARK    8  A    between atoms: C_22  and  C_24
REMARK                            x       y       z     vdW  Elec       q    Type
REMARK                         _______ _______ _______ _____ _____    ______ ____
ROOT
ATOM      1  C   LIG A   1      -8.601  -0.022 125.579  0.00  0.00    +0.016 C 
ATOM      2  C   LIG A   1      -7.105  -0.189 125.211  0.00  0.00    -0.007 C 
ATOM      3  C   LIG A   1      -6.609  -1.666 125.400  0.00  0.00    +0.012 C 
ATOM      4  C   LIG A   1      -6.543  -2.048 126.880  0.00  0.00    +0.084 C 
ATOM      5  C   LIG A   1      -5.611  -1.117 127.609  0.00  0.00    +0.160 C 
ATOM      6  C   LIG A   1      -5.586   0.323 127.205  0.00  0.00    -0.004 C 
ATOM      7  C   LIG A   1      -6.306   0.757 126.146  0.00  0.00    -0.053 C 
ATOM      8  C   LIG A   1      -6.382   2.256 125.855  0.00  0.00    +0.077 C 
ATOM      9  C   LIG A   1      -5.959   3.146 127.043  0.00  0.00    +0.190 C 
ATOM     10  C   LIG A   1      -4.599   2.677 127.631  0.00  0.00    +0.027 C 
ATOM     11  C   LIG A   1      -4.246   3.538 128.867  0.00  0.00    +0.019 C 
ATOM     12  C   LIG A   1      -4.758   1.208 128.112  0.00  0.00    +0.053 C 
ATOM     13  O   LIG A   1      -4.940  -1.509 128.563  0.00  0.00    -0.292 OA
ATOM     14  C   LIG A   1      -7.315  -2.740 124.494  0.00  0.00    -0.031 C 
ATOM     15  C   LIG A   1      -6.344  -3.935 124.301  0.00  0.00    +0.011 C 
ATOM     16  C   LIG A   1      -8.608  -3.335 125.093  0.00  0.00    +0.011 C 
ATOM     17  C   LIG A   1      -7.641  -2.144 123.098  0.00  0.00    +0.007 C 
ATOM     18  C   LIG A   1      -6.738  -0.971 122.743  0.00  0.00    +0.001 C 
ATOM     19  C   LIG A   1      -6.901   0.205 123.712  0.00  0.00    +0.011 C 
ENDROOT
BRANCH  10  20
ATOM     20  C   LIG A   1      -3.483   2.881 126.596  0.00  0.00    -0.024 C 
ATOM     21  C   LIG A   1      -2.183   3.116 126.835  0.00  0.00    +0.004 C 
ENDBRANCH  10  20
BRANCH   9  22
ATOM     22  O   LIG A   1      -6.965   3.073 128.086  0.00  0.00    -0.460 OA
BRANCH  22  23
ATOM     23  C   LIG A   1      -7.766   4.151 128.255  0.00  0.00    +0.304 C 
ATOM     24  C   LIG A   1      -7.878   4.489 129.706  0.00  0.00    +0.136 C 
ATOM     25  O   LIG A   1      -8.322   4.774 127.349  0.00  0.00    -0.251 OA
ENDBRANCH  22  23
ENDBRANCH   9  22
TORSDOF 3
ENDMDL
MODEL 7
REMARK VINA RESULT:      -7.1      6.338      8.634
REMARK  Name = NuBBE_2196
REMARK  8 active torsions:
REMARK  status: ('A' for Active; 'I' for Inactive)
REMARK    1  A    between atoms: C_1  and  C_2
REMARK    2  A    between atoms: C_9  and  O_11
REMARK    3  A    between atoms: O_11  and  C_12
REMARK    4  A    between atoms: C_12  and  C_13
REMARK    5  A    between atoms: C_15  and  C_16
REMARK    6  A    between atoms: C_15  and  C_18
REMARK    7  A    between atoms: C_22  and  C_23
REMARK    8  A    between atoms: C_22  and  C_24
REMARK                            x       y       z     vdW  Elec       q    Type
REMARK                         _______ _______ _______ _____ _____    ______ ____
ROOT
ATOM      1  C   LIG A   1      -6.527   2.336 130.324  0.00  0.00    +0.016 C 
ATOM      2  C   LIG A   1      -5.856   3.233 131.394  0.00  0.00    -0.007 C 
ATOM      3  C   LIG A   1      -6.906   4.045 132.230  0.00  0.00    +0.012 C 
ATOM      4  C   LIG A   1      -7.576   5.130 131.384  0.00  0.00    +0.084 C 
ATOM      5  C   LIG A   1      -6.535   6.076 130.846  0.00  0.00    +0.160 C 
ATOM      6  C   LIG A   1      -5.211   5.515 130.434  0.00  0.00    -0.004 C 
ATOM      7  C   LIG A   1      -4.919   4.210 130.635  0.00  0.00    -0.053 C 
ATOM      8  C   LIG A   1      -3.624   3.636 130.063  0.00  0.00    +0.077 C 
ATOM      9  C   LIG A   1      -2.980   4.513 128.969  0.00  0.00    +0.190 C 
ATOM     10  C   LIG A   1      -2.873   5.992 129.434  0.00  0.00    +0.027 C 
ATOM     11  C   LIG A   1      -2.299   6.855 128.285  0.00  0.00    +0.019 C 
ATOM     12  C   LIG A   1      -4.305   6.510 129.740  0.00  0.00    +0.053 C 
ATOM     13  O   LIG A   1      -6.789   7.268 130.676  0.00  0.00    -0.292 OA
ATOM     14  C   LIG A   1      -7.912   3.182 133.076  0.00  0.00    -0.031 C 
ATOM     15  C   LIG A   1      -8.400   4.035 134.278  0.00  0.00    +0.011 C 
ATOM     16  C   LIG A   1      -9.186   2.752 132.316  0.00  0.00    +0.011 C 
ATOM     17  C   LIG A   1      -7.209   1.914 133.630  0.00  0.00    +0.007 C 
ATOM     18  C   LIG A   1      -5.702   2.088 133.739  0.00  0.00    +0.001 C 
ATOM     19  C   LIG A   1      -5.042   2.331 132.378  0.00  0.00    +0.011 C 
ENDROOT
BRANCH  10  20
ATOM     20  C   LIG A   1      -1.901   6.099 130.618  0.00  0.00    -0.024 C 
ATOM     21  C   LIG A   1      -1.912   7.013 131.600  0.00  0.00    +0.004 C 
ENDBRANCH  10  20
BRANCH   9  22
ATOM     22  O   LIG A   1      -3.791   4.462 127.767  0.00  0.00    -0.460 OA
BRANCH  22  23
ATOM     23  C   LIG A   1      -3.500   3.501 126.859  0.00  0.00    +0.304 C 
ATOM     24  C   LIG A   1      -2.020   3.362 126.710  0.00  0.00    +0.136 C 
ATOM     25  O   LIG A   1      -4.329   2.828 126.244  0.00  0.00    -0.251 OA
ENDBRANCH  22  23
ENDBRANCH   9  22
TORSDOF 3
ENDMDL
MODEL 8
REMARK VINA RESULT:      -6.9      2.128      3.439
REMARK  Name = NuBBE_2196
REMARK  8 active torsions:
REMARK  status: ('A' for Active; 'I' for Inactive)
REMARK    1  A    between atoms: C_1  and  C_2
REMARK    2  A    between atoms: C_9  and  O_11
REMARK    3  A    between atoms: O_11  and  C_12
REMARK    4  A    between atoms: C_12  and  C_13
REMARK    5  A    between atoms: C_15  and  C_16
REMARK    6  A    between atoms: C_15  and  C_18
REMARK    7  A    between atoms: C_22  and  C_23
REMARK    8  A    between atoms: C_22  and  C_24
REMARK                            x       y       z     vdW  Elec       q    Type
REMARK                         _______ _______ _______ _____ _____    ______ ____
ROOT
ATOM      1  C   LIG A   1      -7.376  -3.509 129.201  0.00  0.00    +0.016 C 
ATOM      2  C   LIG A   1      -6.395  -2.312 129.145  0.00  0.00    -0.007 C 
ATOM      3  C   LIG A   1      -6.293  -1.563 130.520  0.00  0.00    +0.012 C 
ATOM      4  C   LIG A   1      -7.584  -0.808 130.843  0.00  0.00    +0.084 C 
ATOM      5  C   LIG A   1      -7.877   0.192 129.757  0.00  0.00    +0.160 C 
ATOM      6  C   LIG A   1      -7.560  -0.180 128.343  0.00  0.00    -0.004 C 
ATOM      7  C   LIG A   1      -6.932  -1.343 128.058  0.00  0.00    -0.053 C 
ATOM      8  C   LIG A   1      -6.763  -1.766 126.599  0.00  0.00    +0.077 C 
ATOM      9  C   LIG A   1      -7.688  -1.013 125.619  0.00  0.00    +0.190 C 
ATOM     10  C   LIG A   1      -7.615   0.521 125.852  0.00  0.00    +0.027 C 
ATOM     11  C   LIG A   1      -8.612   1.236 124.911  0.00  0.00    +0.019 C 
ATOM     12  C   LIG A   1      -8.057   0.812 127.313  0.00  0.00    +0.053 C 
ATOM     13  O   LIG A   1      -8.434   1.260 130.011  0.00  0.00    -0.292 OA
ATOM     14  C   LIG A   1      -5.735  -2.417 131.717  0.00  0.00    -0.031 C 
ATOM     15  C   LIG A   1      -5.095  -1.454 132.752  0.00  0.00    +0.011 C 
ATOM     16  C   LIG A   1      -6.808  -3.218 132.488  0.00  0.00    +0.011 C 
ATOM     17  C   LIG A   1      -4.641  -3.400 131.221  0.00  0.00    +0.007 C 
ATOM     18  C   LIG A   1      -3.980  -2.930 129.934  0.00  0.00    +0.001 C 
ATOM     19  C   LIG A   1      -4.971  -2.837 128.769  0.00  0.00    +0.011 C 
ENDROOT
BRANCH  10  20
ATOM     20  C   LIG A   1      -6.210   1.036 125.509  0.00  0.00    -0.024 C 
ATOM     21  C   LIG A   1      -5.538   2.032 126.108  0.00  0.00    +0.004 C 
ENDBRANCH  10  20
BRANCH   9  22
ATOM     22  O   LIG A   1      -9.059  -1.447 125.816  0.00  0.00    -0.460 OA
BRANCH  22  23
ATOM     23  C   LIG A   1      -9.326  -2.763 125.643  0.00  0.00    +0.304 C 
ATOM     24  C   LIG A   1      -9.214  -3.128 124.198  0.00  0.00    +0.136 C 
ATOM     25  O   LIG A   1      -9.615  -3.556 126.541  0.00  0.00    -0.251 OA
ENDBRANCH  22  23
ENDBRANCH   9  22
TORSDOF 3
ENDMDL
MODEL 9
REMARK VINA RESULT:      -6.8      4.108      5.879
REMARK  Name = NuBBE_2196
REMARK  8 active torsions:
REMARK  status: ('A' for Active; 'I' for Inactive)
REMARK    1  A    between atoms: C_1  and  C_2
REMARK    2  A    between atoms: C_9  and  O_11
REMARK    3  A    between atoms: O_11  and  C_12
REMARK    4  A    between atoms: C_12  and  C_13
REMARK    5  A    between atoms: C_15  and  C_16
REMARK    6  A    between atoms: C_15  and  C_18
REMARK    7  A    between atoms: C_22  and  C_23
REMARK    8  A    between atoms: C_22  and  C_24
REMARK                            x       y       z     vdW  Elec       q    Type
REMARK                         _______ _______ _______ _____ _____    ______ ____
ROOT
ATOM      1  C   LIG A   1      -5.287   1.526 128.268  0.00  0.00    +0.016 C 
ATOM      2  C   LIG A   1      -5.148   2.484 127.058  0.00  0.00    -0.007 C 
ATOM      3  C   LIG A   1      -5.130   3.991 127.494  0.00  0.00    +0.012 C 
ATOM      4  C   LIG A   1      -6.499   4.441 128.008  0.00  0.00    +0.084 C 
ATOM      5  C   LIG A   1      -7.538   4.250 126.935  0.00  0.00    +0.160 C 
ATOM      6  C   LIG A   1      -7.428   3.052 126.045  0.00  0.00    -0.004 C 
ATOM      7  C   LIG A   1      -6.368   2.218 126.135  0.00  0.00    -0.053 C 
ATOM      8  C   LIG A   1      -6.362   0.923 125.324  0.00  0.00    +0.077 C 
ATOM      9  C   LIG A   1      -7.752   0.509 124.797  0.00  0.00    +0.190 C 
ATOM     10  C   LIG A   1      -8.457   1.701 124.093  0.00  0.00    +0.027 C 
ATOM     11  C   LIG A   1      -9.877   1.275 123.650  0.00  0.00    +0.019 C 
ATOM     12  C   LIG A   1      -8.613   2.852 125.125  0.00  0.00    +0.053 C 
ATOM     13  O   LIG A   1      -8.497   5.014 126.838  0.00  0.00    -0.292 OA
ATOM     14  C   LIG A   1      -3.929   4.416 128.417  0.00  0.00    -0.031 C 
ATOM     15  C   LIG A   1      -3.675   5.935 128.224  0.00  0.00    +0.011 C 
ATOM     16  C   LIG A   1      -4.179   4.215 129.927  0.00  0.00    +0.011 C 
ATOM     17  C   LIG A   1      -2.640   3.649 128.018  0.00  0.00    +0.007 C 
ATOM     18  C   LIG A   1      -2.672   3.171 126.574  0.00  0.00    +0.001 C 
ATOM     19  C   LIG A   1      -3.808   2.176 126.314  0.00  0.00    +0.011 C 
ENDROOT
BRANCH  10  20
ATOM     20  C   LIG A   1      -7.681   2.096 122.828  0.00  0.00    -0.024 C 
ATOM     21  C   LIG A   1      -7.112   3.281 122.557  0.00  0.00    +0.004 C 
ENDBRANCH  10  20
BRANCH   9  22
ATOM     22  O   LIG A   1      -8.579   0.070 125.905  0.00  0.00    -0.460 OA
BRANCH  22  23
ATOM     23  C   LIG A   1      -8.427  -1.207 126.327  0.00  0.00    +0.304 C 
ATOM     24  C   LIG A   1      -8.937  -2.158 125.294  0.00  0.00    +0.136 C 
ATOM     25  O   LIG A   1      -7.935  -1.548 127.405  0.00  0.00    -0.251 OA
ENDBRANCH  22  23
ENDBRANCH   9  22
TORSDOF 3
ENDMDL
