MODEL 1
REMARK VINA RESULT:      -7.1      0.000      0.000
REMARK  Name = NuBBE_1427
REMARK  6 active torsions:
REMARK  status: ('A' for Active; 'I' for Inactive)
REMARK    1  A    between atoms: C_1  and  C_2
REMARK    2  A    between atoms: C_4  and  O_6
REMARK    3  A    between atoms: C_7  and  C_9
REMARK    4  A    between atoms: C_9  and  C_11
REMARK    5  A    between atoms: C_9  and  C_12
REMARK    6  A    between atoms: C_19  and  O_21
REMARK                            x       y       z     vdW  Elec       q    Type
REMARK                         _______ _______ _______ _____ _____    ______ ____
ROOT
ATOM      1  C   LIG A   1      -7.896  -4.479 124.852  0.00  0.00    +0.014 C 
ATOM      2  C   LIG A   1      -8.391  -3.016 125.006  0.00  0.00    +0.003 C 
ATOM      3  C   LIG A   1      -7.213  -2.031 125.293  0.00  0.00    +0.052 C 
ATOM      4  C   LIG A   1      -6.558  -2.277 126.683  0.00  0.00    +0.126 C 
ATOM      5  C   LIG A   1      -7.603  -2.254 127.830  0.00  0.00    +0.021 C 
ATOM      6  C   LIG A   1      -8.762  -3.220 127.543  0.00  0.00    +0.007 C 
ATOM      7  C   LIG A   1      -9.400  -2.960 126.180  0.00  0.00    +0.010 C 
ATOM      8  C   LIG A   1      -6.282  -2.003 124.075  0.00  0.00    -0.070 C 
ATOM      9  C   LIG A   1      -6.965  -1.541 122.808  0.00  0.00    +0.033 C 
ATOM     10  C   LIG A   1      -8.178  -2.411 122.495  0.00  0.00    +0.036 C 
ATOM     11  C   LIG A   1      -9.114  -2.547 123.703  0.00  0.00    +0.121 C 
ATOM     12  C   LIG A   1      -4.984  -2.348 124.067  0.00  0.00    +0.008 C 
ENDROOT
BRANCH   5  13
ATOM     13  C   LIG A   1      -6.967  -2.459 129.241  0.00  0.00    -0.012 C 
ATOM     14  C   LIG A   1      -7.719  -1.683 130.329  0.00  0.00    +0.007 C 
ATOM     15  C   LIG A   1      -6.836  -3.926 129.660  0.00  0.00    +0.007 C 
ENDBRANCH   5  13
BRANCH   4  16
ATOM     16  O   LIG A   1      -5.607  -1.233 126.927  0.00  0.00    -0.391 OA
ATOM     17  H   LIG A   1      -5.891  -0.758 127.726  0.00  0.00    +0.210 HD
ENDBRANCH   4  16
BRANCH  11  18
ATOM     18  O   LIG A   1     -10.195  -3.416 123.363  0.00  0.00    -0.391 OA
ATOM     19  H   LIG A   1      -9.825  -4.287 123.144  0.00  0.00    +0.210 HD
ENDBRANCH  11  18
TORSDOF 3
ENDMDL
MODEL 2
REMARK VINA RESULT:      -6.1      8.364     10.818
REMARK  Name = NuBBE_1427
REMARK  6 active torsions:
REMARK  status: ('A' for Active; 'I' for Inactive)
REMARK    1  A    between atoms: C_1  and  C_2
REMARK    2  A    between atoms: C_4  and  O_6
REMARK    3  A    between atoms: C_7  and  C_9
REMARK    4  A    between atoms: C_9  and  C_11
REMARK    5  A    between atoms: C_9  and  C_12
REMARK    6  A    between atoms: C_19  and  O_21
REMARK                            x       y       z     vdW  Elec       q    Type
REMARK                         _______ _______ _______ _____ _____    ______ ____
ROOT
ATOM      1  C   LIG A   1      -5.546   5.253 130.495  0.00  0.00    +0.014 C 
ATOM      2  C   LIG A   1      -4.062   5.032 130.891  0.00  0.00    +0.003 C 
ATOM      3  C   LIG A   1      -3.105   6.004 130.128  0.00  0.00    +0.052 C 
ATOM      4  C   LIG A   1      -3.058   5.714 128.600  0.00  0.00    +0.126 C 
ATOM      5  C   LIG A   1      -2.709   4.232 128.301  0.00  0.00    +0.021 C 
ATOM      6  C   LIG A   1      -3.648   3.278 129.056  0.00  0.00    +0.007 C 
ATOM      7  C   LIG A   1      -3.676   3.570 130.555  0.00  0.00    +0.010 C 
ATOM      8  C   LIG A   1      -3.416   7.443 130.558  0.00  0.00    -0.070 C 
ATOM      9  C   LIG A   1      -3.222   7.682 132.038  0.00  0.00    +0.033 C 
ATOM     10  C   LIG A   1      -4.070   6.716 132.860  0.00  0.00    +0.036 C 
ATOM     11  C   LIG A   1      -3.868   5.260 132.424  0.00  0.00    +0.121 C 
ATOM     12  C   LIG A   1      -3.827   8.436 129.752  0.00  0.00    +0.008 C 
ENDROOT
BRANCH   5  13
ATOM     13  C   LIG A   1      -2.616   3.921 126.774  0.00  0.00    -0.012 C 
ATOM     14  C   LIG A   1      -1.477   2.946 126.453  0.00  0.00    +0.007 C 
ATOM     15  C   LIG A   1      -3.920   3.400 126.161  0.00  0.00    +0.007 C 
ENDBRANCH   5  13
BRANCH   4  16
ATOM     16  O   LIG A   1      -2.043   6.536 128.013  0.00  0.00    -0.391 OA
ATOM     17  H   LIG A   1      -1.734   6.092 127.206  0.00  0.00    +0.210 HD
ENDBRANCH   4  16
BRANCH  11  18
ATOM     18  O   LIG A   1      -4.729   4.417 133.190  0.00  0.00    -0.391 OA
ATOM     19  H   LIG A   1      -4.441   4.453 134.118  0.00  0.00    +0.210 HD
ENDBRANCH  11  18
TORSDOF 3
ENDMDL
MODEL 3
REMARK VINA RESULT:      -6.0      2.362      5.290
REMARK  Name = NuBBE_1427
REMARK  6 active torsions:
REMARK  status: ('A' for Active; 'I' for Inactive)
REMARK    1  A    between atoms: C_1  and  C_2
REMARK    2  A    between atoms: C_4  and  O_6
REMARK    3  A    between atoms: C_7  and  C_9
REMARK    4  A    between atoms: C_9  and  C_11
REMARK    5  A    between atoms: C_9  and  C_12
REMARK    6  A    between atoms: C_19  and  O_21
REMARK                            x       y       z     vdW  Elec       q    Type
REMARK                         _______ _______ _______ _____ _____    ______ ____
ROOT
ATOM      1  C   LIG A   1      -5.989  -1.749 126.862  0.00  0.00    +0.014 C 
ATOM      2  C   LIG A   1      -7.417  -1.281 127.250  0.00  0.00    +0.003 C 
ATOM      3  C   LIG A   1      -8.477  -1.697 126.179  0.00  0.00    +0.052 C 
ATOM      4  C   LIG A   1      -8.273  -0.959 124.824  0.00  0.00    +0.126 C 
ATOM      5  C   LIG A   1      -8.229   0.582 125.002  0.00  0.00    +0.021 C 
ATOM      6  C   LIG A   1      -7.190   0.988 126.059  0.00  0.00    +0.007 C 
ATOM      7  C   LIG A   1      -7.409   0.262 127.385  0.00  0.00    +0.010 C 
ATOM      8  C   LIG A   1      -8.564  -3.227 126.137  0.00  0.00    -0.070 C 
ATOM      9  C   LIG A   1      -8.982  -3.841 127.454  0.00  0.00    +0.033 C 
ATOM     10  C   LIG A   1      -8.036  -3.421 128.574  0.00  0.00    +0.036 C 
ATOM     11  C   LIG A   1      -7.840  -1.900 128.620  0.00  0.00    +0.121 C 
ATOM     12  C   LIG A   1      -8.303  -4.003 125.071  0.00  0.00    +0.008 C 
ENDROOT
BRANCH   5  13
ATOM     13  C   LIG A   1      -8.064   1.350 123.653  0.00  0.00    -0.012 C 
ATOM     14  C   LIG A   1      -9.322   2.148 123.289  0.00  0.00    +0.007 C 
ATOM     15  C   LIG A   1      -6.843   2.273 123.603  0.00  0.00    +0.007 C 
ENDBRANCH   5  13
BRANCH   4  16
ATOM     16  O   LIG A   1      -9.375  -1.275 123.965  0.00  0.00    -0.391 OA
ATOM     17  H   LIG A   1     -10.151  -1.435 124.529  0.00  0.00    +0.210 HD
ENDBRANCH   4  16
BRANCH  11  18
ATOM     18  O   LIG A   1      -6.903  -1.579 129.649  0.00  0.00    -0.391 OA
ATOM     19  H   LIG A   1      -6.938  -2.281 130.320  0.00  0.00    +0.210 HD
ENDBRANCH  11  18
TORSDOF 3
ENDMDL
MODEL 4
REMARK VINA RESULT:      -5.9      9.491     11.665
REMARK  Name = NuBBE_1427
REMARK  6 active torsions:
REMARK  status: ('A' for Active; 'I' for Inactive)
REMARK    1  A    between atoms: C_1  and  C_2
REMARK    2  A    between atoms: C_4  and  O_6
REMARK    3  A    between atoms: C_7  and  C_9
REMARK    4  A    between atoms: C_9  and  C_11
REMARK    5  A    between atoms: C_9  and  C_12
REMARK    6  A    between atoms: C_19  and  O_21
REMARK                            x       y       z     vdW  Elec       q    Type
REMARK                         _______ _______ _______ _____ _____    ______ ____
ROOT
ATOM      1  C   LIG A   1      -7.234   4.620 130.995  0.00  0.00    +0.014 C 
ATOM      2  C   LIG A   1      -7.502   5.859 131.890  0.00  0.00    +0.003 C 
ATOM      3  C   LIG A   1      -8.827   5.711 132.705  0.00  0.00    +0.052 C 
ATOM      4  C   LIG A   1     -10.089   5.715 131.794  0.00  0.00    +0.126 C 
ATOM      5  C   LIG A   1     -10.134   6.961 130.869  0.00  0.00    +0.021 C 
ATOM      6  C   LIG A   1      -8.828   7.107 130.073  0.00  0.00    +0.007 C 
ATOM      7  C   LIG A   1      -7.601   7.110 130.981  0.00  0.00    +0.010 C 
ATOM      8  C   LIG A   1      -8.676   4.544 133.687  0.00  0.00    -0.070 C 
ATOM      9  C   LIG A   1      -7.550   4.735 134.678  0.00  0.00    +0.033 C 
ATOM     10  C   LIG A   1      -6.225   4.961 133.958  0.00  0.00    +0.036 C 
ATOM     11  C   LIG A   1      -6.328   6.067 132.900  0.00  0.00    +0.121 C 
ATOM     12  C   LIG A   1      -9.432   3.433 133.714  0.00  0.00    +0.008 C 
ENDROOT
BRANCH   5  13
ATOM     13  C   LIG A   1     -11.410   7.011 129.972  0.00  0.00    -0.012 C 
ATOM     14  C   LIG A   1     -12.376   8.119 130.408  0.00  0.00    +0.007 C 
ATOM     15  C   LIG A   1     -11.117   7.150 128.475  0.00  0.00    +0.007 C 
ENDBRANCH   5  13
BRANCH   4  16
ATOM     16  O   LIG A   1     -11.252   5.742 132.631  0.00  0.00    -0.391 OA
ATOM     17  H   LIG A   1     -11.843   5.028 132.337  0.00  0.00    +0.210 HD
ENDBRANCH   4  16
BRANCH  11  18
ATOM     18  O   LIG A   1      -5.076   6.189 132.225  0.00  0.00    -0.391 OA
ATOM     19  H   LIG A   1      -5.106   5.637 131.427  0.00  0.00    +0.210 HD
ENDBRANCH  11  18
TORSDOF 3
ENDMDL
MODEL 5
REMARK VINA RESULT:      -5.9      2.034      5.534
REMARK  Name = NuBBE_1427
REMARK  6 active torsions:
REMARK  status: ('A' for Active; 'I' for Inactive)
REMARK    1  A    between atoms: C_1  and  C_2
REMARK    2  A    between atoms: C_4  and  O_6
REMARK    3  A    between atoms: C_7  and  C_9
REMARK    4  A    between atoms: C_9  and  C_11
REMARK    5  A    between atoms: C_9  and  C_12
REMARK    6  A    between atoms: C_19  and  O_21
REMARK                            x       y       z     vdW  Elec       q    Type
REMARK                         _______ _______ _______ _____ _____    ______ ____
ROOT
ATOM      1  C   LIG A   1      -5.986  -0.688 127.836  0.00  0.00    +0.014 C 
ATOM      2  C   LIG A   1      -7.522  -0.582 128.027  0.00  0.00    +0.003 C 
ATOM      3  C   LIG A   1      -8.153  -1.952 128.435  0.00  0.00    +0.052 C 
ATOM      4  C   LIG A   1      -8.061  -3.011 127.299  0.00  0.00    +0.126 C 
ATOM      5  C   LIG A   1      -8.664  -2.489 125.967  0.00  0.00    +0.021 C 
ATOM      6  C   LIG A   1      -8.045  -1.140 125.570  0.00  0.00    +0.007 C 
ATOM      7  C   LIG A   1      -8.151  -0.109 126.693  0.00  0.00    +0.010 C 
ATOM      8  C   LIG A   1      -7.614  -2.355 129.813  0.00  0.00    -0.070 C 
ATOM      9  C   LIG A   1      -7.944  -1.358 130.901  0.00  0.00    +0.033 C 
ATOM     10  C   LIG A   1      -7.424   0.030 130.543  0.00  0.00    +0.036 C 
ATOM     11  C   LIG A   1      -7.862   0.462 129.138  0.00  0.00    +0.121 C 
ATOM     12  C   LIG A   1      -6.908  -3.464 130.090  0.00  0.00    +0.008 C 
ENDROOT
BRANCH   5  13
ATOM     13  C   LIG A   1      -8.620  -3.546 124.820  0.00  0.00    -0.012 C 
ATOM     14  C   LIG A   1      -9.496  -3.138 123.629  0.00  0.00    +0.007 C 
ATOM     15  C   LIG A   1      -7.208  -3.874 124.325  0.00  0.00    +0.007 C 
ENDBRANCH   5  13
BRANCH   4  16
ATOM     16  O   LIG A   1      -8.803  -4.170 127.697  0.00  0.00    -0.391 OA
ATOM     17  H   LIG A   1      -9.732  -4.025 127.450  0.00  0.00    +0.210 HD
ENDBRANCH   4  16
BRANCH  11  18
ATOM     18  O   LIG A   1      -7.297   1.740 128.843  0.00  0.00    -0.391 OA
ATOM     19  H   LIG A   1      -7.097   2.184 129.683  0.00  0.00    +0.210 HD
ENDBRANCH  11  18
TORSDOF 3
ENDMDL
MODEL 6
REMARK VINA RESULT:      -5.4      9.669     11.225
REMARK  Name = NuBBE_1427
REMARK  6 active torsions:
REMARK  status: ('A' for Active; 'I' for Inactive)
REMARK    1  A    between atoms: C_1  and  C_2
REMARK    2  A    between atoms: C_4  and  O_6
REMARK    3  A    between atoms: C_7  and  C_9
REMARK    4  A    between atoms: C_9  and  C_11
REMARK    5  A    between atoms: C_9  and  C_12
REMARK    6  A    between atoms: C_19  and  O_21
REMARK                            x       y       z     vdW  Elec       q    Type
REMARK                         _______ _______ _______ _____ _____    ______ ____
ROOT
ATOM      1  C   LIG A   1      -4.981   4.807 130.389  0.00  0.00    +0.014 C 
ATOM      2  C   LIG A   1      -4.783   6.132 131.173  0.00  0.00    +0.003 C 
ATOM      3  C   LIG A   1      -4.049   5.899 132.533  0.00  0.00    +0.052 C 
ATOM      4  C   LIG A   1      -4.907   5.076 133.537  0.00  0.00    +0.126 C 
ATOM      5  C   LIG A   1      -6.309   5.705 133.756  0.00  0.00    +0.021 C 
ATOM      6  C   LIG A   1      -7.026   5.938 132.417  0.00  0.00    +0.007 C 
ATOM      7  C   LIG A   1      -6.175   6.754 131.446  0.00  0.00    +0.010 C 
ATOM      8  C   LIG A   1      -2.629   5.396 132.249  0.00  0.00    -0.070 C 
ATOM      9  C   LIG A   1      -1.798   6.368 131.443  0.00  0.00    +0.033 C 
ATOM     10  C   LIG A   1      -2.485   6.708 130.124  0.00  0.00    +0.036 C 
ATOM     11  C   LIG A   1      -3.941   7.143 130.331  0.00  0.00    +0.121 C 
ATOM     12  C   LIG A   1      -2.116   4.218 132.643  0.00  0.00    +0.008 C 
ENDROOT
BRANCH   5  13
ATOM     13  C   LIG A   1      -7.176   4.922 134.790  0.00  0.00    -0.012 C 
ATOM     14  C   LIG A   1      -7.604   5.806 135.968  0.00  0.00    +0.007 C 
ATOM     15  C   LIG A   1      -8.411   4.246 134.186  0.00  0.00    +0.007 C 
ENDBRANCH   5  13
BRANCH   4  16
ATOM     16  O   LIG A   1      -4.229   5.054 134.800  0.00  0.00    -0.391 OA
ATOM     17  H   LIG A   1      -3.553   5.751 134.783  0.00  0.00    +0.210 HD
ENDBRANCH   4  16
BRANCH  11  18
ATOM     18  O   LIG A   1      -4.542   7.390 129.059  0.00  0.00    -0.391 OA
ATOM     19  H   LIG A   1      -3.945   7.961 128.548  0.00  0.00    +0.210 HD
ENDBRANCH  11  18
TORSDOF 3
ENDMDL
MODEL 7
REMARK VINA RESULT:      -5.2      7.482      9.701
REMARK  Name = NuBBE_1427
REMARK  6 active torsions:
REMARK  status: ('A' for Active; 'I' for Inactive)
REMARK    1  A    between atoms: C_1  and  C_2
REMARK    2  A    between atoms: C_4  and  O_6
REMARK    3  A    between atoms: C_7  and  C_9
REMARK    4  A    between atoms: C_9  and  C_11
REMARK    5  A    between atoms: C_9  and  C_12
REMARK    6  A    between atoms: C_19  and  O_21
REMARK                            x       y       z     vdW  Elec       q    Type
REMARK                         _______ _______ _______ _____ _____    ______ ____
ROOT
ATOM      1  C   LIG A   1      -5.185   5.507 129.850  0.00  0.00    +0.014 C 
ATOM      2  C   LIG A   1      -4.015   4.535 130.161  0.00  0.00    +0.003 C 
ATOM      3  C   LIG A   1      -2.866   4.652 129.108  0.00  0.00    +0.052 C 
ATOM      4  C   LIG A   1      -3.301   4.163 127.696  0.00  0.00    +0.126 C 
ATOM      5  C   LIG A   1      -3.884   2.725 127.733  0.00  0.00    +0.021 C 
ATOM      6  C   LIG A   1      -5.010   2.611 128.773  0.00  0.00    +0.007 C 
ATOM      7  C   LIG A   1      -4.565   3.087 130.154  0.00  0.00    +0.010 C 
ATOM      8  C   LIG A   1      -2.248   6.052 129.205  0.00  0.00    -0.070 C 
ATOM      9  C   LIG A   1      -1.656   6.354 130.562  0.00  0.00    +0.033 C 
ATOM     10  C   LIG A   1      -2.701   6.189 131.661  0.00  0.00    +0.036 C 
ATOM     11  C   LIG A   1      -3.417   4.836 131.572  0.00  0.00    +0.121 C 
ATOM     12  C   LIG A   1      -2.209   6.967 128.221  0.00  0.00    +0.008 C 
ENDROOT
BRANCH   5  13
ATOM     13  C   LIG A   1      -4.292   2.194 126.324  0.00  0.00    -0.012 C 
ATOM     14  C   LIG A   1      -4.992   0.832 126.403  0.00  0.00    +0.007 C 
ATOM     15  C   LIG A   1      -5.159   3.165 125.516  0.00  0.00    +0.007 C 
ENDBRANCH   5  13
BRANCH   4  16
ATOM     16  O   LIG A   1      -2.149   4.153 126.845  0.00  0.00    -0.391 OA
ATOM     17  H   LIG A   1      -2.325   3.532 126.118  0.00  0.00    +0.210 HD
ENDBRANCH   4  16
BRANCH  11  18
ATOM     18  O   LIG A   1      -4.418   4.767 132.588  0.00  0.00    -0.391 OA
ATOM     19  H   LIG A   1      -4.630   5.673 132.866  0.00  0.00    +0.210 HD
ENDBRANCH  11  18
TORSDOF 3
ENDMDL
MODEL 8
REMARK VINA RESULT:      -5.2      2.243      5.675
REMARK  Name = NuBBE_1427
REMARK  6 active torsions:
REMARK  status: ('A' for Active; 'I' for Inactive)
REMARK    1  A    between atoms: C_1  and  C_2
REMARK    2  A    between atoms: C_4  and  O_6
REMARK    3  A    between atoms: C_7  and  C_9
REMARK    4  A    between atoms: C_9  and  C_11
REMARK    5  A    between atoms: C_9  and  C_12
REMARK    6  A    between atoms: C_19  and  O_21
REMARK                            x       y       z     vdW  Elec       q    Type
REMARK                         _______ _______ _______ _____ _____    ______ ____
ROOT
ATOM      1  C   LIG A   1      -7.992  -1.072 130.191  0.00  0.00    +0.014 C 
ATOM      2  C   LIG A   1      -6.922  -2.141 129.846  0.00  0.00    +0.003 C 
ATOM      3  C   LIG A   1      -5.964  -1.660 128.709  0.00  0.00    +0.052 C 
ATOM      4  C   LIG A   1      -6.692  -1.506 127.343  0.00  0.00    +0.126 C 
ATOM      5  C   LIG A   1      -7.441  -2.803 126.934  0.00  0.00    +0.021 C 
ATOM      6  C   LIG A   1      -8.379  -3.277 128.055  0.00  0.00    +0.007 C 
ATOM      7  C   LIG A   1      -7.648  -3.431 129.387  0.00  0.00    +0.010 C 
ATOM      8  C   LIG A   1      -5.162  -0.455 129.215  0.00  0.00    -0.070 C 
ATOM      9  C   LIG A   1      -4.314  -0.765 130.427  0.00  0.00    +0.033 C 
ATOM     10  C   LIG A   1      -5.169  -1.314 131.565  0.00  0.00    +0.036 C 
ATOM     11  C   LIG A   1      -6.059  -2.475 131.104  0.00  0.00    +0.121 C 
ATOM     12  C   LIG A   1      -5.174   0.779 128.683  0.00  0.00    +0.008 C 
ENDROOT
BRANCH   5  13
ATOM     13  C   LIG A   1      -8.149  -2.690 125.548  0.00  0.00    -0.012 C 
ATOM     14  C   LIG A   1      -7.537  -3.639 124.511  0.00  0.00    +0.007 C 
ATOM     15  C   LIG A   1      -9.665  -2.902 125.600  0.00  0.00    +0.007 C 
ENDBRANCH   5  13
BRANCH   4  16
ATOM     16  O   LIG A   1      -5.713  -1.224 126.336  0.00  0.00    -0.391 OA
ATOM     17  H   LIG A   1      -6.140  -0.681 125.653  0.00  0.00    +0.210 HD
ENDBRANCH   4  16
BRANCH  11  18
ATOM     18  O   LIG A   1      -6.872  -2.904 132.196  0.00  0.00    -0.391 OA
ATOM     19  H   LIG A   1      -6.378  -2.755 133.019  0.00  0.00    +0.210 HD
ENDBRANCH  11  18
TORSDOF 3
ENDMDL
MODEL 9
REMARK VINA RESULT:      -5.1      8.054     10.904
REMARK  Name = NuBBE_1427
REMARK  6 active torsions:
REMARK  status: ('A' for Active; 'I' for Inactive)
REMARK    1  A    between atoms: C_1  and  C_2
REMARK    2  A    between atoms: C_4  and  O_6
REMARK    3  A    between atoms: C_7  and  C_9
REMARK    4  A    between atoms: C_9  and  C_11
REMARK    5  A    between atoms: C_9  and  C_12
REMARK    6  A    between atoms: C_19  and  O_21
REMARK                            x       y       z     vdW  Elec       q    Type
REMARK                         _______ _______ _______ _____ _____    ______ ____
ROOT
ATOM      1  C   LIG A   1      -2.123   4.992 131.550  0.00  0.00    +0.014 C 
ATOM      2  C   LIG A   1      -3.174   5.891 130.847  0.00  0.00    +0.003 C 
ATOM      3  C   LIG A   1      -4.490   5.110 130.529  0.00  0.00    +0.052 C 
ATOM      4  C   LIG A   1      -4.277   3.999 129.460  0.00  0.00    +0.126 C 
ATOM      5  C   LIG A   1      -3.627   4.556 128.165  0.00  0.00    +0.021 C 
ATOM      6  C   LIG A   1      -2.337   5.328 128.481  0.00  0.00    +0.007 C 
ATOM      7  C   LIG A   1      -2.564   6.420 129.525  0.00  0.00    +0.010 C 
ATOM      8  C   LIG A   1      -5.150   4.694 131.849  0.00  0.00    -0.070 C 
ATOM      9  C   LIG A   1      -5.518   5.865 132.731  0.00  0.00    +0.033 C 
ATOM     10  C   LIG A   1      -4.295   6.727 133.029  0.00  0.00    +0.036 C 
ATOM     11  C   LIG A   1      -3.539   7.112 131.752  0.00  0.00    +0.121 C 
ATOM     12  C   LIG A   1      -5.399   3.434 132.243  0.00  0.00    +0.008 C 
ENDROOT
BRANCH   5  13
ATOM     13  C   LIG A   1      -3.438   3.470 127.060  0.00  0.00    -0.012 C 
ATOM     14  C   LIG A   1      -4.209   3.813 125.779  0.00  0.00    +0.007 C 
ATOM     15  C   LIG A   1      -1.975   3.181 126.711  0.00  0.00    +0.007 C 
ENDBRANCH   5  13
BRANCH   4  16
ATOM     16  O   LIG A   1      -5.555   3.452 129.114  0.00  0.00    -0.391 OA
ATOM     17  H   LIG A   1      -6.232   4.098 129.373  0.00  0.00    +0.210 HD
ENDBRANCH   4  16
BRANCH  11  18
ATOM     18  O   LIG A   1      -2.378   7.866 132.103  0.00  0.00    -0.391 OA
ATOM     19  H   LIG A   1      -2.066   7.556 132.969  0.00  0.00    +0.210 HD
ENDBRANCH  11  18
TORSDOF 3
ENDMDL
