MODEL 1
REMARK VINA RESULT:      -9.1      0.000      0.000
REMARK  Name = NuBBE_283
REMARK  18 active torsions:
REMARK  status: ('A' for Active; 'I' for Inactive)
REMARK    1  A    between atoms: O_1  and  C_2
REMARK    2  A    between atoms: C_5  and  O_6
REMARK    3  A    between atoms: O_6  and  C_7
REMARK    4  A    between atoms: C_10  and  C_21
REMARK    5  A    between atoms: C_12  and  O_20
REMARK    6  A    between atoms: C_14  and  O_19
REMARK    7  A    between atoms: C_16  and  O_18
REMARK    8  A    between atoms: C_21  and  O_22
REMARK    9  A    between atoms: O_22  and  C_23
REMARK   10  A    between atoms: C_26  and  C_37
REMARK   11  A    between atoms: C_28  and  O_36
REMARK   12  A    between atoms: C_30  and  O_35
REMARK   13  A    between atoms: C_32  and  O_34
REMARK   14  A    between atoms: C_38  and  C_46
REMARK   15  A    between atoms: C_42  and  O_43
REMARK   16  A    between atoms: C_44  and  O_45
REMARK   17  A    between atoms: C_49  and  O_53
REMARK   18  A    between atoms: C_50  and  O_51
REMARK                            x       y       z     vdW  Elec       q    Type
REMARK                         _______ _______ _______ _____ _____    ______ ____
ROOT
ATOM      1  O   LIG A   1      -6.274   1.973 129.130  0.00  0.00    -0.453 OA
ENDROOT
BRANCH   1   5
ATOM      2  C   LIG A   1      -9.250   1.187 125.213  0.00  0.00    +0.177 A 
ATOM      3  C   LIG A   1      -8.069   1.666 125.791  0.00  0.00    +0.113 A 
ATOM      4  C   LIG A   1      -7.667   1.310 127.160  0.00  0.00    +0.238 A 
ATOM      5  C   LIG A   1      -6.526   2.061 127.773  0.00  0.00    +0.214 A 
ATOM      6  C   LIG A   1      -5.843   2.905 126.971  0.00  0.00    +0.181 A 
ATOM      7  O   LIG A   1      -6.108   3.046 125.602  0.00  0.00    -0.451 OA
ATOM      8  C   LIG A   1      -7.254   2.528 125.080  0.00  0.00    +0.147 A 
ATOM      9  C   LIG A   1      -7.575   2.923 123.774  0.00  0.00    +0.096 A 
ATOM     10  C   LIG A   1      -8.751   2.455 123.206  0.00  0.00    +0.166 A 
ATOM     11  C   LIG A   1      -9.587   1.594 123.921  0.00  0.00    +0.202 A 
ATOM     12  O   LIG A   1      -8.318   0.464 127.760  0.00  0.00    -0.283 OA
BRANCH   6  13
ATOM     13  C   LIG A   1      -4.722   3.815 127.372  0.00  0.00    +0.025 A 
ATOM     14  C   LIG A   1      -3.380   3.401 127.410  0.00  0.00    +0.015 A 
ATOM     15  C   LIG A   1      -2.334   4.268 127.734  0.00  0.00    +0.050 A 
ATOM     16  C   LIG A   1      -2.624   5.579 128.053  0.00  0.00    +0.158 A 
ATOM     17  C   LIG A   1      -3.942   6.014 128.074  0.00  0.00    +0.159 A 
ATOM     18  C   LIG A   1      -4.982   5.153 127.739  0.00  0.00    +0.060 A 
BRANCH  17  19
ATOM     19  O   LIG A   1      -4.223   7.306 128.416  0.00  0.00    -0.503 OA
ATOM     20  H   LIG A   1      -3.788   7.423 129.285  0.00  0.00    +0.292 HD
ENDBRANCH  17  19
BRANCH  16  21
ATOM     21  O   LIG A   1      -1.639   6.479 128.340  0.00  0.00    -0.503 OA
ATOM     22  H   LIG A   1      -0.892   5.978 128.710  0.00  0.00    +0.292 HD
ENDBRANCH  16  21
ENDBRANCH   6  13
BRANCH   2  23
ATOM     23  O   LIG A   1     -10.100   0.345 125.880  0.00  0.00    -0.503 OA
ATOM     24  H   LIG A   1     -10.523  -0.248 125.222  0.00  0.00    +0.292 HD
ENDBRANCH   2  23
BRANCH  10  25
ATOM     25  O   LIG A   1      -9.137   2.819 121.945  0.00  0.00    -0.503 OA
ATOM     26  H   LIG A   1     -10.063   2.550 121.809  0.00  0.00    +0.292 HD
ENDBRANCH  10  25
BRANCH  11  27
ATOM     27  O   LIG A   1     -10.743   1.163 123.331  0.00  0.00    -0.501 OA
ATOM     28  H   LIG A   1     -10.475   0.844 122.448  0.00  0.00    +0.292 HD
ENDBRANCH  11  27
ENDBRANCH   1   5
BRANCH   1  29
ATOM     29  C   LIG A   1      -6.877   2.831 130.110  0.00  0.00    +0.340 C 
ATOM     30  O   LIG A   1      -7.654   3.882 129.519  0.00  0.00    -0.331 OA
ATOM     31  C   LIG A   1      -8.399   4.705 130.435  0.00  0.00    +0.179 C 
ATOM     32  C   LIG A   1      -8.452   4.183 131.886  0.00  0.00    +0.177 C 
ATOM     33  C   LIG A   1      -8.818   2.718 131.792  0.00  0.00    +0.180 C 
ATOM     34  C   LIG A   1      -7.711   1.932 131.095  0.00  0.00    +0.214 C 
BRANCH  34  35
ATOM     35  O   LIG A   1      -8.340   0.790 130.482  0.00  0.00    -0.383 OA
ATOM     36  H   LIG A   1      -7.672   0.428 129.865  0.00  0.00    +0.210 HD
ENDBRANCH  34  35
BRANCH  33  37
ATOM     37  O   LIG A   1      -9.078   2.175 133.094  0.00  0.00    -0.386 OA
ATOM     38  H   LIG A   1      -8.721   2.852 133.709  0.00  0.00    +0.210 HD
ENDBRANCH  33  37
BRANCH  32  39
ATOM     39  O   LIG A   1      -9.450   4.826 132.692  0.00  0.00    -0.387 OA
ATOM     40  H   LIG A   1     -10.031   5.303 132.060  0.00  0.00    +0.210 HD
ENDBRANCH  32  39
BRANCH  31  41
ATOM     41  C   LIG A   1      -7.960   6.177 130.382  0.00  0.00    +0.197 C 
BRANCH  41  42
ATOM     42  O   LIG A   1      -9.098   6.997 130.689  0.00  0.00    -0.346 OA
BRANCH  42  43
ATOM     43  C   LIG A   1     -10.100   6.987 129.661  0.00  0.00    +0.282 C 
ATOM     44  O   LIG A   1      -9.901   8.131 128.837  0.00  0.00    -0.343 OA
ATOM     45  C   LIG A   1     -10.903   8.330 127.836  0.00  0.00    +0.149 C 
ATOM     46  C   LIG A   1     -12.290   8.477 128.490  0.00  0.00    +0.174 C 
ATOM     47  C   LIG A   1     -12.621   7.281 129.382  0.00  0.00    +0.179 C 
ATOM     48  C   LIG A   1     -11.480   7.010 130.370  0.00  0.00    +0.201 C 
ATOM     49  C   LIG A   1     -10.814   7.279 126.734  0.00  0.00    +0.040 C 
BRANCH  48  50
ATOM     50  O   LIG A   1     -11.748   5.751 131.024  0.00  0.00    -0.384 OA
ATOM     51  H   LIG A   1     -12.645   5.480 130.754  0.00  0.00    +0.210 HD
ENDBRANCH  48  50
BRANCH  47  52
ATOM     52  O   LIG A   1     -12.881   6.110 128.600  0.00  0.00    -0.386 OA
ATOM     53  H   LIG A   1     -12.223   5.446 128.895  0.00  0.00    +0.210 HD
ENDBRANCH  47  52
BRANCH  46  54
ATOM     54  O   LIG A   1     -12.316   9.648 129.327  0.00  0.00    -0.387 OA
ATOM     55  H   LIG A   1     -13.078  10.194 129.066  0.00  0.00    +0.210 HD
ENDBRANCH  46  54
ENDBRANCH  42  43
ENDBRANCH  41  42
ENDBRANCH  31  41
ENDBRANCH   1  29
TORSDOF 17
ENDMDL
MODEL 2
REMARK VINA RESULT:      -8.9      3.815      7.626
REMARK  Name = NuBBE_283
REMARK  18 active torsions:
REMARK  status: ('A' for Active; 'I' for Inactive)
REMARK    1  A    between atoms: O_1  and  C_2
REMARK    2  A    between atoms: C_5  and  O_6
REMARK    3  A    between atoms: O_6  and  C_7
REMARK    4  A    between atoms: C_10  and  C_21
REMARK    5  A    between atoms: C_12  and  O_20
REMARK    6  A    between atoms: C_14  and  O_19
REMARK    7  A    between atoms: C_16  and  O_18
REMARK    8  A    between atoms: C_21  and  O_22
REMARK    9  A    between atoms: O_22  and  C_23
REMARK   10  A    between atoms: C_26  and  C_37
REMARK   11  A    between atoms: C_28  and  O_36
REMARK   12  A    between atoms: C_30  and  O_35
REMARK   13  A    between atoms: C_32  and  O_34
REMARK   14  A    between atoms: C_38  and  C_46
REMARK   15  A    between atoms: C_42  and  O_43
REMARK   16  A    between atoms: C_44  and  O_45
REMARK   17  A    between atoms: C_49  and  O_53
REMARK   18  A    between atoms: C_50  and  O_51
REMARK                            x       y       z     vdW  Elec       q    Type
REMARK                         _______ _______ _______ _____ _____    ______ ____
ROOT
ATOM      1  O   LIG A   1      -6.926   2.626 128.237  0.00  0.00    -0.453 OA
ENDROOT
BRANCH   1   5
ATOM      2  C   LIG A   1      -6.271  -2.080 129.737  0.00  0.00    +0.177 A 
ATOM      3  C   LIG A   1      -5.856  -0.747 129.630  0.00  0.00    +0.113 A 
ATOM      4  C   LIG A   1      -6.769   0.326 129.212  0.00  0.00    +0.238 A 
ATOM      5  C   LIG A   1      -6.178   1.664 128.891  0.00  0.00    +0.214 A 
ATOM      6  C   LIG A   1      -4.867   1.837 129.159  0.00  0.00    +0.181 A 
ATOM      7  O   LIG A   1      -4.074   0.862 129.779  0.00  0.00    -0.451 OA
ATOM      8  C   LIG A   1      -4.540  -0.414 129.893  0.00  0.00    +0.147 A 
ATOM      9  C   LIG A   1      -3.607  -1.382 130.287  0.00  0.00    +0.096 A 
ATOM     10  C   LIG A   1      -4.018  -2.704 130.382  0.00  0.00    +0.166 A 
ATOM     11  C   LIG A   1      -5.342  -3.053 130.107  0.00  0.00    +0.202 A 
ATOM     12  O   LIG A   1      -7.959   0.066 129.082  0.00  0.00    -0.283 OA
BRANCH   6  13
ATOM     13  C   LIG A   1      -4.040   3.050 128.857  0.00  0.00    +0.025 A 
ATOM     14  C   LIG A   1      -3.190   3.135 127.741  0.00  0.00    +0.015 A 
ATOM     15  C   LIG A   1      -2.462   4.287 127.436  0.00  0.00    +0.050 A 
ATOM     16  C   LIG A   1      -2.557   5.382 128.271  0.00  0.00    +0.158 A 
ATOM     17  C   LIG A   1      -3.348   5.320 129.409  0.00  0.00    +0.159 A 
ATOM     18  C   LIG A   1      -4.083   4.177 129.706  0.00  0.00    +0.060 A 
BRANCH  17  19
ATOM     19  O   LIG A   1      -3.417   6.398 130.245  0.00  0.00    -0.503 OA
ATOM     20  H   LIG A   1      -4.369   6.477 130.455  0.00  0.00    +0.292 HD
ENDBRANCH  17  19
BRANCH  16  21
ATOM     21  O   LIG A   1      -1.898   6.545 128.000  0.00  0.00    -0.503 OA
ATOM     22  H   LIG A   1      -2.455   7.273 128.327  0.00  0.00    +0.292 HD
ENDBRANCH  16  21
ENDBRANCH   6  13
BRANCH   2  23
ATOM     23  O   LIG A   1      -7.559  -2.466 129.472  0.00  0.00    -0.503 OA
ATOM     24  H   LIG A   1      -8.015  -1.724 129.018  0.00  0.00    +0.292 HD
ENDBRANCH   2  23
BRANCH  10  25
ATOM     25  O   LIG A   1      -3.154  -3.703 130.738  0.00  0.00    -0.503 OA
ATOM     26  H   LIG A   1      -2.264  -3.480 130.414  0.00  0.00    +0.292 HD
ENDBRANCH  10  25
BRANCH  11  27
ATOM     27  O   LIG A   1      -5.706  -4.368 130.202  0.00  0.00    -0.501 OA
ATOM     28  H   LIG A   1      -5.200  -4.718 130.959  0.00  0.00    +0.292 HD
ENDBRANCH  11  27
ENDBRANCH   1   5
BRANCH   1  29
ATOM     29  C   LIG A   1      -7.173   2.620 126.824  0.00  0.00    +0.340 C 
ATOM     30  O   LIG A   1      -8.573   2.610 126.510  0.00  0.00    -0.331 OA
ATOM     31  C   LIG A   1      -8.907   2.738 125.116  0.00  0.00    +0.179 C 
ATOM     32  C   LIG A   1      -7.727   3.118 124.195  0.00  0.00    +0.177 C 
ATOM     33  C   LIG A   1      -7.029   4.281 124.866  0.00  0.00    +0.180 C 
ATOM     34  C   LIG A   1      -6.413   3.843 126.192  0.00  0.00    +0.214 C 
BRANCH  34  35
ATOM     35  O   LIG A   1      -6.360   5.016 127.028  0.00  0.00    -0.383 OA
ATOM     36  H   LIG A   1      -5.455   5.372 126.916  0.00  0.00    +0.210 HD
ENDBRANCH  34  35
BRANCH  33  37
ATOM     37  O   LIG A   1      -6.027   4.837 124.004  0.00  0.00    -0.386 OA
ATOM     38  H   LIG A   1      -6.246   5.794 123.970  0.00  0.00    +0.210 HD
ENDBRANCH  33  37
BRANCH  32  39
ATOM     39  O   LIG A   1      -8.134   3.555 122.891  0.00  0.00    -0.387 OA
ATOM     40  H   LIG A   1      -8.306   4.518 122.977  0.00  0.00    +0.210 HD
ENDBRANCH  32  39
BRANCH  31  41
ATOM     41  C   LIG A   1      -9.662   1.510 124.584  0.00  0.00    +0.197 C 
BRANCH  41  42
ATOM     42  O   LIG A   1      -9.431   0.415 125.484  0.00  0.00    -0.346 OA
BRANCH  42  43
ATOM     43  C   LIG A   1      -8.654  -0.644 124.902  0.00  0.00    +0.282 C 
ATOM     44  O   LIG A   1      -8.970  -0.713 123.515  0.00  0.00    -0.343 OA
ATOM     45  C   LIG A   1      -8.367  -1.806 122.818  0.00  0.00    +0.149 C 
ATOM     46  C   LIG A   1      -8.796  -3.145 123.449  0.00  0.00    +0.174 C 
ATOM     47  C   LIG A   1      -8.477  -3.190 124.942  0.00  0.00    +0.179 C 
ATOM     48  C   LIG A   1      -9.030  -1.949 125.653  0.00  0.00    +0.201 C 
ATOM     49  C   LIG A   1      -6.861  -1.615 122.665  0.00  0.00    +0.040 C 
BRANCH  48  50
ATOM     50  O   LIG A   1      -8.510  -1.939 126.999  0.00  0.00    -0.384 OA
ATOM     51  H   LIG A   1      -7.644  -2.386 126.969  0.00  0.00    +0.210 HD
ENDBRANCH  48  50
BRANCH  47  52
ATOM     52  O   LIG A   1      -7.067  -3.297 125.166  0.00  0.00    -0.386 OA
ATOM     53  H   LIG A   1      -6.787  -4.107 124.691  0.00  0.00    +0.210 HD
ENDBRANCH  47  52
BRANCH  46  54
ATOM     54  O   LIG A   1     -10.220  -3.315 123.315  0.00  0.00    -0.387 OA
ATOM     55  H   LIG A   1     -10.631  -3.148 124.181  0.00  0.00    +0.210 HD
ENDBRANCH  46  54
ENDBRANCH  42  43
ENDBRANCH  41  42
ENDBRANCH  31  41
ENDBRANCH   1  29
TORSDOF 17
ENDMDL
MODEL 3
REMARK VINA RESULT:      -8.7      2.903      8.502
REMARK  Name = NuBBE_283
REMARK  18 active torsions:
REMARK  status: ('A' for Active; 'I' for Inactive)
REMARK    1  A    between atoms: O_1  and  C_2
REMARK    2  A    between atoms: C_5  and  O_6
REMARK    3  A    between atoms: O_6  and  C_7
REMARK    4  A    between atoms: C_10  and  C_21
REMARK    5  A    between atoms: C_12  and  O_20
REMARK    6  A    between atoms: C_14  and  O_19
REMARK    7  A    between atoms: C_16  and  O_18
REMARK    8  A    between atoms: C_21  and  O_22
REMARK    9  A    between atoms: O_22  and  C_23
REMARK   10  A    between atoms: C_26  and  C_37
REMARK   11  A    between atoms: C_28  and  O_36
REMARK   12  A    between atoms: C_30  and  O_35
REMARK   13  A    between atoms: C_32  and  O_34
REMARK   14  A    between atoms: C_38  and  C_46
REMARK   15  A    between atoms: C_42  and  O_43
REMARK   16  A    between atoms: C_44  and  O_45
REMARK   17  A    between atoms: C_49  and  O_53
REMARK   18  A    between atoms: C_50  and  O_51
REMARK                            x       y       z     vdW  Elec       q    Type
REMARK                         _______ _______ _______ _____ _____    ______ ____
ROOT
ATOM      1  O   LIG A   1      -5.201   2.899 127.976  0.00  0.00    -0.453 OA
ENDROOT
BRANCH   1   5
ATOM      2  C   LIG A   1      -8.036   5.371 131.241  0.00  0.00    +0.177 A 
ATOM      3  C   LIG A   1      -7.264   4.267 130.862  0.00  0.00    +0.113 A 
ATOM      4  C   LIG A   1      -6.390   4.292 129.681  0.00  0.00    +0.238 A 
ATOM      5  C   LIG A   1      -5.799   2.996 129.219  0.00  0.00    +0.214 A 
ATOM      6  C   LIG A   1      -5.984   1.919 130.010  0.00  0.00    +0.181 A 
ATOM      7  O   LIG A   1      -6.627   1.981 131.254  0.00  0.00    -0.451 OA
ATOM      8  C   LIG A   1      -7.335   3.094 131.592  0.00  0.00    +0.147 A 
ATOM      9  C   LIG A   1      -8.154   2.989 132.725  0.00  0.00    +0.096 A 
ATOM     10  C   LIG A   1      -8.926   4.082 133.093  0.00  0.00    +0.166 A 
ATOM     11  C   LIG A   1      -8.871   5.266 132.355  0.00  0.00    +0.202 A 
ATOM     12  O   LIG A   1      -6.232   5.353 129.091  0.00  0.00    -0.283 OA
BRANCH   6  13
ATOM     13  C   LIG A   1      -5.558   0.510 129.725  0.00  0.00    +0.025 A 
ATOM     14  C   LIG A   1      -6.239  -0.323 128.822  0.00  0.00    +0.015 A 
ATOM     15  C   LIG A   1      -5.807  -1.617 128.521  0.00  0.00    +0.050 A 
ATOM     16  C   LIG A   1      -4.683  -2.113 129.149  0.00  0.00    +0.158 A 
ATOM     17  C   LIG A   1      -4.012  -1.338 130.085  0.00  0.00    +0.159 A 
ATOM     18  C   LIG A   1      -4.434  -0.045 130.374  0.00  0.00    +0.060 A 
BRANCH  17  19
ATOM     19  O   LIG A   1      -2.915  -1.845 130.722  0.00  0.00    -0.503 OA
ATOM     20  H   LIG A   1      -3.147  -1.794 131.671  0.00  0.00    +0.292 HD
ENDBRANCH  17  19
BRANCH  16  21
ATOM     21  O   LIG A   1      -4.195  -3.355 128.865  0.00  0.00    -0.503 OA
ATOM     22  H   LIG A   1      -3.521  -3.559 129.536  0.00  0.00    +0.292 HD
ENDBRANCH  16  21
ENDBRANCH   6  13
BRANCH   2  23
ATOM     23  O   LIG A   1      -8.016   6.550 130.544  0.00  0.00    -0.503 OA
ATOM     24  H   LIG A   1      -7.087   6.867 130.503  0.00  0.00    +0.292 HD
ENDBRANCH   2  23
BRANCH  10  25
ATOM     25  O   LIG A   1      -9.765   4.039 134.173  0.00  0.00    -0.503 OA
ATOM     26  H   LIG A   1     -10.547   4.588 133.985  0.00  0.00    +0.292 HD
ENDBRANCH  10  25
BRANCH  11  27
ATOM     27  O   LIG A   1      -9.655   6.317 132.744  0.00  0.00    -0.501 OA
ATOM     28  H   LIG A   1     -10.465   6.243 132.205  0.00  0.00    +0.292 HD
ENDBRANCH  11  27
ENDBRANCH   1   5
BRANCH   1  29
ATOM     29  C   LIG A   1      -5.930   2.824 126.742  0.00  0.00    +0.340 C 
ATOM     30  O   LIG A   1      -7.351   2.794 126.944  0.00  0.00    -0.331 OA
ATOM     31  C   LIG A   1      -8.157   2.853 125.753  0.00  0.00    +0.179 C 
ATOM     32  C   LIG A   1      -7.385   3.192 124.459  0.00  0.00    +0.177 C 
ATOM     33  C   LIG A   1      -6.519   4.388 124.788  0.00  0.00    +0.180 C 
ATOM     34  C   LIG A   1      -5.466   4.017 125.829  0.00  0.00    +0.214 C 
BRANCH  34  35
ATOM     35  O   LIG A   1      -5.145   5.229 126.540  0.00  0.00    -0.383 OA
ATOM     36  H   LIG A   1      -4.616   5.763 125.912  0.00  0.00    +0.210 HD
ENDBRANCH  34  35
BRANCH  33  37
ATOM     37  O   LIG A   1      -5.896   4.904 123.604  0.00  0.00    -0.386 OA
ATOM     38  H   LIG A   1      -6.631   5.337 123.118  0.00  0.00    +0.210 HD
ENDBRANCH  33  37
BRANCH  32  39
ATOM     39  O   LIG A   1      -8.235   3.563 123.365  0.00  0.00    -0.387 OA
ATOM     40  H   LIG A   1      -7.805   3.197 122.561  0.00  0.00    +0.210 HD
ENDBRANCH  32  39
BRANCH  31  41
ATOM     41  C   LIG A   1      -9.027   1.598 125.578  0.00  0.00    +0.197 C 
BRANCH  41  42
ATOM     42  O   LIG A   1      -8.471   0.811 124.514  0.00  0.00    -0.346 OA
BRANCH  42  43
ATOM     43  C   LIG A   1      -8.723  -0.596 124.657  0.00  0.00    +0.282 C 
ATOM     44  O   LIG A   1      -7.668  -1.157 125.433  0.00  0.00    -0.343 OA
ATOM     45  C   LIG A   1      -7.710  -2.581 125.558  0.00  0.00    +0.149 C 
ATOM     46  C   LIG A   1      -7.654  -3.243 124.168  0.00  0.00    +0.174 C 
ATOM     47  C   LIG A   1      -8.767  -2.729 123.255  0.00  0.00    +0.179 C 
ATOM     48  C   LIG A   1      -8.781  -1.196 123.227  0.00  0.00    +0.201 C 
ATOM     49  C   LIG A   1      -8.866  -3.035 126.445  0.00  0.00    +0.040 C 
BRANCH  48  50
ATOM     50  O   LIG A   1      -9.976  -0.775 122.537  0.00  0.00    -0.384 OA
ATOM     51  H   LIG A   1     -10.459  -0.187 123.146  0.00  0.00    +0.210 HD
ENDBRANCH  48  50
BRANCH  47  52
ATOM     52  O   LIG A   1     -10.045  -3.224 123.670  0.00  0.00    -0.386 OA
ATOM     53  H   LIG A   1      -9.959  -3.397 124.631  0.00  0.00    +0.210 HD
ENDBRANCH  47  52
BRANCH  46  54
ATOM     54  O   LIG A   1      -6.404  -2.930 123.527  0.00  0.00    -0.387 OA
ATOM     55  H   LIG A   1      -5.727  -3.547 123.856  0.00  0.00    +0.210 HD
ENDBRANCH  46  54
ENDBRANCH  42  43
ENDBRANCH  41  42
ENDBRANCH  31  41
ENDBRANCH   1  29
TORSDOF 17
ENDMDL
MODEL 4
REMARK VINA RESULT:      -8.7      1.449      2.185
REMARK  Name = NuBBE_283
REMARK  18 active torsions:
REMARK  status: ('A' for Active; 'I' for Inactive)
REMARK    1  A    between atoms: O_1  and  C_2
REMARK    2  A    between atoms: C_5  and  O_6
REMARK    3  A    between atoms: O_6  and  C_7
REMARK    4  A    between atoms: C_10  and  C_21
REMARK    5  A    between atoms: C_12  and  O_20
REMARK    6  A    between atoms: C_14  and  O_19
REMARK    7  A    between atoms: C_16  and  O_18
REMARK    8  A    between atoms: C_21  and  O_22
REMARK    9  A    between atoms: O_22  and  C_23
REMARK   10  A    between atoms: C_26  and  C_37
REMARK   11  A    between atoms: C_28  and  O_36
REMARK   12  A    between atoms: C_30  and  O_35
REMARK   13  A    between atoms: C_32  and  O_34
REMARK   14  A    between atoms: C_38  and  C_46
REMARK   15  A    between atoms: C_42  and  O_43
REMARK   16  A    between atoms: C_44  and  O_45
REMARK   17  A    between atoms: C_49  and  O_53
REMARK   18  A    between atoms: C_50  and  O_51
REMARK                            x       y       z     vdW  Elec       q    Type
REMARK                         _______ _______ _______ _____ _____    ______ ____
ROOT
ATOM      1  O   LIG A   1      -7.072   2.750 129.522  0.00  0.00    -0.453 OA
ENDROOT
BRANCH   1   5
ATOM      2  C   LIG A   1      -8.617   2.318 124.806  0.00  0.00    +0.177 A 
ATOM      3  C   LIG A   1      -7.644   2.622 125.765  0.00  0.00    +0.113 A 
ATOM      4  C   LIG A   1      -7.796   2.252 127.179  0.00  0.00    +0.238 A 
ATOM      5  C   LIG A   1      -6.828   2.832 128.163  0.00  0.00    +0.214 A 
ATOM      6  C   LIG A   1      -5.787   3.531 127.664  0.00  0.00    +0.181 A 
ATOM      7  O   LIG A   1      -5.542   3.668 126.291  0.00  0.00    -0.451 OA
ATOM      8  C   LIG A   1      -6.509   3.321 125.395  0.00  0.00    +0.147 A 
ATOM      9  C   LIG A   1      -6.296   3.718 124.068  0.00  0.00    +0.096 A 
ATOM     10  C   LIG A   1      -7.267   3.424 123.122  0.00  0.00    +0.166 A 
ATOM     11  C   LIG A   1      -8.422   2.730 123.487  0.00  0.00    +0.202 A 
ATOM     12  O   LIG A   1      -8.739   1.540 127.500  0.00  0.00    -0.283 OA
BRANCH   6  13
ATOM     13  C   LIG A   1      -4.740   4.265 128.446  0.00  0.00    +0.025 A 
ATOM     14  C   LIG A   1      -4.287   3.835 129.704  0.00  0.00    +0.015 A 
ATOM     15  C   LIG A   1      -3.274   4.494 130.404  0.00  0.00    +0.050 A 
ATOM     16  C   LIG A   1      -2.707   5.627 129.856  0.00  0.00    +0.158 A 
ATOM     17  C   LIG A   1      -3.163   6.111 128.638  0.00  0.00    +0.159 A 
ATOM     18  C   LIG A   1      -4.162   5.447 127.935  0.00  0.00    +0.060 A 
BRANCH  17  19
ATOM     19  O   LIG A   1      -2.615   7.248 128.113  0.00  0.00    -0.503 OA
ATOM     20  H   LIG A   1      -2.110   7.634 128.857  0.00  0.00    +0.292 HD
ENDBRANCH  17  19
BRANCH  16  21
ATOM     21  O   LIG A   1      -1.689   6.289 130.478  0.00  0.00    -0.503 OA
ATOM     22  H   LIG A   1      -1.601   7.155 130.043  0.00  0.00    +0.292 HD
ENDBRANCH  16  21
ENDBRANCH   6  13
BRANCH   2  23
ATOM     23  O   LIG A   1      -9.767   1.643 125.121  0.00  0.00    -0.503 OA
ATOM     24  H   LIG A   1      -9.847   0.874 124.517  0.00  0.00    +0.292 HD
ENDBRANCH   2  23
BRANCH  10  25
ATOM     25  O   LIG A   1      -7.135   3.804 121.814  0.00  0.00    -0.503 OA
ATOM     26  H   LIG A   1      -6.606   3.135 121.344  0.00  0.00    +0.292 HD
ENDBRANCH  10  25
BRANCH  11  27
ATOM     27  O   LIG A   1      -9.361   2.468 122.526  0.00  0.00    -0.501 OA
ATOM     28  H   LIG A   1     -10.066   1.976 122.987  0.00  0.00    +0.292 HD
ENDBRANCH  11  27
ENDBRANCH   1   5
BRANCH   1  29
ATOM     29  C   LIG A   1      -7.937   3.649 130.233  0.00  0.00    +0.340 C 
ATOM     30  O   LIG A   1      -9.314   3.252 130.171  0.00  0.00    -0.331 OA
ATOM     31  C   LIG A   1     -10.229   4.025 130.969  0.00  0.00    +0.179 C 
ATOM     32  C   LIG A   1      -9.563   5.001 131.963  0.00  0.00    +0.177 C 
ATOM     33  C   LIG A   1      -8.495   4.205 132.681  0.00  0.00    +0.180 C 
ATOM     34  C   LIG A   1      -7.402   3.774 131.707  0.00  0.00    +0.214 C 
BRANCH  34  35
ATOM     35  O   LIG A   1      -6.825   2.567 132.243  0.00  0.00    -0.383 OA
ATOM     36  H   LIG A   1      -5.863   2.648 132.082  0.00  0.00    +0.210 HD
ENDBRANCH  34  35
BRANCH  33  37
ATOM     37  O   LIG A   1      -7.936   4.964 133.761  0.00  0.00    -0.386 OA
ATOM     38  H   LIG A   1      -8.695   5.113 134.366  0.00  0.00    +0.210 HD
ENDBRANCH  33  37
BRANCH  32  39
ATOM     39  O   LIG A   1     -10.463   5.510 132.958  0.00  0.00    -0.387 OA
ATOM     40  H   LIG A   1     -10.004   6.281 133.358  0.00  0.00    +0.210 HD
ENDBRANCH  32  39
BRANCH  31  41
ATOM     41  C   LIG A   1     -11.292   4.732 130.113  0.00  0.00    +0.197 C 
BRANCH  41  42
ATOM     42  O   LIG A   1     -11.595   5.995 130.725  0.00  0.00    -0.346 OA
BRANCH  42  43
ATOM     43  C   LIG A   1     -11.712   7.070 129.779  0.00  0.00    +0.282 C 
ATOM     44  O   LIG A   1     -12.939   6.907 129.074  0.00  0.00    -0.343 OA
ATOM     45  C   LIG A   1     -13.142   7.834 128.005  0.00  0.00    +0.149 C 
ATOM     46  C   LIG A   1     -12.005   7.717 126.972  0.00  0.00    +0.174 C 
ATOM     47  C   LIG A   1     -10.634   7.903 127.621  0.00  0.00    +0.179 C 
ATOM     48  C   LIG A   1     -10.481   6.985 128.839  0.00  0.00    +0.201 C 
ATOM     49  C   LIG A   1     -13.401   9.245 128.524  0.00  0.00    +0.040 C 
BRANCH  48  50
ATOM     50  O   LIG A   1      -9.272   7.362 129.531  0.00  0.00    -0.384 OA
ATOM     51  H   LIG A   1      -9.531   7.588 130.444  0.00  0.00    +0.210 HD
ENDBRANCH  48  50
BRANCH  47  52
ATOM     52  O   LIG A   1     -10.426   9.267 128.005  0.00  0.00    -0.386 OA
ATOM     53  H   LIG A   1     -11.101   9.451 128.692  0.00  0.00    +0.210 HD
ENDBRANCH  47  52
BRANCH  46  54
ATOM     54  O   LIG A   1     -12.016   6.405 126.378  0.00  0.00    -0.387 OA
ATOM     55  H   LIG A   1     -11.133   6.012 126.487  0.00  0.00    +0.210 HD
ENDBRANCH  46  54
ENDBRANCH  42  43
ENDBRANCH  41  42
ENDBRANCH  31  41
ENDBRANCH   1  29
TORSDOF 17
ENDMDL
MODEL 5
REMARK VINA RESULT:      -8.6      4.414      7.564
REMARK  Name = NuBBE_283
REMARK  18 active torsions:
REMARK  status: ('A' for Active; 'I' for Inactive)
REMARK    1  A    between atoms: O_1  and  C_2
REMARK    2  A    between atoms: C_5  and  O_6
REMARK    3  A    between atoms: O_6  and  C_7
REMARK    4  A    between atoms: C_10  and  C_21
REMARK    5  A    between atoms: C_12  and  O_20
REMARK    6  A    between atoms: C_14  and  O_19
REMARK    7  A    between atoms: C_16  and  O_18
REMARK    8  A    between atoms: C_21  and  O_22
REMARK    9  A    between atoms: O_22  and  C_23
REMARK   10  A    between atoms: C_26  and  C_37
REMARK   11  A    between atoms: C_28  and  O_36
REMARK   12  A    between atoms: C_30  and  O_35
REMARK   13  A    between atoms: C_32  and  O_34
REMARK   14  A    between atoms: C_38  and  C_46
REMARK   15  A    between atoms: C_42  and  O_43
REMARK   16  A    between atoms: C_44  and  O_45
REMARK   17  A    between atoms: C_49  and  O_53
REMARK   18  A    between atoms: C_50  and  O_51
REMARK                            x       y       z     vdW  Elec       q    Type
REMARK                         _______ _______ _______ _____ _____    ______ ____
ROOT
ATOM      1  O   LIG A   1      -7.962   2.373 125.255  0.00  0.00    -0.453 OA
ENDROOT
BRANCH   1   5
ATOM      2  C   LIG A   1      -7.873   3.771 120.475  0.00  0.00    +0.177 A 
ATOM      3  C   LIG A   1      -7.247   3.527 121.703  0.00  0.00    +0.113 A 
ATOM      4  C   LIG A   1      -7.915   2.795 122.789  0.00  0.00    +0.238 A 
ATOM      5  C   LIG A   1      -7.266   2.799 124.139  0.00  0.00    +0.214 A 
ATOM      6  C   LIG A   1      -6.034   3.342 124.228  0.00  0.00    +0.181 A 
ATOM      7  O   LIG A   1      -5.325   3.823 123.119  0.00  0.00    -0.451 OA
ATOM      8  C   LIG A   1      -5.971   4.008 121.933  0.00  0.00    +0.147 A 
ATOM      9  C   LIG A   1      -5.273   4.723 120.951  0.00  0.00    +0.096 A 
ATOM     10  C   LIG A   1      -5.899   4.973 119.738  0.00  0.00    +0.166 A 
ATOM     11  C   LIG A   1      -7.192   4.502 119.500  0.00  0.00    +0.202 A 
ATOM     12  O   LIG A   1      -8.998   2.270 122.563  0.00  0.00    -0.283 OA
BRANCH   6  13
ATOM     13  C   LIG A   1      -5.222   3.529 125.473  0.00  0.00    +0.025 A 
ATOM     14  C   LIG A   1      -4.495   2.488 126.074  0.00  0.00    +0.015 A 
ATOM     15  C   LIG A   1      -3.698   2.681 127.205  0.00  0.00    +0.050 A 
ATOM     16  C   LIG A   1      -3.637   3.936 127.776  0.00  0.00    +0.158 A 
ATOM     17  C   LIG A   1      -4.380   4.979 127.241  0.00  0.00    +0.159 A 
ATOM     18  C   LIG A   1      -5.162   4.789 126.107  0.00  0.00    +0.060 A 
BRANCH  17  19
ATOM     19  O   LIG A   1      -4.335   6.212 127.827  0.00  0.00    -0.503 OA
ATOM     20  H   LIG A   1      -5.012   6.730 127.346  0.00  0.00    +0.292 HD
ENDBRANCH  17  19
BRANCH  16  21
ATOM     21  O   LIG A   1      -2.846   4.190 128.858  0.00  0.00    -0.503 OA
ATOM     22  H   LIG A   1      -2.517   5.101 128.766  0.00  0.00    +0.292 HD
ENDBRANCH  16  21
ENDBRANCH   6  13
BRANCH   2  23
ATOM     23  O   LIG A   1      -9.141   3.331 120.201  0.00  0.00    -0.503 OA
ATOM     24  H   LIG A   1      -9.133   2.350 120.206  0.00  0.00    +0.292 HD
ENDBRANCH   2  23
BRANCH  10  25
ATOM     25  O   LIG A   1      -5.285   5.685 118.744  0.00  0.00    -0.503 OA
ATOM     26  H   LIG A   1      -5.626   5.384 117.884  0.00  0.00    +0.292 HD
ENDBRANCH  10  25
BRANCH  11  27
ATOM     27  O   LIG A   1      -7.779   4.778 118.295  0.00  0.00    -0.501 OA
ATOM     28  H   LIG A   1      -8.723   4.918 118.498  0.00  0.00    +0.292 HD
ENDBRANCH  11  27
ENDBRANCH   1   5
BRANCH   1  29
ATOM     29  C   LIG A   1      -7.821   1.066 125.834  0.00  0.00    +0.340 C 
ATOM     30  O   LIG A   1      -7.885   1.089 127.267  0.00  0.00    -0.331 OA
ATOM     31  C   LIG A   1      -7.886  -0.195 127.917  0.00  0.00    +0.179 C 
ATOM     32  C   LIG A   1      -8.070  -1.403 126.974  0.00  0.00    +0.177 C 
ATOM     33  C   LIG A   1      -9.241  -1.063 126.079  0.00  0.00    +0.180 C 
ATOM     34  C   LIG A   1      -8.904   0.129 125.186  0.00  0.00    +0.214 C 
BRANCH  34  35
ATOM     35  O   LIG A   1     -10.154   0.777 124.876  0.00  0.00    -0.383 OA
ATOM     36  H   LIG A   1     -10.546   1.007 125.743  0.00  0.00    +0.210 HD
ENDBRANCH  34  35
BRANCH  33  37
ATOM     37  O   LIG A   1      -9.620  -2.196 125.285  0.00  0.00    -0.386 OA
ATOM     38  H   LIG A   1      -8.954  -2.213 124.564  0.00  0.00    +0.210 HD
ENDBRANCH  33  37
BRANCH  32  39
ATOM     39  O   LIG A   1      -8.391  -2.622 127.659  0.00  0.00    -0.387 OA
ATOM     40  H   LIG A   1      -8.638  -2.355 128.572  0.00  0.00    +0.210 HD
ENDBRANCH  32  39
BRANCH  31  41
ATOM     41  C   LIG A   1      -6.669  -0.380 128.838  0.00  0.00    +0.197 C 
BRANCH  41  42
ATOM     42  O   LIG A   1      -5.888  -1.475 128.337  0.00  0.00    -0.346 OA
BRANCH  42  43
ATOM     43  C   LIG A   1      -5.422  -2.359 129.368  0.00  0.00    +0.282 C 
ATOM     44  O   LIG A   1      -6.560  -2.899 130.034  0.00  0.00    -0.343 OA
ATOM     45  C   LIG A   1      -6.258  -3.706 131.175  0.00  0.00    +0.149 C 
ATOM     46  C   LIG A   1      -5.467  -2.890 132.214  0.00  0.00    +0.174 C 
ATOM     47  C   LIG A   1      -4.202  -2.283 131.609  0.00  0.00    +0.179 C 
ATOM     48  C   LIG A   1      -4.530  -1.520 130.320  0.00  0.00    +0.201 C 
ATOM     49  C   LIG A   1      -5.620  -5.033 130.773  0.00  0.00    +0.040 C 
BRANCH  48  50
ATOM     50  O   LIG A   1      -3.284  -1.165 129.684  0.00  0.00    -0.384 OA
ATOM     51  H   LIG A   1      -2.573  -1.566 130.216  0.00  0.00    +0.210 HD
ENDBRANCH  48  50
BRANCH  47  52
ATOM     52  O   LIG A   1      -3.221  -3.291 131.345  0.00  0.00    -0.386 OA
ATOM     53  H   LIG A   1      -3.557  -4.104 131.778  0.00  0.00    +0.210 HD
ENDBRANCH  47  52
BRANCH  46  54
ATOM     54  O   LIG A   1      -6.272  -1.797 132.694  0.00  0.00    -0.387 OA
ATOM     55  H   LIG A   1      -5.692  -1.171 133.162  0.00  0.00    +0.210 HD
ENDBRANCH  46  54
ENDBRANCH  42  43
ENDBRANCH  41  42
ENDBRANCH  31  41
ENDBRANCH   1  29
TORSDOF 17
ENDMDL
MODEL 6
REMARK VINA RESULT:      -8.5      1.807      2.923
REMARK  Name = NuBBE_283
REMARK  18 active torsions:
REMARK  status: ('A' for Active; 'I' for Inactive)
REMARK    1  A    between atoms: O_1  and  C_2
REMARK    2  A    between atoms: C_5  and  O_6
REMARK    3  A    between atoms: O_6  and  C_7
REMARK    4  A    between atoms: C_10  and  C_21
REMARK    5  A    between atoms: C_12  and  O_20
REMARK    6  A    between atoms: C_14  and  O_19
REMARK    7  A    between atoms: C_16  and  O_18
REMARK    8  A    between atoms: C_21  and  O_22
REMARK    9  A    between atoms: O_22  and  C_23
REMARK   10  A    between atoms: C_26  and  C_37
REMARK   11  A    between atoms: C_28  and  O_36
REMARK   12  A    between atoms: C_30  and  O_35
REMARK   13  A    between atoms: C_32  and  O_34
REMARK   14  A    between atoms: C_38  and  C_46
REMARK   15  A    between atoms: C_42  and  O_43
REMARK   16  A    between atoms: C_44  and  O_45
REMARK   17  A    between atoms: C_49  and  O_53
REMARK   18  A    between atoms: C_50  and  O_51
REMARK                            x       y       z     vdW  Elec       q    Type
REMARK                         _______ _______ _______ _____ _____    ______ ____
ROOT
ATOM      1  O   LIG A   1      -5.436   0.347 127.533  0.00  0.00    -0.453 OA
ENDROOT
BRANCH   1   5
ATOM      2  C   LIG A   1      -8.700   0.341 123.770  0.00  0.00    +0.177 A 
ATOM      3  C   LIG A   1      -7.570   0.844 124.425  0.00  0.00    +0.113 A 
ATOM      4  C   LIG A   1      -6.923   0.126 125.533  0.00  0.00    +0.238 A 
ATOM      5  C   LIG A   1      -5.882   0.854 126.326  0.00  0.00    +0.214 A 
ATOM      6  C   LIG A   1      -5.497   2.064 125.872  0.00  0.00    +0.181 A 
ATOM      7  O   LIG A   1      -5.968   2.621 124.675  0.00  0.00    -0.451 OA
ATOM      8  C   LIG A   1      -7.049   2.070 124.054  0.00  0.00    +0.147 A 
ATOM      9  C   LIG A   1      -7.616   2.820 123.015  0.00  0.00    +0.096 A 
ATOM     10  C   LIG A   1      -8.742   2.323 122.373  0.00  0.00    +0.166 A 
ATOM     11  C   LIG A   1      -9.283   1.093 122.748  0.00  0.00    +0.202 A 
ATOM     12  O   LIG A   1      -7.305  -1.007 125.799  0.00  0.00    -0.283 OA
BRANCH   6  13
ATOM     13  C   LIG A   1      -4.536   3.007 126.530  0.00  0.00    +0.025 A 
ATOM     14  C   LIG A   1      -3.153   2.770 126.588  0.00  0.00    +0.015 A 
ATOM     15  C   LIG A   1      -2.257   3.678 127.157  0.00  0.00    +0.050 A 
ATOM     16  C   LIG A   1      -2.743   4.845 127.709  0.00  0.00    +0.158 A 
ATOM     17  C   LIG A   1      -4.109   5.093 127.716  0.00  0.00    +0.159 A 
ATOM     18  C   LIG A   1      -5.000   4.195 127.137  0.00  0.00    +0.060 A 
BRANCH  17  19
ATOM     19  O   LIG A   1      -4.586   6.238 128.287  0.00  0.00    -0.503 OA
ATOM     20  H   LIG A   1      -3.784   6.773 128.455  0.00  0.00    +0.292 HD
ENDBRANCH  17  19
BRANCH  16  21
ATOM     21  O   LIG A   1      -1.910   5.784 128.244  0.00  0.00    -0.503 OA
ATOM     22  H   LIG A   1      -1.739   5.524 129.166  0.00  0.00    +0.292 HD
ENDBRANCH  16  21
ENDBRANCH   6  13
BRANCH   2  23
ATOM     23  O   LIG A   1      -9.266  -0.860 124.109  0.00  0.00    -0.503 OA
ATOM     24  H   LIG A   1      -8.736  -1.255 124.834  0.00  0.00    +0.292 HD
ENDBRANCH   2  23
BRANCH  10  25
ATOM     25  O   LIG A   1      -9.360   3.014 121.367  0.00  0.00    -0.503 OA
ATOM     26  H   LIG A   1     -10.196   2.567 121.146  0.00  0.00    +0.292 HD
ENDBRANCH  10  25
BRANCH  11  27
ATOM     27  O   LIG A   1     -10.400   0.642 122.099  0.00  0.00    -0.501 OA
ATOM     28  H   LIG A   1     -11.149   1.072 122.552  0.00  0.00    +0.292 HD
ENDBRANCH  11  27
ENDBRANCH   1   5
BRANCH   1  29
ATOM     29  C   LIG A   1      -6.177   0.437 128.759  0.00  0.00    +0.340 C 
ATOM     30  O   LIG A   1      -7.404   1.165 128.609  0.00  0.00    -0.331 OA
ATOM     31  C   LIG A   1      -8.268   1.186 129.759  0.00  0.00    +0.179 C 
ATOM     32  C   LIG A   1      -7.867   0.219 130.894  0.00  0.00    +0.177 C 
ATOM     33  C   LIG A   1      -7.600  -1.116 130.233  0.00  0.00    +0.180 C 
ATOM     34  C   LIG A   1      -6.393  -1.022 129.305  0.00  0.00    +0.214 C 
BRANCH  34  35
ATOM     35  O   LIG A   1      -6.578  -2.025 128.286  0.00  0.00    -0.383 OA
ATOM     36  H   LIG A   1      -5.676  -2.322 128.050  0.00  0.00    +0.210 HD
ENDBRANCH  34  35
BRANCH  33  37
ATOM     37  O   LIG A   1      -7.400  -2.139 131.218  0.00  0.00    -0.386 OA
ATOM     38  H   LIG A   1      -8.172  -2.046 131.818  0.00  0.00    +0.210 HD
ENDBRANCH  33  37
BRANCH  32  39
ATOM     39  O   LIG A   1      -8.900   0.018 131.869  0.00  0.00    -0.387 OA
ATOM     40  H   LIG A   1      -9.288  -0.861 131.665  0.00  0.00    +0.210 HD
ENDBRANCH  32  39
BRANCH  31  41
ATOM     41  C   LIG A   1      -8.496   2.611 130.289  0.00  0.00    +0.197 C 
BRANCH  41  42
ATOM     42  O   LIG A   1      -9.876   2.736 130.664  0.00  0.00    -0.346 OA
BRANCH  42  43
ATOM     43  C   LIG A   1     -10.285   4.096 130.878  0.00  0.00    +0.282 C 
ATOM     44  O   LIG A   1     -10.120   4.806 129.654  0.00  0.00    -0.343 OA
ATOM     45  C   LIG A   1     -10.368   6.211 129.739  0.00  0.00    +0.149 C 
ATOM     46  C   LIG A   1      -9.426   6.860 130.771  0.00  0.00    +0.174 C 
ATOM     47  C   LIG A   1      -9.543   6.188 132.139  0.00  0.00    +0.179 C 
ATOM     48  C   LIG A   1      -9.392   4.667 132.011  0.00  0.00    +0.201 C 
ATOM     49  C   LIG A   1     -11.851   6.510 129.938  0.00  0.00    +0.040 C 
BRANCH  48  50
ATOM     50  O   LIG A   1      -9.730   4.078 133.284  0.00  0.00    -0.384 OA
ATOM     51  H   LIG A   1     -10.335   4.700 133.729  0.00  0.00    +0.210 HD
ENDBRANCH  48  50
BRANCH  47  52
ATOM     52  O   LIG A   1     -10.790   6.506 132.766  0.00  0.00    -0.386 OA
ATOM     53  H   LIG A   1     -11.368   5.731 132.608  0.00  0.00    +0.210 HD
ENDBRANCH  47  52
BRANCH  46  54
ATOM     54  O   LIG A   1      -8.058   6.715 130.345  0.00  0.00    -0.387 OA
ATOM     55  H   LIG A   1      -7.862   5.766 130.262  0.00  0.00    +0.210 HD
ENDBRANCH  46  54
ENDBRANCH  42  43
ENDBRANCH  41  42
ENDBRANCH  31  41
ENDBRANCH   1  29
TORSDOF 17
ENDMDL
MODEL 7
REMARK VINA RESULT:      -8.1      2.983      8.353
REMARK  Name = NuBBE_283
REMARK  18 active torsions:
REMARK  status: ('A' for Active; 'I' for Inactive)
REMARK    1  A    between atoms: O_1  and  C_2
REMARK    2  A    between atoms: C_5  and  O_6
REMARK    3  A    between atoms: O_6  and  C_7
REMARK    4  A    between atoms: C_10  and  C_21
REMARK    5  A    between atoms: C_12  and  O_20
REMARK    6  A    between atoms: C_14  and  O_19
REMARK    7  A    between atoms: C_16  and  O_18
REMARK    8  A    between atoms: C_21  and  O_22
REMARK    9  A    between atoms: O_22  and  C_23
REMARK   10  A    between atoms: C_26  and  C_37
REMARK   11  A    between atoms: C_28  and  O_36
REMARK   12  A    between atoms: C_30  and  O_35
REMARK   13  A    between atoms: C_32  and  O_34
REMARK   14  A    between atoms: C_38  and  C_46
REMARK   15  A    between atoms: C_42  and  O_43
REMARK   16  A    between atoms: C_44  and  O_45
REMARK   17  A    between atoms: C_49  and  O_53
REMARK   18  A    between atoms: C_50  and  O_51
REMARK                            x       y       z     vdW  Elec       q    Type
REMARK                         _______ _______ _______ _____ _____    ______ ____
ROOT
ATOM      1  O   LIG A   1      -6.563   2.488 128.178  0.00  0.00    -0.453 OA
ENDROOT
BRANCH   1   5
ATOM      2  C   LIG A   1      -6.180  -2.124 130.022  0.00  0.00    +0.177 A 
ATOM      3  C   LIG A   1      -6.792  -0.867 129.954  0.00  0.00    +0.113 A 
ATOM      4  C   LIG A   1      -6.509   0.083 128.868  0.00  0.00    +0.238 A 
ATOM      5  C   LIG A   1      -7.018   1.484 129.013  0.00  0.00    +0.214 A 
ATOM      6  C   LIG A   1      -7.835   1.738 130.057  0.00  0.00    +0.181 A 
ATOM      7  O   LIG A   1      -8.274   0.747 130.946  0.00  0.00    -0.451 OA
ATOM      8  C   LIG A   1      -7.671  -0.475 130.947  0.00  0.00    +0.147 A 
ATOM      9  C   LIG A   1      -7.983  -1.320 132.020  0.00  0.00    +0.096 A 
ATOM     10  C   LIG A   1      -7.368  -2.562 132.090  0.00  0.00    +0.166 A 
ATOM     11  C   LIG A   1      -6.469  -2.962 131.100  0.00  0.00    +0.202 A 
ATOM     12  O   LIG A   1      -5.820  -0.290 127.927  0.00  0.00    -0.283 OA
BRANCH   6  13
ATOM     13  C   LIG A   1      -8.403   3.067 130.452  0.00  0.00    +0.025 A 
ATOM     14  C   LIG A   1      -7.699   3.994 131.239  0.00  0.00    +0.015 A 
ATOM     15  C   LIG A   1      -8.213   5.252 131.560  0.00  0.00    +0.050 A 
ATOM     16  C   LIG A   1      -9.471   5.597 131.112  0.00  0.00    +0.158 A 
ATOM     17  C   LIG A   1     -10.218   4.690 130.374  0.00  0.00    +0.159 A 
ATOM     18  C   LIG A   1      -9.701   3.442 130.042  0.00  0.00    +0.060 A 
BRANCH  17  19
ATOM     19  O   LIG A   1     -11.474   5.028 129.955  0.00  0.00    -0.503 OA
ATOM     20  H   LIG A   1     -12.049   4.341 130.347  0.00  0.00    +0.292 HD
ENDBRANCH  17  19
BRANCH  16  21
ATOM     21  O   LIG A   1     -10.007   6.826 131.364  0.00  0.00    -0.503 OA
ATOM     22  H   LIG A   1      -9.652   7.437 130.695  0.00  0.00    +0.292 HD
ENDBRANCH  16  21
ENDBRANCH   6  13
BRANCH   2  23
ATOM     23  O   LIG A   1      -5.289  -2.554 129.074  0.00  0.00    -0.503 OA
ATOM     24  H   LIG A   1      -5.750  -2.575 128.207  0.00  0.00    +0.292 HD
ENDBRANCH   2  23
BRANCH  10  25
ATOM     25  O   LIG A   1      -7.608  -3.427 133.123  0.00  0.00    -0.503 OA
ATOM     26  H   LIG A   1      -7.854  -2.914 133.912  0.00  0.00    +0.292 HD
ENDBRANCH  10  25
BRANCH  11  27
ATOM     27  O   LIG A   1      -5.875  -4.189 131.210  0.00  0.00    -0.501 OA
ATOM     28  H   LIG A   1      -6.463  -4.705 131.793  0.00  0.00    +0.292 HD
ENDBRANCH  11  27
ENDBRANCH   1   5
BRANCH   1  29
ATOM     29  C   LIG A   1      -6.920   2.597 126.792  0.00  0.00    +0.340 C 
ATOM     30  O   LIG A   1      -8.340   2.613 126.589  0.00  0.00    -0.331 OA
ATOM     31  C   LIG A   1      -8.781   2.853 125.240  0.00  0.00    +0.179 C 
ATOM     32  C   LIG A   1      -7.674   3.305 124.264  0.00  0.00    +0.177 C 
ATOM     33  C   LIG A   1      -6.918   4.410 124.969  0.00  0.00    +0.180 C 
ATOM     34  C   LIG A   1      -6.203   3.866 126.203  0.00  0.00    +0.214 C 
BRANCH  34  35
ATOM     35  O   LIG A   1      -6.076   4.968 127.124  0.00  0.00    -0.383 OA
ATOM     36  H   LIG A   1      -6.544   5.715 126.698  0.00  0.00    +0.210 HD
ENDBRANCH  34  35
BRANCH  33  37
ATOM     37  O   LIG A   1      -5.982   5.033 124.079  0.00  0.00    -0.386 OA
ATOM     38  H   LIG A   1      -5.768   5.885 124.517  0.00  0.00    +0.210 HD
ENDBRANCH  33  37
BRANCH  32  39
ATOM     39  O   LIG A   1      -8.179   3.846 123.034  0.00  0.00    -0.387 OA
ATOM     40  H   LIG A   1      -7.739   4.718 122.930  0.00  0.00    +0.210 HD
ENDBRANCH  32  39
BRANCH  31  41
ATOM     41  C   LIG A   1      -9.585   1.673 124.673  0.00  0.00    +0.197 C 
BRANCH  41  42
ATOM     42  O   LIG A   1      -8.672   0.785 124.010  0.00  0.00    -0.346 OA
BRANCH  42  43
ATOM     43  C   LIG A   1      -8.797  -0.581 124.436  0.00  0.00    +0.282 C 
ATOM     44  O   LIG A   1      -7.643  -0.913 125.202  0.00  0.00    -0.343 OA
ATOM     45  C   LIG A   1      -7.560  -2.285 125.595  0.00  0.00    +0.149 C 
ATOM     46  C   LIG A   1      -7.559  -3.198 124.354  0.00  0.00    +0.174 C 
ATOM     47  C   LIG A   1      -8.777  -2.943 123.468  0.00  0.00    +0.179 C 
ATOM     48  C   LIG A   1      -8.917  -1.448 123.155  0.00  0.00    +0.201 C 
ATOM     49  C   LIG A   1      -8.603  -2.633 126.653  0.00  0.00    +0.040 C 
BRANCH  48  50
ATOM     50  O   LIG A   1     -10.193  -1.247 122.511  0.00  0.00    -0.384 OA
ATOM     51  H   LIG A   1     -10.323  -1.999 121.904  0.00  0.00    +0.210 HD
ENDBRANCH  48  50
BRANCH  47  52
ATOM     52  O   LIG A   1      -9.974  -3.430 124.083  0.00  0.00    -0.386 OA
ATOM     53  H   LIG A   1      -9.853  -3.284 125.045  0.00  0.00    +0.210 HD
ENDBRANCH  47  52
BRANCH  46  54
ATOM     54  O   LIG A   1      -6.391  -2.934 123.553  0.00  0.00    -0.387 OA
ATOM     55  H   LIG A   1      -5.664  -3.493 123.878  0.00  0.00    +0.210 HD
ENDBRANCH  46  54
ENDBRANCH  42  43
ENDBRANCH  41  42
ENDBRANCH  31  41
ENDBRANCH   1  29
TORSDOF 17
ENDMDL
MODEL 8
REMARK VINA RESULT:      -8.1      2.408      3.461
REMARK  Name = NuBBE_283
REMARK  18 active torsions:
REMARK  status: ('A' for Active; 'I' for Inactive)
REMARK    1  A    between atoms: O_1  and  C_2
REMARK    2  A    between atoms: C_5  and  O_6
REMARK    3  A    between atoms: O_6  and  C_7
REMARK    4  A    between atoms: C_10  and  C_21
REMARK    5  A    between atoms: C_12  and  O_20
REMARK    6  A    between atoms: C_14  and  O_19
REMARK    7  A    between atoms: C_16  and  O_18
REMARK    8  A    between atoms: C_21  and  O_22
REMARK    9  A    between atoms: O_22  and  C_23
REMARK   10  A    between atoms: C_26  and  C_37
REMARK   11  A    between atoms: C_28  and  O_36
REMARK   12  A    between atoms: C_30  and  O_35
REMARK   13  A    between atoms: C_32  and  O_34
REMARK   14  A    between atoms: C_38  and  C_46
REMARK   15  A    between atoms: C_42  and  O_43
REMARK   16  A    between atoms: C_44  and  O_45
REMARK   17  A    between atoms: C_49  and  O_53
REMARK   18  A    between atoms: C_50  and  O_51
REMARK                            x       y       z     vdW  Elec       q    Type
REMARK                         _______ _______ _______ _____ _____    ______ ____
ROOT
ATOM      1  O   LIG A   1      -5.263  -0.220 128.513  0.00  0.00    -0.453 OA
ENDROOT
BRANCH   1   5
ATOM      2  C   LIG A   1      -8.265  -2.422 125.203  0.00  0.00    +0.177 A 
ATOM      3  C   LIG A   1      -7.349  -1.431 125.573  0.00  0.00    +0.113 A 
ATOM      4  C   LIG A   1      -6.559  -1.517 126.809  0.00  0.00    +0.238 A 
ATOM      5  C   LIG A   1      -5.796  -0.302 127.239  0.00  0.00    +0.214 A 
ATOM      6  C   LIG A   1      -5.760   0.738 126.381  0.00  0.00    +0.181 A 
ATOM      7  O   LIG A   1      -6.332   0.698 125.102  0.00  0.00    -0.451 OA
ATOM      8  C   LIG A   1      -7.189  -0.310 124.777  0.00  0.00    +0.147 A 
ATOM      9  C   LIG A   1      -7.914  -0.151 123.588  0.00  0.00    +0.096 A 
ATOM     10  C   LIG A   1      -8.828  -1.130 123.229  0.00  0.00    +0.166 A 
ATOM     11  C   LIG A   1      -9.006  -2.259 124.032  0.00  0.00    +0.202 A 
ATOM     12  O   LIG A   1      -6.608  -2.550 127.465  0.00  0.00    -0.283 OA
BRANCH   6  13
ATOM     13  C   LIG A   1      -5.132   2.078 126.617  0.00  0.00    +0.025 A 
ATOM     14  C   LIG A   1      -5.881   3.232 126.902  0.00  0.00    +0.015 A 
ATOM     15  C   LIG A   1      -5.287   4.466 127.173  0.00  0.00    +0.050 A 
ATOM     16  C   LIG A   1      -3.912   4.572 127.138  0.00  0.00    +0.158 A 
ATOM     17  C   LIG A   1      -3.139   3.466 126.812  0.00  0.00    +0.159 A 
ATOM     18  C   LIG A   1      -3.730   2.233 126.556  0.00  0.00    +0.060 A 
BRANCH  17  19
ATOM     19  O   LIG A   1      -1.779   3.583 126.755  0.00  0.00    -0.503 OA
ATOM     20  H   LIG A   1      -1.531   3.081 125.952  0.00  0.00    +0.292 HD
ENDBRANCH  17  19
BRANCH  16  21
ATOM     21  O   LIG A   1      -3.277   5.743 127.432  0.00  0.00    -0.503 OA
ATOM     22  H   LIG A   1      -2.321   5.562 127.426  0.00  0.00    +0.292 HD
ENDBRANCH  16  21
ENDBRANCH   6  13
BRANCH   2  23
ATOM     23  O   LIG A   1      -8.474  -3.543 125.963  0.00  0.00    -0.503 OA
ATOM     24  H   LIG A   1      -7.612  -3.821 126.343  0.00  0.00    +0.292 HD
ENDBRANCH   2  23
BRANCH  10  25
ATOM     25  O   LIG A   1      -9.586  -1.026 122.095  0.00  0.00    -0.503 OA
ATOM     26  H   LIG A   1      -9.579  -1.883 121.632  0.00  0.00    +0.292 HD
ENDBRANCH  10  25
BRANCH  11  27
ATOM     27  O   LIG A   1      -9.925  -3.198 123.649  0.00  0.00    -0.501 OA
ATOM     28  H   LIG A   1      -9.620  -4.032 124.053  0.00  0.00    +0.292 HD
ENDBRANCH  11  27
ENDBRANCH   1   5
BRANCH   1  29
ATOM     29  C   LIG A   1      -5.938   0.388 129.624  0.00  0.00    +0.340 C 
ATOM     30  O   LIG A   1      -7.294   0.740 129.318  0.00  0.00    -0.331 OA
ATOM     31  C   LIG A   1      -8.080   1.233 130.418  0.00  0.00    +0.179 C 
ATOM     32  C   LIG A   1      -7.428   1.074 131.808  0.00  0.00    +0.177 C 
ATOM     33  C   LIG A   1      -6.930  -0.354 131.877  0.00  0.00    +0.180 C 
ATOM     34  C   LIG A   1      -5.820  -0.584 130.855  0.00  0.00    +0.214 C 
BRANCH  34  35
ATOM     35  O   LIG A   1      -5.852  -1.986 130.521  0.00  0.00    -0.383 OA
ATOM     36  H   LIG A   1      -5.635  -2.028 129.568  0.00  0.00    +0.210 HD
ENDBRANCH  34  35
BRANCH  33  37
ATOM     37  O   LIG A   1      -6.471  -0.668 133.199  0.00  0.00    -0.386 OA
ATOM     38  H   LIG A   1      -7.296  -0.756 133.723  0.00  0.00    +0.210 HD
ENDBRANCH  33  37
BRANCH  32  39
ATOM     39  O   LIG A   1      -8.343   1.263 132.897  0.00  0.00    -0.387 OA
ATOM     40  H   LIG A   1      -8.710   2.167 132.779  0.00  0.00    +0.210 HD
ENDBRANCH  32  39
BRANCH  31  41
ATOM     41  C   LIG A   1      -8.566   2.673 130.186  0.00  0.00    +0.197 C 
BRANCH  41  42
ATOM     42  O   LIG A   1      -9.907   2.781 130.686  0.00  0.00    -0.346 OA
BRANCH  42  43
ATOM     43  C   LIG A   1     -10.310   4.136 130.944  0.00  0.00    +0.282 C 
ATOM     44  O   LIG A   1     -10.230   4.861 129.720  0.00  0.00    -0.343 OA
ATOM     45  C   LIG A   1     -10.480   6.264 129.838  0.00  0.00    +0.149 C 
ATOM     46  C   LIG A   1      -9.476   6.906 130.814  0.00  0.00    +0.174 C 
ATOM     47  C   LIG A   1      -9.497   6.217 132.178  0.00  0.00    +0.179 C 
ATOM     48  C   LIG A   1      -9.346   4.700 132.021  0.00  0.00    +0.201 C 
ATOM     49  C   LIG A   1     -11.949   6.550 130.139  0.00  0.00    +0.040 C 
BRANCH  48  50
ATOM     50  O   LIG A   1      -9.596   4.093 133.307  0.00  0.00    -0.384 OA
ATOM     51  H   LIG A   1     -10.289   4.626 133.739  0.00  0.00    +0.210 HD
ENDBRANCH  48  50
BRANCH  47  52
ATOM     52  O   LIG A   1     -10.702   6.520 132.890  0.00  0.00    -0.386 OA
ATOM     53  H   LIG A   1     -11.429   6.168 132.336  0.00  0.00    +0.210 HD
ENDBRANCH  47  52
BRANCH  46  54
ATOM     54  O   LIG A   1      -8.139   6.776 130.296  0.00  0.00    -0.387 OA
ATOM     55  H   LIG A   1      -8.064   5.912 129.854  0.00  0.00    +0.210 HD
ENDBRANCH  46  54
ENDBRANCH  42  43
ENDBRANCH  41  42
ENDBRANCH  31  41
ENDBRANCH   1  29
TORSDOF 17
ENDMDL
MODEL 9
REMARK VINA RESULT:      -8.0      2.454      7.347
REMARK  Name = NuBBE_283
REMARK  18 active torsions:
REMARK  status: ('A' for Active; 'I' for Inactive)
REMARK    1  A    between atoms: O_1  and  C_2
REMARK    2  A    between atoms: C_5  and  O_6
REMARK    3  A    between atoms: O_6  and  C_7
REMARK    4  A    between atoms: C_10  and  C_21
REMARK    5  A    between atoms: C_12  and  O_20
REMARK    6  A    between atoms: C_14  and  O_19
REMARK    7  A    between atoms: C_16  and  O_18
REMARK    8  A    between atoms: C_21  and  O_22
REMARK    9  A    between atoms: O_22  and  C_23
REMARK   10  A    between atoms: C_26  and  C_37
REMARK   11  A    between atoms: C_28  and  O_36
REMARK   12  A    between atoms: C_30  and  O_35
REMARK   13  A    between atoms: C_32  and  O_34
REMARK   14  A    between atoms: C_38  and  C_46
REMARK   15  A    between atoms: C_42  and  O_43
REMARK   16  A    between atoms: C_44  and  O_45
REMARK   17  A    between atoms: C_49  and  O_53
REMARK   18  A    between atoms: C_50  and  O_51
REMARK                            x       y       z     vdW  Elec       q    Type
REMARK                         _______ _______ _______ _____ _____    ______ ____
ROOT
ATOM      1  O   LIG A   1      -7.787   2.976 131.077  0.00  0.00    -0.453 OA
ENDROOT
BRANCH   1   5
ATOM      2  C   LIG A   1     -11.389   6.409 130.847  0.00  0.00    +0.177 A 
ATOM      3  C   LIG A   1     -10.367   5.650 130.266  0.00  0.00    +0.113 A 
ATOM      4  C   LIG A   1      -9.781   4.482 130.940  0.00  0.00    +0.238 A 
ATOM      5  C   LIG A   1      -8.537   3.888 130.356  0.00  0.00    +0.214 A 
ATOM      6  C   LIG A   1      -8.126   4.368 129.164  0.00  0.00    +0.181 A 
ATOM      7  O   LIG A   1      -8.843   5.325 128.433  0.00  0.00    -0.451 OA
ATOM      8  C   LIG A   1      -9.856   6.011 129.033  0.00  0.00    +0.147 A 
ATOM      9  C   LIG A   1     -10.355   7.119 128.333  0.00  0.00    +0.096 A 
ATOM     10  C   LIG A   1     -11.361   7.876 128.915  0.00  0.00    +0.166 A 
ATOM     11  C   LIG A   1     -11.875   7.527 130.165  0.00  0.00    +0.202 A 
ATOM     12  O   LIG A   1     -10.295   4.085 131.978  0.00  0.00    -0.283 OA
BRANCH   6  13
ATOM     13  C   LIG A   1      -6.879   3.990 128.424  0.00  0.00    +0.025 A 
ATOM     14  C   LIG A   1      -5.620   4.538 128.721  0.00  0.00    +0.015 A 
ATOM     15  C   LIG A   1      -4.453   4.144 128.063  0.00  0.00    +0.050 A 
ATOM     16  C   LIG A   1      -4.534   3.195 127.063  0.00  0.00    +0.158 A 
ATOM     17  C   LIG A   1      -5.767   2.666 126.707  0.00  0.00    +0.159 A 
ATOM     18  C   LIG A   1      -6.927   3.050 127.372  0.00  0.00    +0.060 A 
BRANCH  17  19
ATOM     19  O   LIG A   1      -5.843   1.747 125.699  0.00  0.00    -0.503 OA
ATOM     20  H   LIG A   1      -6.237   0.959 126.125  0.00  0.00    +0.292 HD
ENDBRANCH  17  19
BRANCH  16  21
ATOM     21  O   LIG A   1      -3.422   2.746 126.413  0.00  0.00    -0.503 OA
ATOM     22  H   LIG A   1      -3.392   1.780 126.531  0.00  0.00    +0.292 HD
ENDBRANCH  16  21
ENDBRANCH   6  13
BRANCH   2  23
ATOM     23  O   LIG A   1     -11.919   6.104 132.073  0.00  0.00    -0.503 OA
ATOM     24  H   LIG A   1     -11.193   6.124 132.734  0.00  0.00    +0.292 HD
ENDBRANCH   2  23
BRANCH  10  25
ATOM     25  O   LIG A   1     -11.877   8.983 128.299  0.00  0.00    -0.503 OA
ATOM     26  H   LIG A   1     -12.564   9.370 128.869  0.00  0.00    +0.292 HD
ENDBRANCH  10  25
BRANCH  11  27
ATOM     27  O   LIG A   1     -12.860   8.305 130.710  0.00  0.00    -0.501 OA
ATOM     28  H   LIG A   1     -12.705   9.199 130.353  0.00  0.00    +0.292 HD
ENDBRANCH  11  27
ENDBRANCH   1   5
BRANCH   1  29
ATOM     29  C   LIG A   1      -7.789   1.563 130.824  0.00  0.00    +0.340 C 
ATOM     30  O   LIG A   1      -6.575   1.113 130.205  0.00  0.00    -0.331 OA
ATOM     31  C   LIG A   1      -6.443  -0.310 130.040  0.00  0.00    +0.179 C 
ATOM     32  C   LIG A   1      -7.506  -1.154 130.776  0.00  0.00    +0.177 C 
ATOM     33  C   LIG A   1      -7.574  -0.608 132.186  0.00  0.00    +0.180 C 
ATOM     34  C   LIG A   1      -8.094   0.827 132.180  0.00  0.00    +0.214 C 
BRANCH  34  35
ATOM     35  O   LIG A   1      -7.548   1.468 133.350  0.00  0.00    -0.383 OA
ATOM     36  H   LIG A   1      -8.324   1.779 133.859  0.00  0.00    +0.210 HD
ENDBRANCH  34  35
BRANCH  33  37
ATOM     37  O   LIG A   1      -8.398  -1.439 133.014  0.00  0.00    -0.386 OA
ATOM     38  H   LIG A   1      -9.036  -1.842 132.385  0.00  0.00    +0.210 HD
ENDBRANCH  33  37
BRANCH  32  39
ATOM     39  O   LIG A   1      -7.172  -2.546 130.869  0.00  0.00    -0.387 OA
ATOM     40  H   LIG A   1      -7.605  -2.973 130.098  0.00  0.00    +0.210 HD
ENDBRANCH  32  39
BRANCH  31  41
ATOM     41  C   LIG A   1      -6.327  -0.715 128.562  0.00  0.00    +0.197 C 
BRANCH  41  42
ATOM     42  O   LIG A   1      -7.473  -1.513 128.223  0.00  0.00    -0.346 OA
BRANCH  42  43
ATOM     43  C   LIG A   1      -7.410  -2.062 126.898  0.00  0.00    +0.282 C 
ATOM     44  O   LIG A   1      -7.093  -1.006 125.996  0.00  0.00    -0.343 OA
ATOM     45  C   LIG A   1      -7.118  -1.372 124.614  0.00  0.00    +0.149 C 
ATOM     46  C   LIG A   1      -8.512  -1.898 124.225  0.00  0.00    +0.174 C 
ATOM     47  C   LIG A   1      -8.944  -3.060 125.119  0.00  0.00    +0.179 C 
ATOM     48  C   LIG A   1      -8.797  -2.689 126.599  0.00  0.00    +0.201 C 
ATOM     49  C   LIG A   1      -5.955  -2.292 124.253  0.00  0.00    +0.040 C 
BRANCH  48  50
ATOM     50  O   LIG A   1      -9.004  -3.885 127.380  0.00  0.00    -0.384 OA
ATOM     51  H   LIG A   1      -8.518  -4.601 126.930  0.00  0.00    +0.210 HD
ENDBRANCH  48  50
BRANCH  47  52
ATOM     52  O   LIG A   1      -8.188  -4.241 124.831  0.00  0.00    -0.386 OA
ATOM     53  H   LIG A   1      -7.956  -4.179 123.881  0.00  0.00    +0.210 HD
ENDBRANCH  47  52
BRANCH  46  54
ATOM     54  O   LIG A   1      -9.492  -0.855 124.386  0.00  0.00    -0.387 OA
ATOM     55  H   LIG A   1      -9.360  -0.443 125.257  0.00  0.00    +0.210 HD
ENDBRANCH  46  54
ENDBRANCH  42  43
ENDBRANCH  41  42
ENDBRANCH  31  41
ENDBRANCH   1  29
TORSDOF 17
ENDMDL
