MODEL 1
REMARK VINA RESULT:      -9.4      0.000      0.000
REMARK  Name = NuBBE_1265
REMARK  9 active torsions:
REMARK  status: ('A' for Active; 'I' for Inactive)
REMARK    1  A    between atoms: C_1  and  C_2
REMARK    2  A    between atoms: C_2  and  C_4
REMARK    3  A    between atoms: C_9  and  C_10
REMARK    4  A    between atoms: C_10  and  C_11
REMARK    5  A    between atoms: C_12  and  C_13
REMARK    6  A    between atoms: C_12  and  C_14
REMARK    7  A    between atoms: C_15  and  O_16
REMARK    8  A    between atoms: C_20  and  C_22
REMARK    9  A    between atoms: C_25  and  O_26
REMARK                            x       y       z     vdW  Elec       q    Type
REMARK                         _______ _______ _______ _____ _____    ______ ____
ROOT
ATOM      1  C   LIG A   1      -3.682   2.706 128.224  0.00  0.00    +0.060 C 
ATOM      2  C   LIG A   1      -4.669   3.857 128.008  0.00  0.00    +0.123 C 
ATOM      3  O   LIG A   1      -6.000   3.319 128.132  0.00  0.00    -0.481 OA
ATOM      4  C   LIG A   1      -4.527   4.880 129.141  0.00  0.00    +0.060 C 
ATOM      5  C   LIG A   1      -4.387   4.536 126.692  0.00  0.00    +0.020 C 
ATOM      6  C   LIG A   1      -5.173   4.388 125.622  0.00  0.00    +0.015 C 
ATOM      7  C   LIG A   1      -6.340   3.515 125.735  0.00  0.00    +0.059 A 
ATOM      8  C   LIG A   1      -6.699   3.011 126.994  0.00  0.00    +0.139 A 
ATOM      9  C   LIG A   1      -7.839   2.196 127.151  0.00  0.00    +0.041 A 
ATOM     10  C   LIG A   1      -8.595   1.872 126.013  0.00  0.00    +0.138 A 
ATOM     11  C   LIG A   1      -8.238   2.368 124.750  0.00  0.00    +0.102 A 
ATOM     12  C   LIG A   1      -7.111   3.180 124.610  0.00  0.00    +0.146 A 
ATOM     13  O   LIG A   1      -6.731   3.719 123.410  0.00  0.00    -0.482 OA
ATOM     14  C   LIG A   1      -7.202   3.023 122.250  0.00  0.00    +0.211 C 
ATOM     15  C   LIG A   1      -8.709   2.839 122.297  0.00  0.00    +0.129 C 
ATOM     16  C   LIG A   1      -9.058   2.096 123.553  0.00  0.00    +0.174 C 
ATOM     17  O   LIG A   1     -10.028   1.340 123.632  0.00  0.00    -0.292 OA
ENDROOT
BRANCH  14  18
ATOM     18  C   LIG A   1      -6.794   3.831 121.028  0.00  0.00    -0.007 A 
ATOM     19  C   LIG A   1      -7.676   3.978 119.944  0.00  0.00    +0.011 A 
ATOM     20  C   LIG A   1      -7.307   4.726 118.821  0.00  0.00    +0.046 A 
ATOM     21  C   LIG A   1      -6.055   5.331 118.780  0.00  0.00    +0.117 A 
ATOM     22  C   LIG A   1      -5.169   5.203 119.839  0.00  0.00    +0.046 A 
ATOM     23  C   LIG A   1      -5.540   4.463 120.961  0.00  0.00    +0.011 A 
BRANCH  21  24
ATOM     24  O   LIG A   1      -5.653   6.067 117.705  0.00  0.00    -0.507 OA
ATOM     25  H   LIG A   1      -5.849   5.570 116.895  0.00  0.00    +0.292 HD
ENDBRANCH  21  24
ENDBRANCH  14  18
BRANCH  10  26
ATOM     26  O   LIG A   1      -9.697   1.071 126.184  0.00  0.00    -0.505 OA
ATOM     27  H   LIG A   1     -10.377   1.322 125.519  0.00  0.00    +0.292 HD
ENDBRANCH  10  26
BRANCH   9  28
ATOM     28  C   LIG A   1      -8.220   1.664 128.519  0.00  0.00    +0.069 C 
BRANCH  28  29
ATOM     29  C   LIG A   1      -7.698   0.271 128.760  0.00  0.00    -0.023 C 
ATOM     30  C   LIG A   1      -7.801  -0.479 129.876  0.00  0.00    -0.079 C 
ATOM     31  C   LIG A   1      -8.478  -0.055 131.149  0.00  0.00    +0.038 C 
ATOM     32  C   LIG A   1      -7.215  -1.866 129.924  0.00  0.00    +0.038 C 
ENDBRANCH  28  29
ENDBRANCH   9  28
TORSDOF 5
ENDMDL
MODEL 2
REMARK VINA RESULT:      -9.3      2.903      4.311
REMARK  Name = NuBBE_1265
REMARK  9 active torsions:
REMARK  status: ('A' for Active; 'I' for Inactive)
REMARK    1  A    between atoms: C_1  and  C_2
REMARK    2  A    between atoms: C_2  and  C_4
REMARK    3  A    between atoms: C_9  and  C_10
REMARK    4  A    between atoms: C_10  and  C_11
REMARK    5  A    between atoms: C_12  and  C_13
REMARK    6  A    between atoms: C_12  and  C_14
REMARK    7  A    between atoms: C_15  and  O_16
REMARK    8  A    between atoms: C_20  and  C_22
REMARK    9  A    between atoms: C_25  and  O_26
REMARK                            x       y       z     vdW  Elec       q    Type
REMARK                         _______ _______ _______ _____ _____    ______ ____
ROOT
ATOM      1  C   LIG A   1      -8.137  -3.616 124.060  0.00  0.00    +0.060 C 
ATOM      2  C   LIG A   1      -6.715  -3.047 124.103  0.00  0.00    +0.123 C 
ATOM      3  O   LIG A   1      -6.581  -2.300 125.328  0.00  0.00    -0.481 OA
ATOM      4  C   LIG A   1      -5.702  -4.194 124.203  0.00  0.00    +0.060 C 
ATOM      5  C   LIG A   1      -6.440  -2.255 122.850  0.00  0.00    +0.020 C 
ATOM      6  C   LIG A   1      -6.384  -0.920 122.841  0.00  0.00    +0.015 C 
ATOM      7  C   LIG A   1      -6.620  -0.207 124.095  0.00  0.00    +0.059 A 
ATOM      8  C   LIG A   1      -6.715  -0.936 125.290  0.00  0.00    +0.139 A 
ATOM      9  C   LIG A   1      -6.905  -0.284 126.525  0.00  0.00    +0.041 A 
ATOM     10  C   LIG A   1      -7.028   1.115 126.534  0.00  0.00    +0.138 A 
ATOM     11  C   LIG A   1      -6.940   1.849 125.341  0.00  0.00    +0.102 A 
ATOM     12  C   LIG A   1      -6.744   1.191 124.126  0.00  0.00    +0.146 A 
ATOM     13  O   LIG A   1      -6.619   1.856 122.935  0.00  0.00    -0.482 OA
ATOM     14  C   LIG A   1      -7.201   3.164 122.901  0.00  0.00    +0.211 C 
ATOM     15  C   LIG A   1      -6.687   4.022 124.045  0.00  0.00    +0.129 C 
ATOM     16  C   LIG A   1      -6.998   3.325 125.337  0.00  0.00    +0.174 C 
ATOM     17  O   LIG A   1      -7.223   3.934 126.384  0.00  0.00    -0.292 OA
ENDROOT
BRANCH  14  18
ATOM     18  C   LIG A   1      -6.853   3.789 121.559  0.00  0.00    -0.007 A 
ATOM     19  C   LIG A   1      -7.808   3.846 120.530  0.00  0.00    +0.011 A 
ATOM     20  C   LIG A   1      -7.494   4.426 119.296  0.00  0.00    +0.046 A 
ATOM     21  C   LIG A   1      -6.223   4.953 119.088  0.00  0.00    +0.117 A 
ATOM     22  C   LIG A   1      -5.265   4.911 120.090  0.00  0.00    +0.046 A 
ATOM     23  C   LIG A   1      -5.581   4.338 121.322  0.00  0.00    +0.011 A 
BRANCH  21  24
ATOM     24  O   LIG A   1      -5.872   5.525 117.902  0.00  0.00    -0.507 OA
ATOM     25  H   LIG A   1      -6.659   5.936 117.509  0.00  0.00    +0.292 HD
ENDBRANCH  21  24
ENDBRANCH  14  18
BRANCH  10  26
ATOM     26  O   LIG A   1      -7.220   1.733 127.745  0.00  0.00    -0.505 OA
ATOM     27  H   LIG A   1      -7.199   2.707 127.611  0.00  0.00    +0.292 HD
ENDBRANCH  10  26
BRANCH   9  28
ATOM     28  C   LIG A   1      -6.997  -1.083 127.810  0.00  0.00    +0.069 C 
BRANCH  28  29
ATOM     29  C   LIG A   1      -8.068  -2.143 127.752  0.00  0.00    -0.023 C 
ATOM     30  C   LIG A   1      -8.190  -3.250 128.511  0.00  0.00    -0.079 C 
ATOM     31  C   LIG A   1      -7.245  -3.665 129.603  0.00  0.00    +0.038 C 
ATOM     32  C   LIG A   1      -9.345  -4.196 128.307  0.00  0.00    +0.038 C 
ENDBRANCH  28  29
ENDBRANCH   9  28
TORSDOF 5
ENDMDL
MODEL 3
REMARK VINA RESULT:      -9.1      2.772      4.620
REMARK  Name = NuBBE_1265
REMARK  9 active torsions:
REMARK  status: ('A' for Active; 'I' for Inactive)
REMARK    1  A    between atoms: C_1  and  C_2
REMARK    2  A    between atoms: C_2  and  C_4
REMARK    3  A    between atoms: C_9  and  C_10
REMARK    4  A    between atoms: C_10  and  C_11
REMARK    5  A    between atoms: C_12  and  C_13
REMARK    6  A    between atoms: C_12  and  C_14
REMARK    7  A    between atoms: C_15  and  O_16
REMARK    8  A    between atoms: C_20  and  C_22
REMARK    9  A    between atoms: C_25  and  O_26
REMARK                            x       y       z     vdW  Elec       q    Type
REMARK                         _______ _______ _______ _____ _____    ______ ____
ROOT
ATOM      1  C   LIG A   1      -9.385  -2.900 124.840  0.00  0.00    +0.060 C 
ATOM      2  C   LIG A   1      -7.888  -2.850 124.516  0.00  0.00    +0.123 C 
ATOM      3  O   LIG A   1      -7.211  -2.310 125.667  0.00  0.00    -0.481 OA
ATOM      4  C   LIG A   1      -7.348  -4.276 124.348  0.00  0.00    +0.060 C 
ATOM      5  C   LIG A   1      -7.664  -2.084 123.237  0.00  0.00    +0.020 C 
ATOM      6  C   LIG A   1      -7.149  -0.852 123.218  0.00  0.00    +0.015 C 
ATOM      7  C   LIG A   1      -6.812  -0.221 124.492  0.00  0.00    +0.059 A 
ATOM      8  C   LIG A   1      -6.865  -0.983 125.669  0.00  0.00    +0.139 A 
ATOM      9  C   LIG A   1      -6.511  -0.422 126.913  0.00  0.00    +0.041 A 
ATOM     10  C   LIG A   1      -6.132   0.929 126.957  0.00  0.00    +0.138 A 
ATOM     11  C   LIG A   1      -6.083   1.698 125.785  0.00  0.00    +0.102 A 
ATOM     12  C   LIG A   1      -6.428   1.128 124.558  0.00  0.00    +0.146 A 
ATOM     13  O   LIG A   1      -6.369   1.819 123.377  0.00  0.00    -0.482 OA
ATOM     14  C   LIG A   1      -6.447   3.244 123.498  0.00  0.00    +0.211 C 
ATOM     15  C   LIG A   1      -5.407   3.769 124.473  0.00  0.00    +0.129 C 
ATOM     16  C   LIG A   1      -5.620   3.101 125.800  0.00  0.00    +0.174 C 
ATOM     17  O   LIG A   1      -5.359   3.650 126.872  0.00  0.00    -0.292 OA
ENDROOT
BRANCH  14  18
ATOM     18  C   LIG A   1      -6.237   3.838 122.113  0.00  0.00    -0.007 A 
ATOM     19  C   LIG A   1      -7.203   3.663 121.109  0.00  0.00    +0.011 A 
ATOM     20  C   LIG A   1      -7.016   4.213 119.836  0.00  0.00    +0.046 A 
ATOM     21  C   LIG A   1      -5.862   4.940 119.564  0.00  0.00    +0.117 A 
ATOM     22  C   LIG A   1      -4.895   5.128 120.541  0.00  0.00    +0.046 A 
ATOM     23  C   LIG A   1      -5.085   4.586 121.812  0.00  0.00    +0.011 A 
BRANCH  21  24
ATOM     24  O   LIG A   1      -5.637   5.491 118.338  0.00  0.00    -0.507 OA
ATOM     25  H   LIG A   1      -5.700   6.456 118.413  0.00  0.00    +0.292 HD
ENDBRANCH  21  24
ENDBRANCH  14  18
BRANCH  10  26
ATOM     26  O   LIG A   1      -5.798   1.460 128.179  0.00  0.00    -0.505 OA
ATOM     27  H   LIG A   1      -5.036   0.958 128.545  0.00  0.00    +0.292 HD
ENDBRANCH  10  26
BRANCH   9  28
ATOM     28  C   LIG A   1      -6.565  -1.260 128.176  0.00  0.00    +0.069 C 
BRANCH  28  29
ATOM     29  C   LIG A   1      -5.266  -1.975 128.447  0.00  0.00    -0.023 C 
ATOM     30  C   LIG A   1      -5.055  -3.060 129.220  0.00  0.00    -0.079 C 
ATOM     31  C   LIG A   1      -6.111  -3.792 129.998  0.00  0.00    +0.038 C 
ATOM     32  C   LIG A   1      -3.673  -3.642 129.362  0.00  0.00    +0.038 C 
ENDBRANCH  28  29
ENDBRANCH   9  28
TORSDOF 5
ENDMDL
MODEL 4
REMARK VINA RESULT:      -8.6      1.965      2.654
REMARK  Name = NuBBE_1265
REMARK  9 active torsions:
REMARK  status: ('A' for Active; 'I' for Inactive)
REMARK    1  A    between atoms: C_1  and  C_2
REMARK    2  A    between atoms: C_2  and  C_4
REMARK    3  A    between atoms: C_9  and  C_10
REMARK    4  A    between atoms: C_10  and  C_11
REMARK    5  A    between atoms: C_12  and  C_13
REMARK    6  A    between atoms: C_12  and  C_14
REMARK    7  A    between atoms: C_15  and  O_16
REMARK    8  A    between atoms: C_20  and  C_22
REMARK    9  A    between atoms: C_25  and  O_26
REMARK                            x       y       z     vdW  Elec       q    Type
REMARK                         _______ _______ _______ _____ _____    ______ ____
ROOT
ATOM      1  C   LIG A   1      -3.059   4.230 129.575  0.00  0.00    +0.060 C 
ATOM      2  C   LIG A   1      -4.096   5.276 129.154  0.00  0.00    +0.123 C 
ATOM      3  O   LIG A   1      -5.402   4.720 129.400  0.00  0.00    -0.481 OA
ATOM      4  C   LIG A   1      -3.990   6.506 130.065  0.00  0.00    +0.060 C 
ATOM      5  C   LIG A   1      -3.852   5.697 127.727  0.00  0.00    +0.020 C 
ATOM      6  C   LIG A   1      -4.639   5.312 126.719  0.00  0.00    +0.015 C 
ATOM      7  C   LIG A   1      -5.766   4.432 127.016  0.00  0.00    +0.059 A 
ATOM      8  C   LIG A   1      -6.096   4.168 128.354  0.00  0.00    +0.139 A 
ATOM      9  C   LIG A   1      -7.198   3.354 128.683  0.00  0.00    +0.041 A 
ATOM     10  C   LIG A   1      -7.948   2.784 127.641  0.00  0.00    +0.138 A 
ATOM     11  C   LIG A   1      -7.620   3.040 126.301  0.00  0.00    +0.102 A 
ATOM     12  C   LIG A   1      -6.530   3.854 125.989  0.00  0.00    +0.146 A 
ATOM     13  O   LIG A   1      -6.182   4.164 124.701  0.00  0.00    -0.482 OA
ATOM     14  C   LIG A   1      -6.630   3.237 123.706  0.00  0.00    +0.211 C 
ATOM     15  C   LIG A   1      -8.128   3.005 123.810  0.00  0.00    +0.129 C 
ATOM     16  C   LIG A   1      -8.437   2.507 125.192  0.00  0.00    +0.174 C 
ATOM     17  O   LIG A   1      -9.373   1.742 125.430  0.00  0.00    -0.292 OA
ENDROOT
BRANCH  14  18
ATOM     18  C   LIG A   1      -6.265   3.808 122.344  0.00  0.00    -0.007 A 
ATOM     19  C   LIG A   1      -7.125   3.638 121.247  0.00  0.00    +0.011 A 
ATOM     20  C   LIG A   1      -6.796   4.167 119.995  0.00  0.00    +0.046 A 
ATOM     21  C   LIG A   1      -5.606   4.870 119.836  0.00  0.00    +0.117 A 
ATOM     22  C   LIG A   1      -4.743   5.054 120.907  0.00  0.00    +0.046 A 
ATOM     23  C   LIG A   1      -5.074   4.531 122.156  0.00  0.00    +0.011 A 
BRANCH  21  24
ATOM     24  O   LIG A   1      -5.244   5.401 118.634  0.00  0.00    -0.507 OA
ATOM     25  H   LIG A   1      -5.862   5.085 117.955  0.00  0.00    +0.292 HD
ENDBRANCH  21  24
ENDBRANCH  14  18
BRANCH  10  26
ATOM     26  O   LIG A   1      -9.014   1.989 127.981  0.00  0.00    -0.505 OA
ATOM     27  H   LIG A   1      -8.965   1.787 128.942  0.00  0.00    +0.292 HD
ENDBRANCH  10  26
BRANCH   9  28
ATOM     28  C   LIG A   1      -7.548   3.084 130.134  0.00  0.00    +0.069 C 
BRANCH  28  29
ATOM     29  C   LIG A   1      -8.257   4.247 130.780  0.00  0.00    -0.023 C 
ATOM     30  C   LIG A   1      -9.582   4.424 130.955  0.00  0.00    -0.079 C 
ATOM     31  C   LIG A   1     -10.654   3.464 130.520  0.00  0.00    +0.038 C 
ATOM     32  C   LIG A   1     -10.106   5.661 131.637  0.00  0.00    +0.038 C 
ENDBRANCH  28  29
ENDBRANCH   9  28
TORSDOF 5
ENDMDL
MODEL 5
REMARK VINA RESULT:      -8.6      4.175      7.533
REMARK  Name = NuBBE_1265
REMARK  9 active torsions:
REMARK  status: ('A' for Active; 'I' for Inactive)
REMARK    1  A    between atoms: C_1  and  C_2
REMARK    2  A    between atoms: C_2  and  C_4
REMARK    3  A    between atoms: C_9  and  C_10
REMARK    4  A    between atoms: C_10  and  C_11
REMARK    5  A    between atoms: C_12  and  C_13
REMARK    6  A    between atoms: C_12  and  C_14
REMARK    7  A    between atoms: C_15  and  O_16
REMARK    8  A    between atoms: C_20  and  C_22
REMARK    9  A    between atoms: C_25  and  O_26
REMARK                            x       y       z     vdW  Elec       q    Type
REMARK                         _______ _______ _______ _____ _____    ______ ____
ROOT
ATOM      1  C   LIG A   1      -3.809  -3.529 129.009  0.00  0.00    +0.060 C 
ATOM      2  C   LIG A   1      -4.990  -2.676 129.484  0.00  0.00    +0.123 C 
ATOM      3  O   LIG A   1      -5.751  -2.298 128.321  0.00  0.00    -0.481 OA
ATOM      4  C   LIG A   1      -5.934  -3.530 130.339  0.00  0.00    +0.060 C 
ATOM      5  C   LIG A   1      -4.488  -1.519 130.310  0.00  0.00    +0.020 C 
ATOM      6  C   LIG A   1      -4.474  -0.263 129.855  0.00  0.00    +0.015 C 
ATOM      7  C   LIG A   1      -4.946  -0.013 128.495  0.00  0.00    +0.059 A 
ATOM      8  C   LIG A   1      -5.562  -1.052 127.781  0.00  0.00    +0.139 A 
ATOM      9  C   LIG A   1      -6.063  -0.842 126.481  0.00  0.00    +0.041 A 
ATOM     10  C   LIG A   1      -5.907   0.426 125.897  0.00  0.00    +0.138 A 
ATOM     11  C   LIG A   1      -5.287   1.468 126.603  0.00  0.00    +0.102 A 
ATOM     12  C   LIG A   1      -4.802   1.248 127.894  0.00  0.00    +0.146 A 
ATOM     13  O   LIG A   1      -4.216   2.234 128.643  0.00  0.00    -0.482 OA
ATOM     14  C   LIG A   1      -3.659   3.321 127.895  0.00  0.00    +0.211 C 
ATOM     15  C   LIG A   1      -4.686   3.914 126.945  0.00  0.00    +0.129 C 
ATOM     16  C   LIG A   1      -5.175   2.826 126.035  0.00  0.00    +0.174 C 
ATOM     17  O   LIG A   1      -5.545   3.041 124.879  0.00  0.00    -0.292 OA
ENDROOT
BRANCH  14  18
ATOM     18  C   LIG A   1      -3.176   4.366 128.889  0.00  0.00    -0.007 A 
ATOM     19  C   LIG A   1      -2.517   5.523 128.442  0.00  0.00    +0.011 A 
ATOM     20  C   LIG A   1      -2.077   6.489 129.353  0.00  0.00    +0.046 A 
ATOM     21  C   LIG A   1      -2.295   6.301 130.715  0.00  0.00    +0.117 A 
ATOM     22  C   LIG A   1      -2.947   5.168 131.178  0.00  0.00    +0.046 A 
ATOM     23  C   LIG A   1      -3.391   4.208 130.270  0.00  0.00    +0.011 A 
BRANCH  21  24
ATOM     24  O   LIG A   1      -1.882   7.215 131.637  0.00  0.00    -0.507 OA
ATOM     25  H   LIG A   1      -1.202   6.807 132.197  0.00  0.00    +0.292 HD
ENDBRANCH  21  24
ENDBRANCH  14  18
BRANCH  10  26
ATOM     26  O   LIG A   1      -6.396   0.610 124.627  0.00  0.00    -0.505 OA
ATOM     27  H   LIG A   1      -7.365   0.768 124.680  0.00  0.00    +0.292 HD
ENDBRANCH  10  26
BRANCH   9  28
ATOM     28  C   LIG A   1      -6.734  -1.972 125.724  0.00  0.00    +0.069 C 
BRANCH  28  29
ATOM     29  C   LIG A   1      -5.738  -2.927 125.116  0.00  0.00    -0.023 C 
ATOM     30  C   LIG A   1      -5.379  -3.047 123.822  0.00  0.00    -0.079 C 
ATOM     31  C   LIG A   1      -5.925  -2.227 122.688  0.00  0.00    +0.038 C 
ATOM     32  C   LIG A   1      -4.350  -4.065 123.404  0.00  0.00    +0.038 C 
ENDBRANCH  28  29
ENDBRANCH   9  28
TORSDOF 5
ENDMDL
MODEL 6
REMARK VINA RESULT:      -8.6      7.761      8.699
REMARK  Name = NuBBE_1265
REMARK  9 active torsions:
REMARK  status: ('A' for Active; 'I' for Inactive)
REMARK    1  A    between atoms: C_1  and  C_2
REMARK    2  A    between atoms: C_2  and  C_4
REMARK    3  A    between atoms: C_9  and  C_10
REMARK    4  A    between atoms: C_10  and  C_11
REMARK    5  A    between atoms: C_12  and  C_13
REMARK    6  A    between atoms: C_12  and  C_14
REMARK    7  A    between atoms: C_15  and  O_16
REMARK    8  A    between atoms: C_20  and  C_22
REMARK    9  A    between atoms: C_25  and  O_26
REMARK                            x       y       z     vdW  Elec       q    Type
REMARK                         _______ _______ _______ _____ _____    ______ ____
ROOT
ATOM      1  C   LIG A   1      -2.638   5.706 130.242  0.00  0.00    +0.060 C 
ATOM      2  C   LIG A   1      -3.209   6.740 131.217  0.00  0.00    +0.123 C 
ATOM      3  O   LIG A   1      -3.633   6.036 132.400  0.00  0.00    -0.481 OA
ATOM      4  C   LIG A   1      -2.094   7.688 131.676  0.00  0.00    +0.060 C 
ATOM      5  C   LIG A   1      -4.291   7.543 130.542  0.00  0.00    +0.020 C 
ATOM      6  C   LIG A   1      -5.587   7.378 130.818  0.00  0.00    +0.015 C 
ATOM      7  C   LIG A   1      -5.964   6.363 131.799  0.00  0.00    +0.059 A 
ATOM      8  C   LIG A   1      -4.961   5.728 132.548  0.00  0.00    +0.139 A 
ATOM      9  C   LIG A   1      -5.285   4.771 133.530  0.00  0.00    +0.041 A 
ATOM     10  C   LIG A   1      -6.636   4.441 133.727  0.00  0.00    +0.138 A 
ATOM     11  C   LIG A   1      -7.643   5.068 132.978  0.00  0.00    +0.102 A 
ATOM     12  C   LIG A   1      -7.309   6.020 132.013  0.00  0.00    +0.146 A 
ATOM     13  O   LIG A   1      -8.249   6.687 131.274  0.00  0.00    -0.482 OA
ATOM     14  C   LIG A   1      -9.513   6.025 131.150  0.00  0.00    +0.211 C 
ATOM     15  C   LIG A   1     -10.073   5.655 132.513  0.00  0.00    +0.129 C 
ATOM     16  C   LIG A   1      -9.073   4.786 133.217  0.00  0.00    +0.174 C 
ATOM     17  O   LIG A   1      -9.400   3.912 134.023  0.00  0.00    -0.292 OA
ENDROOT
BRANCH  14  18
ATOM     18  C   LIG A   1     -10.457   6.964 130.415  0.00  0.00    -0.007 A 
ATOM     19  C   LIG A   1     -11.771   7.154 130.873  0.00  0.00    +0.011 A 
ATOM     20  C   LIG A   1     -12.640   8.022 130.204  0.00  0.00    +0.046 A 
ATOM     21  C   LIG A   1     -12.197   8.704 129.075  0.00  0.00    +0.117 A 
ATOM     22  C   LIG A   1     -10.902   8.535 128.607  0.00  0.00    +0.046 A 
ATOM     23  C   LIG A   1     -10.034   7.674 129.278  0.00  0.00    +0.011 A 
BRANCH  21  24
ATOM     24  O   LIG A   1     -13.010   9.557 128.390  0.00  0.00    -0.507 OA
ATOM     25  H   LIG A   1     -13.663   9.037 127.896  0.00  0.00    +0.292 HD
ENDBRANCH  21  24
ENDBRANCH  14  18
BRANCH  10  26
ATOM     26  O   LIG A   1      -6.932   3.501 134.684  0.00  0.00    -0.505 OA
ATOM     27  H   LIG A   1      -7.795   3.729 135.095  0.00  0.00    +0.292 HD
ENDBRANCH  10  26
BRANCH   9  28
ATOM     28  C   LIG A   1      -4.192   4.099 134.338  0.00  0.00    +0.069 C 
BRANCH  28  29
ATOM     29  C   LIG A   1      -3.654   2.864 133.660  0.00  0.00    -0.023 C 
ATOM     30  C   LIG A   1      -3.727   1.584 134.076  0.00  0.00    -0.079 C 
ATOM     31  C   LIG A   1      -4.378   1.118 135.348  0.00  0.00    +0.038 C 
ATOM     32  C   LIG A   1      -3.131   0.474 133.249  0.00  0.00    +0.038 C 
ENDBRANCH  28  29
ENDBRANCH   9  28
TORSDOF 5
ENDMDL
MODEL 7
REMARK VINA RESULT:      -8.5      3.614      8.504
REMARK  Name = NuBBE_1265
REMARK  9 active torsions:
REMARK  status: ('A' for Active; 'I' for Inactive)
REMARK    1  A    between atoms: C_1  and  C_2
REMARK    2  A    between atoms: C_2  and  C_4
REMARK    3  A    between atoms: C_9  and  C_10
REMARK    4  A    between atoms: C_10  and  C_11
REMARK    5  A    between atoms: C_12  and  C_13
REMARK    6  A    between atoms: C_12  and  C_14
REMARK    7  A    between atoms: C_15  and  O_16
REMARK    8  A    between atoms: C_20  and  C_22
REMARK    9  A    between atoms: C_25  and  O_26
REMARK                            x       y       z     vdW  Elec       q    Type
REMARK                         _______ _______ _______ _____ _____    ______ ____
ROOT
ATOM      1  C   LIG A   1      -9.377   0.990 123.934  0.00  0.00    +0.060 C 
ATOM      2  C   LIG A   1      -8.027   1.368 124.552  0.00  0.00    +0.123 C 
ATOM      3  O   LIG A   1      -7.466   0.176 125.136  0.00  0.00    -0.481 OA
ATOM      4  C   LIG A   1      -7.051   1.786 123.445  0.00  0.00    +0.060 C 
ATOM      5  C   LIG A   1      -8.204   2.515 125.513  0.00  0.00    +0.020 C 
ATOM      6  C   LIG A   1      -8.145   2.359 126.838  0.00  0.00    +0.015 C 
ATOM      7  C   LIG A   1      -7.921   1.016 127.369  0.00  0.00    +0.059 A 
ATOM      8  C   LIG A   1      -7.596  -0.024 126.486  0.00  0.00    +0.139 A 
ATOM      9  C   LIG A   1      -7.336  -1.325 126.962  0.00  0.00    +0.041 A 
ATOM     10  C   LIG A   1      -7.439  -1.570 128.341  0.00  0.00    +0.138 A 
ATOM     11  C   LIG A   1      -7.770  -0.535 129.229  0.00  0.00    +0.102 A 
ATOM     12  C   LIG A   1      -8.017   0.751 128.745  0.00  0.00    +0.146 A 
ATOM     13  O   LIG A   1      -8.313   1.807 129.565  0.00  0.00    -0.482 OA
ATOM     14  C   LIG A   1      -8.862   1.455 130.841  0.00  0.00    +0.211 C 
ATOM     15  C   LIG A   1      -7.973   0.455 131.561  0.00  0.00    +0.129 C 
ATOM     16  C   LIG A   1      -7.815  -0.755 130.688  0.00  0.00    +0.174 C 
ATOM     17  O   LIG A   1      -7.655  -1.889 131.144  0.00  0.00    -0.292 OA
ENDROOT
BRANCH  14  18
ATOM     18  C   LIG A   1      -9.003   2.734 131.652  0.00  0.00    -0.007 A 
ATOM     19  C   LIG A   1      -9.009   2.691 133.056  0.00  0.00    +0.011 A 
ATOM     20  C   LIG A   1      -9.131   3.866 133.805  0.00  0.00    +0.046 A 
ATOM     21  C   LIG A   1      -9.248   5.089 133.151  0.00  0.00    +0.117 A 
ATOM     22  C   LIG A   1      -9.241   5.157 131.766  0.00  0.00    +0.046 A 
ATOM     23  C   LIG A   1      -9.112   3.986 131.020  0.00  0.00    +0.011 A 
BRANCH  21  24
ATOM     24  O   LIG A   1      -9.372   6.258 133.841  0.00  0.00    -0.507 OA
ATOM     25  H   LIG A   1      -8.980   6.144 134.722  0.00  0.00    +0.292 HD
ENDBRANCH  21  24
ENDBRANCH  14  18
BRANCH  10  26
ATOM     26  O   LIG A   1      -7.189  -2.845 128.785  0.00  0.00    -0.505 OA
ATOM     27  H   LIG A   1      -6.220  -2.953 128.908  0.00  0.00    +0.292 HD
ENDBRANCH  10  26
BRANCH   9  28
ATOM     28  C   LIG A   1      -6.977  -2.439 125.996  0.00  0.00    +0.069 C 
BRANCH  28  29
ATOM     29  C   LIG A   1      -8.183  -2.982 125.272  0.00  0.00    -0.023 C 
ATOM     30  C   LIG A   1      -8.477  -2.897 123.959  0.00  0.00    -0.079 C 
ATOM     31  C   LIG A   1      -7.632  -2.213 122.921  0.00  0.00    +0.038 C 
ATOM     32  C   LIG A   1      -9.738  -3.515 123.415  0.00  0.00    +0.038 C 
ENDBRANCH  28  29
ENDBRANCH   9  28
TORSDOF 5
ENDMDL
MODEL 8
REMARK VINA RESULT:      -8.4      4.756      7.580
REMARK  Name = NuBBE_1265
REMARK  9 active torsions:
REMARK  status: ('A' for Active; 'I' for Inactive)
REMARK    1  A    between atoms: C_1  and  C_2
REMARK    2  A    between atoms: C_2  and  C_4
REMARK    3  A    between atoms: C_9  and  C_10
REMARK    4  A    between atoms: C_10  and  C_11
REMARK    5  A    between atoms: C_12  and  C_13
REMARK    6  A    between atoms: C_12  and  C_14
REMARK    7  A    between atoms: C_15  and  O_16
REMARK    8  A    between atoms: C_20  and  C_22
REMARK    9  A    between atoms: C_25  and  O_26
REMARK                            x       y       z     vdW  Elec       q    Type
REMARK                         _______ _______ _______ _____ _____    ______ ____
ROOT
ATOM      1  C   LIG A   1      -8.039  -0.138 126.294  0.00  0.00    +0.060 C 
ATOM      2  C   LIG A   1      -7.096   0.966 126.786  0.00  0.00    +0.123 C 
ATOM      3  O   LIG A   1      -6.803   0.702 128.172  0.00  0.00    -0.481 OA
ATOM      4  C   LIG A   1      -5.754   0.865 126.051  0.00  0.00    +0.060 C 
ATOM      5  C   LIG A   1      -7.705   2.319 126.519  0.00  0.00    +0.020 C 
ATOM      6  C   LIG A   1      -8.215   3.082 127.489  0.00  0.00    +0.015 C 
ATOM      7  C   LIG A   1      -8.199   2.569 128.857  0.00  0.00    +0.059 A 
ATOM      8  C   LIG A   1      -7.493   1.389 129.138  0.00  0.00    +0.139 A 
ATOM      9  C   LIG A   1      -7.421   0.881 130.450  0.00  0.00    +0.041 A 
ATOM     10  C   LIG A   1      -8.098   1.565 131.473  0.00  0.00    +0.138 A 
ATOM     11  C   LIG A   1      -8.810   2.742 131.198  0.00  0.00    +0.102 A 
ATOM     12  C   LIG A   1      -8.866   3.238 129.895  0.00  0.00    +0.146 A 
ATOM     13  O   LIG A   1      -9.519   4.398 129.572  0.00  0.00    -0.482 OA
ATOM     14  C   LIG A   1     -10.550   4.795 130.483  0.00  0.00    +0.211 C 
ATOM     15  C   LIG A   1     -10.025   4.859 131.908  0.00  0.00    +0.129 C 
ATOM     16  C   LIG A   1      -9.470   3.514 132.271  0.00  0.00    +0.174 C 
ATOM     17  O   LIG A   1      -9.485   3.076 133.423  0.00  0.00    -0.292 OA
ENDROOT
BRANCH  14  18
ATOM     18  C   LIG A   1     -11.066   6.154 130.036  0.00  0.00    -0.007 A 
ATOM     19  C   LIG A   1     -10.435   6.844 128.987  0.00  0.00    +0.011 A 
ATOM     20  C   LIG A   1     -10.911   8.092 128.569  0.00  0.00    +0.046 A 
ATOM     21  C   LIG A   1     -12.019   8.652 129.197  0.00  0.00    +0.117 A 
ATOM     22  C   LIG A   1     -12.660   7.986 130.231  0.00  0.00    +0.046 A 
ATOM     23  C   LIG A   1     -12.190   6.740 130.644  0.00  0.00    +0.011 A 
BRANCH  21  24
ATOM     24  O   LIG A   1     -12.514   9.865 128.823  0.00  0.00    -0.507 OA
ATOM     25  H   LIG A   1     -11.853  10.547 129.023  0.00  0.00    +0.292 HD
ENDBRANCH  21  24
ENDBRANCH  14  18
BRANCH  10  26
ATOM     26  O   LIG A   1      -8.022   1.052 132.745  0.00  0.00    -0.505 OA
ATOM     27  H   LIG A   1      -7.717   0.118 132.692  0.00  0.00    +0.292 HD
ENDBRANCH  10  26
BRANCH   9  28
ATOM     28  C   LIG A   1      -6.647  -0.391 130.741  0.00  0.00    +0.069 C 
BRANCH  28  29
ATOM     29  C   LIG A   1      -7.394  -1.628 130.310  0.00  0.00    -0.023 C 
ATOM     30  C   LIG A   1      -7.043  -2.531 129.372  0.00  0.00    -0.079 C 
ATOM     31  C   LIG A   1      -5.796  -2.477 128.536  0.00  0.00    +0.038 C 
ATOM     32  C   LIG A   1      -7.925  -3.718 129.085  0.00  0.00    +0.038 C 
ENDBRANCH  28  29
ENDBRANCH   9  28
TORSDOF 5
ENDMDL
MODEL 9
REMARK VINA RESULT:      -8.1      4.220      7.962
REMARK  Name = NuBBE_1265
REMARK  9 active torsions:
REMARK  status: ('A' for Active; 'I' for Inactive)
REMARK    1  A    between atoms: C_1  and  C_2
REMARK    2  A    between atoms: C_2  and  C_4
REMARK    3  A    between atoms: C_9  and  C_10
REMARK    4  A    between atoms: C_10  and  C_11
REMARK    5  A    between atoms: C_12  and  C_13
REMARK    6  A    between atoms: C_12  and  C_14
REMARK    7  A    between atoms: C_15  and  O_16
REMARK    8  A    between atoms: C_20  and  C_22
REMARK    9  A    between atoms: C_25  and  O_26
REMARK                            x       y       z     vdW  Elec       q    Type
REMARK                         _______ _______ _______ _____ _____    ______ ____
ROOT
ATOM      1  C   LIG A   1      -5.919  -3.173 129.304  0.00  0.00    +0.060 C 
ATOM      2  C   LIG A   1      -7.342  -2.737 128.943  0.00  0.00    +0.123 C 
ATOM      3  O   LIG A   1      -7.305  -2.183 127.614  0.00  0.00    -0.481 OA
ATOM      4  C   LIG A   1      -8.254  -3.967 128.855  0.00  0.00    +0.060 C 
ATOM      5  C   LIG A   1      -7.877  -1.802 129.998  0.00  0.00    +0.020 C 
ATOM      6  C   LIG A   1      -8.011  -0.489 129.794  0.00  0.00    +0.015 C 
ATOM      7  C   LIG A   1      -7.603   0.058 128.503  0.00  0.00    +0.059 A 
ATOM      8  C   LIG A   1      -7.259  -0.820 127.464  0.00  0.00    +0.139 A 
ATOM      9  C   LIG A   1      -6.895  -0.334 126.193  0.00  0.00    +0.041 A 
ATOM     10  C   LIG A   1      -6.854   1.055 125.991  0.00  0.00    +0.138 A 
ATOM     11  C   LIG A   1      -7.191   1.939 127.027  0.00  0.00    +0.102 A 
ATOM     12  C   LIG A   1      -7.557   1.444 128.279  0.00  0.00    +0.146 A 
ATOM     13  O   LIG A   1      -7.926   2.257 129.318  0.00  0.00    -0.482 OA
ATOM     14  C   LIG A   1      -7.436   3.601 129.248  0.00  0.00    +0.211 C 
ATOM     15  C   LIG A   1      -7.792   4.243 127.917  0.00  0.00    +0.129 C 
ATOM     16  C   LIG A   1      -7.222   3.400 126.815  0.00  0.00    +0.174 C 
ATOM     17  O   LIG A   1      -6.853   3.873 125.738  0.00  0.00    -0.292 OA
ENDROOT
BRANCH  14  18
ATOM     18  C   LIG A   1      -8.049   4.377 130.403  0.00  0.00    -0.007 A 
ATOM     19  C   LIG A   1      -7.876   5.768 130.498  0.00  0.00    +0.011 A 
ATOM     20  C   LIG A   1      -8.444   6.486 131.556  0.00  0.00    +0.046 A 
ATOM     21  C   LIG A   1      -9.186   5.815 132.523  0.00  0.00    +0.117 A 
ATOM     22  C   LIG A   1      -9.372   4.443 132.448  0.00  0.00    +0.046 A 
ATOM     23  C   LIG A   1      -8.812   3.728 131.390  0.00  0.00    +0.011 A 
BRANCH  21  24
ATOM     24  O   LIG A   1      -9.754   6.474 133.572  0.00  0.00    -0.507 OA
ATOM     25  H   LIG A   1     -10.076   7.336 133.261  0.00  0.00    +0.292 HD
ENDBRANCH  21  24
ENDBRANCH  14  18
BRANCH  10  26
ATOM     26  O   LIG A   1      -6.491   1.510 124.747  0.00  0.00    -0.505 OA
ATOM     27  H   LIG A   1      -6.428   2.491 124.775  0.00  0.00    +0.292 HD
ENDBRANCH  10  26
BRANCH   9  28
ATOM     28  C   LIG A   1      -6.534  -1.296 125.077  0.00  0.00    +0.069 C 
BRANCH  28  29
ATOM     29  C   LIG A   1      -7.728  -1.682 124.241  0.00  0.00    -0.023 C 
ATOM     30  C   LIG A   1      -8.329  -2.885 124.148  0.00  0.00    -0.079 C 
ATOM     31  C   LIG A   1      -7.908  -4.127 124.883  0.00  0.00    +0.038 C 
ATOM     32  C   LIG A   1      -9.528  -3.075 123.257  0.00  0.00    +0.038 C 
ENDBRANCH  28  29
ENDBRANCH   9  28
TORSDOF 5
ENDMDL
