MODEL 1
REMARK VINA RESULT:      -7.8      0.000      0.000
REMARK  Name = NuBBE_88
REMARK  6 active torsions:
REMARK  status: ('A' for Active; 'I' for Inactive)
REMARK    1  A    between atoms: O_1  and  C_2
REMARK    2  A    between atoms: C_6  and  C_23
REMARK    3  A    between atoms: C_9  and  C_10
REMARK    4  A    between atoms: C_9  and  C_11
REMARK    5  A    between atoms: C_18  and  C_19
REMARK    6  A    between atoms: C_18  and  C_21
REMARK                            x       y       z     vdW  Elec       q    Type
REMARK                         _______ _______ _______ _____ _____    ______ ____
ROOT
ATOM      1  C   LIG A   1      -6.473   6.087 132.661  0.00  0.00    +0.120 C 
ATOM      2  C   LIG A   1      -6.241   6.278 131.165  0.00  0.00    +0.032 C 
ATOM      3  C   LIG A   1      -7.375   7.067 130.527  0.00  0.00    +0.010 C 
ATOM      4  C   LIG A   1      -8.768   6.412 130.711  0.00  0.00    -0.022 C 
ATOM      5  C   LIG A   1      -8.988   6.054 132.227  0.00  0.00    +0.007 C 
ATOM      6  C   LIG A   1      -7.801   5.343 132.984  0.00  0.00    -0.005 C 
ATOM      7  C   LIG A   1      -8.039   5.461 134.516  0.00  0.00    +0.014 C 
ATOM      8  C   LIG A   1      -7.665   3.830 132.703  0.00  0.00    +0.014 C 
ATOM      9  C   LIG A   1     -10.363   5.375 132.417  0.00  0.00    +0.031 C 
ATOM     10  C   LIG A   1     -11.471   6.131 131.741  0.00  0.00    -0.027 C 
ATOM     11  C   LIG A   1     -11.277   7.093 130.822  0.00  0.00    -0.069 C 
ATOM     12  C   LIG A   1      -9.891   7.467 130.312  0.00  0.00    +0.021 C 
ATOM     13  C   LIG A   1      -9.913   7.791 128.800  0.00  0.00    +0.009 C 
ATOM     14  C   LIG A   1     -11.037   8.757 128.418  0.00  0.00    +0.012 C 
ATOM     15  C   LIG A   1     -12.433   8.209 128.797  0.00  0.00    -0.011 C 
ATOM     16  C   LIG A   1     -13.488   9.297 128.501  0.00  0.00    +0.016 C 
ATOM     17  C   LIG A   1     -12.440   7.928 130.322  0.00  0.00    +0.041 C 
ATOM     18  C   LIG A   1      -8.858   5.170 129.789  0.00  0.00    +0.012 C 
ENDROOT
BRANCH   1  19
ATOM     19  O   LIG A   1      -5.359   5.389 133.216  0.00  0.00    -0.391 OA
ATOM     20  H   LIG A   1      -4.682   6.049 133.443  0.00  0.00    +0.210 HD
ENDBRANCH   1  19
BRANCH  15  21
ATOM     21  C   LIG A   1     -12.775   7.017 127.903  0.00  0.00    -0.028 C 
ATOM     22  C   LIG A   1     -12.659   6.920 126.571  0.00  0.00    +0.004 C 
ENDBRANCH  15  21
TORSDOF 2
ENDMDL
MODEL 2
REMARK VINA RESULT:      -7.3      7.647      9.627
REMARK  Name = NuBBE_88
REMARK  6 active torsions:
REMARK  status: ('A' for Active; 'I' for Inactive)
REMARK    1  A    between atoms: O_1  and  C_2
REMARK    2  A    between atoms: C_6  and  C_23
REMARK    3  A    between atoms: C_9  and  C_10
REMARK    4  A    between atoms: C_9  and  C_11
REMARK    5  A    between atoms: C_18  and  C_19
REMARK    6  A    between atoms: C_18  and  C_21
REMARK                            x       y       z     vdW  Elec       q    Type
REMARK                         _______ _______ _______ _____ _____    ______ ____
ROOT
ATOM      1  C   LIG A   1      -6.782   0.340 131.087  0.00  0.00    +0.120 C 
ATOM      2  C   LIG A   1      -5.892   0.718 129.907  0.00  0.00    +0.032 C 
ATOM      3  C   LIG A   1      -6.526   0.311 128.585  0.00  0.00    +0.010 C 
ATOM      4  C   LIG A   1      -6.831  -1.205 128.483  0.00  0.00    -0.022 C 
ATOM      5  C   LIG A   1      -7.620  -1.673 129.761  0.00  0.00    +0.007 C 
ATOM      6  C   LIG A   1      -7.085  -1.184 131.162  0.00  0.00    -0.005 C 
ATOM      7  C   LIG A   1      -8.203  -1.384 132.225  0.00  0.00    +0.014 C 
ATOM      8  C   LIG A   1      -5.862  -1.961 131.698  0.00  0.00    +0.014 C 
ATOM      9  C   LIG A   1      -7.905  -3.190 129.682  0.00  0.00    +0.031 C 
ATOM     10  C   LIG A   1      -8.483  -3.594 128.356  0.00  0.00    -0.027 C 
ATOM     11  C   LIG A   1      -8.466  -2.817 127.257  0.00  0.00    -0.069 C 
ATOM     12  C   LIG A   1      -7.781  -1.457 127.230  0.00  0.00    +0.021 C 
ATOM     13  C   LIG A   1      -7.081  -1.203 125.874  0.00  0.00    +0.009 C 
ATOM     14  C   LIG A   1      -7.983  -1.509 124.677  0.00  0.00    +0.012 C 
ATOM     15  C   LIG A   1      -8.479  -2.975 124.677  0.00  0.00    -0.011 C 
ATOM     16  C   LIG A   1      -9.482  -3.157 123.518  0.00  0.00    +0.016 C 
ATOM     17  C   LIG A   1      -9.228  -3.227 126.011  0.00  0.00    +0.041 C 
ATOM     18  C   LIG A   1      -5.496  -1.970 128.296  0.00  0.00    +0.012 C 
ENDROOT
BRANCH   1  19
ATOM     19  O   LIG A   1      -6.166   0.789 132.293  0.00  0.00    -0.391 OA
ATOM     20  H   LIG A   1      -5.829   1.688 132.134  0.00  0.00    +0.210 HD
ENDBRANCH   1  19
BRANCH  15  21
ATOM     21  C   LIG A   1      -7.306  -3.912 124.389  0.00  0.00    -0.028 C 
ATOM     22  C   LIG A   1      -6.072  -3.593 123.977  0.00  0.00    +0.004 C 
ENDBRANCH  15  21
TORSDOF 2
ENDMDL
MODEL 3
REMARK VINA RESULT:      -7.2      8.877     11.508
REMARK  Name = NuBBE_88
REMARK  6 active torsions:
REMARK  status: ('A' for Active; 'I' for Inactive)
REMARK    1  A    between atoms: O_1  and  C_2
REMARK    2  A    between atoms: C_6  and  C_23
REMARK    3  A    between atoms: C_9  and  C_10
REMARK    4  A    between atoms: C_9  and  C_11
REMARK    5  A    between atoms: C_18  and  C_19
REMARK    6  A    between atoms: C_18  and  C_21
REMARK                            x       y       z     vdW  Elec       q    Type
REMARK                         _______ _______ _______ _____ _____    ______ ____
ROOT
ATOM      1  C   LIG A   1      -6.843  -1.913 124.199  0.00  0.00    +0.120 C 
ATOM      2  C   LIG A   1      -6.012  -0.834 124.887  0.00  0.00    +0.032 C 
ATOM      3  C   LIG A   1      -5.464  -1.325 126.219  0.00  0.00    +0.010 C 
ATOM      4  C   LIG A   1      -6.563  -1.783 127.212  0.00  0.00    -0.022 C 
ATOM      5  C   LIG A   1      -7.540  -2.786 126.493  0.00  0.00    +0.007 C 
ATOM      6  C   LIG A   1      -8.051  -2.393 125.054  0.00  0.00    -0.005 C 
ATOM      7  C   LIG A   1      -8.633  -3.660 124.364  0.00  0.00    +0.014 C 
ATOM      8  C   LIG A   1      -9.190  -1.351 125.030  0.00  0.00    +0.014 C 
ATOM      9  C   LIG A   1      -8.656  -3.227 127.467  0.00  0.00    +0.031 C 
ATOM     10  C   LIG A   1      -8.113  -3.663 128.798  0.00  0.00    -0.027 C 
ATOM     11  C   LIG A   1      -6.862  -3.409 129.223  0.00  0.00    -0.069 C 
ATOM     12  C   LIG A   1      -5.878  -2.577 128.410  0.00  0.00    +0.021 C 
ATOM     13  C   LIG A   1      -5.012  -1.676 129.321  0.00  0.00    +0.009 C 
ATOM     14  C   LIG A   1      -4.410  -2.436 130.505  0.00  0.00    +0.012 C 
ATOM     15  C   LIG A   1      -5.495  -3.090 131.392  0.00  0.00    -0.011 C 
ATOM     16  C   LIG A   1      -4.800  -3.941 132.476  0.00  0.00    +0.016 C 
ATOM     17  C   LIG A   1      -6.339  -4.037 130.500  0.00  0.00    +0.041 C 
ATOM     18  C   LIG A   1      -7.294  -0.531 127.758  0.00  0.00    +0.012 C 
ENDROOT
BRANCH   1  19
ATOM     19  O   LIG A   1      -7.286  -1.419 122.936  0.00  0.00    -0.391 OA
ATOM     20  H   LIG A   1      -6.732  -0.653 122.708  0.00  0.00    +0.210 HD
ENDBRANCH   1  19
BRANCH  15  21
ATOM     21  C   LIG A   1      -6.277  -2.003 132.129  0.00  0.00    -0.028 C 
ATOM     22  C   LIG A   1      -7.513  -2.075 132.643  0.00  0.00    +0.004 C 
ENDBRANCH  15  21
TORSDOF 2
ENDMDL
MODEL 4
REMARK VINA RESULT:      -7.2      1.467      2.969
REMARK  Name = NuBBE_88
REMARK  6 active torsions:
REMARK  status: ('A' for Active; 'I' for Inactive)
REMARK    1  A    between atoms: O_1  and  C_2
REMARK    2  A    between atoms: C_6  and  C_23
REMARK    3  A    between atoms: C_9  and  C_10
REMARK    4  A    between atoms: C_9  and  C_11
REMARK    5  A    between atoms: C_18  and  C_19
REMARK    6  A    between atoms: C_18  and  C_21
REMARK                            x       y       z     vdW  Elec       q    Type
REMARK                         _______ _______ _______ _____ _____    ______ ____
ROOT
ATOM      1  C   LIG A   1      -7.525   3.056 131.918  0.00  0.00    +0.120 C 
ATOM      2  C   LIG A   1      -8.986   2.882 132.320  0.00  0.00    +0.032 C 
ATOM      3  C   LIG A   1      -9.911   3.642 131.381  0.00  0.00    +0.010 C 
ATOM      4  C   LIG A   1      -9.616   5.162 131.314  0.00  0.00    -0.022 C 
ATOM      5  C   LIG A   1      -8.081   5.392 131.053  0.00  0.00    +0.007 C 
ATOM      6  C   LIG A   1      -7.066   4.543 131.910  0.00  0.00    -0.005 C 
ATOM      7  C   LIG A   1      -5.668   4.594 131.230  0.00  0.00    +0.014 C 
ATOM      8  C   LIG A   1      -6.842   5.056 133.350  0.00  0.00    +0.014 C 
ATOM      9  C   LIG A   1      -7.772   6.905 131.012  0.00  0.00    +0.031 C 
ATOM     10  C   LIG A   1      -8.720   7.658 130.124  0.00  0.00    -0.027 C 
ATOM     11  C   LIG A   1      -9.884   7.160 129.668  0.00  0.00    -0.069 C 
ATOM     12  C   LIG A   1     -10.398   5.785 130.076  0.00  0.00    +0.021 C 
ATOM     13  C   LIG A   1     -11.933   5.789 130.265  0.00  0.00    +0.009 C 
ATOM     14  C   LIG A   1     -12.672   6.448 129.097  0.00  0.00    +0.012 C 
ATOM     15  C   LIG A   1     -12.226   7.913 128.876  0.00  0.00    -0.011 C 
ATOM     16  C   LIG A   1     -12.917   8.453 127.606  0.00  0.00    +0.016 C 
ATOM     17  C   LIG A   1     -10.695   7.918 128.634  0.00  0.00    +0.041 C 
ATOM     18  C   LIG A   1     -10.099   5.821 132.631  0.00  0.00    +0.012 C 
ENDROOT
BRANCH   1  19
ATOM     19  O   LIG A   1      -6.708   2.283 132.797  0.00  0.00    -0.391 OA
ATOM     20  H   LIG A   1      -5.789   2.362 132.491  0.00  0.00    +0.210 HD
ENDBRANCH   1  19
BRANCH  15  21
ATOM     21  C   LIG A   1     -12.715   8.778 130.038  0.00  0.00    -0.028 C 
ATOM     22  C   LIG A   1     -13.173  10.037 129.999  0.00  0.00    +0.004 C 
ENDBRANCH  15  21
TORSDOF 2
ENDMDL
MODEL 5
REMARK VINA RESULT:      -7.2      7.893     10.238
REMARK  Name = NuBBE_88
REMARK  6 active torsions:
REMARK  status: ('A' for Active; 'I' for Inactive)
REMARK    1  A    between atoms: O_1  and  C_2
REMARK    2  A    between atoms: C_6  and  C_23
REMARK    3  A    between atoms: C_9  and  C_10
REMARK    4  A    between atoms: C_9  and  C_11
REMARK    5  A    between atoms: C_18  and  C_19
REMARK    6  A    between atoms: C_18  and  C_21
REMARK                            x       y       z     vdW  Elec       q    Type
REMARK                         _______ _______ _______ _____ _____    ______ ____
ROOT
ATOM      1  C   LIG A   1      -9.086  -2.418 123.415  0.00  0.00    +0.120 C 
ATOM      2  C   LIG A   1      -9.651  -1.012 123.238  0.00  0.00    +0.032 C 
ATOM      3  C   LIG A   1      -8.583   0.046 123.475  0.00  0.00    +0.010 C 
ATOM      4  C   LIG A   1      -7.934  -0.031 124.881  0.00  0.00    -0.022 C 
ATOM      5  C   LIG A   1      -7.473  -1.508 125.170  0.00  0.00    +0.007 C 
ATOM      6  C   LIG A   1      -8.490  -2.664 124.831  0.00  0.00    -0.005 C 
ATOM      7  C   LIG A   1      -7.718  -4.014 124.782  0.00  0.00    +0.014 C 
ATOM      8  C   LIG A   1      -9.612  -2.869 125.872  0.00  0.00    +0.014 C 
ATOM      9  C   LIG A   1      -6.849  -1.600 126.581  0.00  0.00    +0.031 C 
ATOM     10  C   LIG A   1      -5.833  -0.523 126.828  0.00  0.00    -0.027 C 
ATOM     11  C   LIG A   1      -5.697   0.577 126.064  0.00  0.00    -0.069 C 
ATOM     12  C   LIG A   1      -6.627   0.878 124.896  0.00  0.00    +0.021 C 
ATOM     13  C   LIG A   1      -6.936   2.390 124.794  0.00  0.00    +0.009 C 
ATOM     14  C   LIG A   1      -5.678   3.257 124.874  0.00  0.00    +0.012 C 
ATOM     15  C   LIG A   1      -4.893   3.029 126.188  0.00  0.00    -0.011 C 
ATOM     16  C   LIG A   1      -3.579   3.838 126.124  0.00  0.00    +0.016 C 
ATOM     17  C   LIG A   1      -4.532   1.524 126.276  0.00  0.00    +0.041 C 
ATOM     18  C   LIG A   1      -8.952   0.488 125.927  0.00  0.00    +0.012 C 
ENDROOT
BRANCH   1  19
ATOM     19  O   LIG A   1     -10.113  -3.367 123.131  0.00  0.00    -0.391 OA
ATOM     20  H   LIG A   1     -10.958  -2.887 123.100  0.00  0.00    +0.210 HD
ENDBRANCH   1  19
BRANCH  15  21
ATOM     21  C   LIG A   1      -5.691   3.590 127.364  0.00  0.00    -0.028 C 
ATOM     22  C   LIG A   1      -5.619   3.241 128.656  0.00  0.00    +0.004 C 
ENDBRANCH  15  21
TORSDOF 2
ENDMDL
MODEL 6
REMARK VINA RESULT:      -6.9      7.535     10.090
REMARK  Name = NuBBE_88
REMARK  6 active torsions:
REMARK  status: ('A' for Active; 'I' for Inactive)
REMARK    1  A    between atoms: O_1  and  C_2
REMARK    2  A    between atoms: C_6  and  C_23
REMARK    3  A    between atoms: C_9  and  C_10
REMARK    4  A    between atoms: C_9  and  C_11
REMARK    5  A    between atoms: C_18  and  C_19
REMARK    6  A    between atoms: C_18  and  C_21
REMARK                            x       y       z     vdW  Elec       q    Type
REMARK                         _______ _______ _______ _____ _____    ______ ____
ROOT
ATOM      1  C   LIG A   1      -9.155  -1.719 124.958  0.00  0.00    +0.120 C 
ATOM      2  C   LIG A   1      -8.149  -2.060 126.053  0.00  0.00    +0.032 C 
ATOM      3  C   LIG A   1      -7.509  -0.804 126.625  0.00  0.00    +0.010 C 
ATOM      4  C   LIG A   1      -6.780   0.060 125.563  0.00  0.00    -0.022 C 
ATOM      5  C   LIG A   1      -7.735   0.308 124.338  0.00  0.00    +0.007 C 
ATOM      6  C   LIG A   1      -8.526  -0.933 123.772  0.00  0.00    -0.005 C 
ATOM      7  C   LIG A   1      -9.695  -0.422 122.882  0.00  0.00    +0.014 C 
ATOM      8  C   LIG A   1      -7.699  -1.874 122.868  0.00  0.00    +0.014 C 
ATOM      9  C   LIG A   1      -7.009   1.146 123.261  0.00  0.00    +0.031 C 
ATOM     10  C   LIG A   1      -6.335   2.357 123.838  0.00  0.00    -0.027 C 
ATOM     11  C   LIG A   1      -6.107   2.541 125.152  0.00  0.00    -0.069 C 
ATOM     12  C   LIG A   1      -6.451   1.484 126.194  0.00  0.00    +0.021 C 
ATOM     13  C   LIG A   1      -5.382   1.423 127.311  0.00  0.00    +0.009 C 
ATOM     14  C   LIG A   1      -5.027   2.804 127.866  0.00  0.00    +0.012 C 
ATOM     15  C   LIG A   1      -4.499   3.757 126.768  0.00  0.00    -0.011 C 
ATOM     16  C   LIG A   1      -4.294   5.157 127.386  0.00  0.00    +0.016 C 
ATOM     17  C   LIG A   1      -5.584   3.868 125.666  0.00  0.00    +0.041 C 
ATOM     18  C   LIG A   1      -5.467  -0.655 125.156  0.00  0.00    +0.012 C 
ENDROOT
BRANCH   1  19
ATOM     19  O   LIG A   1      -9.762  -2.925 124.496  0.00  0.00    -0.391 OA
ATOM     20  H   LIG A   1      -9.130  -3.649 124.648  0.00  0.00    +0.210 HD
ENDBRANCH   1  19
BRANCH  15  21
ATOM     21  C   LIG A   1      -3.124   3.285 126.298  0.00  0.00    -0.028 C 
ATOM     22  C   LIG A   1      -2.011   3.116 127.026  0.00  0.00    +0.004 C 
ENDBRANCH  15  21
TORSDOF 2
ENDMDL
MODEL 7
REMARK VINA RESULT:      -6.9      2.269      3.748
REMARK  Name = NuBBE_88
REMARK  6 active torsions:
REMARK  status: ('A' for Active; 'I' for Inactive)
REMARK    1  A    between atoms: O_1  and  C_2
REMARK    2  A    between atoms: C_6  and  C_23
REMARK    3  A    between atoms: C_9  and  C_10
REMARK    4  A    between atoms: C_9  and  C_11
REMARK    5  A    between atoms: C_18  and  C_19
REMARK    6  A    between atoms: C_18  and  C_21
REMARK                            x       y       z     vdW  Elec       q    Type
REMARK                         _______ _______ _______ _____ _____    ______ ____
ROOT
ATOM      1  C   LIG A   1      -3.324   7.301 132.095  0.00  0.00    +0.120 C 
ATOM      2  C   LIG A   1      -3.831   7.406 130.660  0.00  0.00    +0.032 C 
ATOM      3  C   LIG A   1      -5.347   7.525 130.617  0.00  0.00    +0.010 C 
ATOM      4  C   LIG A   1      -6.082   6.339 131.294  0.00  0.00    -0.022 C 
ATOM      5  C   LIG A   1      -5.482   6.094 132.728  0.00  0.00    +0.007 C 
ATOM      6  C   LIG A   1      -3.911   6.082 132.863  0.00  0.00    -0.005 C 
ATOM      7  C   LIG A   1      -3.534   6.252 134.362  0.00  0.00    +0.014 C 
ATOM      8  C   LIG A   1      -3.230   4.770 132.413  0.00  0.00    +0.014 C 
ATOM      9  C   LIG A   1      -6.190   4.896 133.400  0.00  0.00    +0.031 C 
ATOM     10  C   LIG A   1      -7.686   4.993 133.310  0.00  0.00    -0.027 C 
ATOM     11  C   LIG A   1      -8.340   5.830 132.485  0.00  0.00    -0.069 C 
ATOM     12  C   LIG A   1      -7.614   6.726 131.489  0.00  0.00    +0.021 C 
ATOM     13  C   LIG A   1      -8.390   6.833 130.155  0.00  0.00    +0.009 C 
ATOM     14  C   LIG A   1      -9.875   7.143 130.357  0.00  0.00    +0.012 C 
ATOM     15  C   LIG A   1     -10.582   6.073 131.223  0.00  0.00    -0.011 C 
ATOM     16  C   LIG A   1     -12.033   6.530 131.486  0.00  0.00    +0.016 C 
ATOM     17  C   LIG A   1      -9.845   5.992 132.584  0.00  0.00    +0.041 C 
ATOM     18  C   LIG A   1      -5.963   5.094 130.380  0.00  0.00    +0.012 C 
ENDROOT
BRANCH   1  19
ATOM     19  O   LIG A   1      -1.898   7.245 132.078  0.00  0.00    -0.391 OA
ATOM     20  H   LIG A   1      -1.582   7.529 132.953  0.00  0.00    +0.210 HD
ENDBRANCH   1  19
BRANCH  15  21
ATOM     21  C   LIG A   1     -10.675   4.762 130.441  0.00  0.00    -0.028 C 
ATOM     22  C   LIG A   1     -10.442   3.517 130.879  0.00  0.00    +0.004 C 
ENDBRANCH  15  21
TORSDOF 2
ENDMDL
MODEL 8
REMARK VINA RESULT:      -6.9      7.558     10.251
REMARK  Name = NuBBE_88
REMARK  6 active torsions:
REMARK  status: ('A' for Active; 'I' for Inactive)
REMARK    1  A    between atoms: O_1  and  C_2
REMARK    2  A    between atoms: C_6  and  C_23
REMARK    3  A    between atoms: C_9  and  C_10
REMARK    4  A    between atoms: C_9  and  C_11
REMARK    5  A    between atoms: C_18  and  C_19
REMARK    6  A    between atoms: C_18  and  C_21
REMARK                            x       y       z     vdW  Elec       q    Type
REMARK                         _______ _______ _______ _____ _____    ______ ____
ROOT
ATOM      1  C   LIG A   1      -6.341  -1.738 124.147  0.00  0.00    +0.120 C 
ATOM      2  C   LIG A   1      -6.424  -0.278 124.583  0.00  0.00    +0.032 C 
ATOM      3  C   LIG A   1      -6.303  -0.146 126.095  0.00  0.00    +0.010 C 
ATOM      4  C   LIG A   1      -7.384  -0.937 126.875  0.00  0.00    -0.022 C 
ATOM      5  C   LIG A   1      -7.441  -2.418 126.347  0.00  0.00    +0.007 C 
ATOM      6  C   LIG A   1      -7.444  -2.631 124.785  0.00  0.00    -0.005 C 
ATOM      7  C   LIG A   1      -7.079  -4.111 124.478  0.00  0.00    +0.014 C 
ATOM      8  C   LIG A   1      -8.808  -2.392 124.099  0.00  0.00    +0.014 C 
ATOM      9  C   LIG A   1      -8.535  -3.207 127.101  0.00  0.00    +0.031 C 
ATOM     10  C   LIG A   1      -8.443  -3.032 128.589  0.00  0.00    -0.027 C 
ATOM     11  C   LIG A   1      -7.719  -2.072 129.193  0.00  0.00    -0.069 C 
ATOM     12  C   LIG A   1      -6.967  -1.004 128.410  0.00  0.00    +0.021 C 
ATOM     13  C   LIG A   1      -7.033   0.369 129.119  0.00  0.00    +0.009 C 
ATOM     14  C   LIG A   1      -6.691   0.282 130.608  0.00  0.00    +0.012 C 
ATOM     15  C   LIG A   1      -7.633  -0.681 131.369  0.00  0.00    -0.011 C 
ATOM     16  C   LIG A   1      -7.136  -0.810 132.825  0.00  0.00    +0.016 C 
ATOM     17  C   LIG A   1      -7.537  -2.075 130.699  0.00  0.00    +0.041 C 
ATOM     18  C   LIG A   1      -8.741  -0.202 126.728  0.00  0.00    +0.012 C 
ENDROOT
BRANCH   1  19
ATOM     19  O   LIG A   1      -6.407  -1.799 122.723  0.00  0.00    -0.391 OA
ATOM     20  H   LIG A   1      -7.290  -2.127 122.482  0.00  0.00    +0.210 HD
ENDBRANCH   1  19
BRANCH  15  21
ATOM     21  C   LIG A   1      -9.035  -0.076 131.441  0.00  0.00    -0.028 C 
ATOM     22  C   LIG A   1      -9.406   1.096 131.974  0.00  0.00    +0.004 C 
ENDBRANCH  15  21
TORSDOF 2
ENDMDL
MODEL 9
REMARK VINA RESULT:      -6.9      2.481      6.419
REMARK  Name = NuBBE_88
REMARK  6 active torsions:
REMARK  status: ('A' for Active; 'I' for Inactive)
REMARK    1  A    between atoms: O_1  and  C_2
REMARK    2  A    between atoms: C_6  and  C_23
REMARK    3  A    between atoms: C_9  and  C_10
REMARK    4  A    between atoms: C_9  and  C_11
REMARK    5  A    between atoms: C_18  and  C_19
REMARK    6  A    between atoms: C_18  and  C_21
REMARK                            x       y       z     vdW  Elec       q    Type
REMARK                         _______ _______ _______ _____ _____    ______ ____
ROOT
ATOM      1  C   LIG A   1     -12.150   8.296 129.911  0.00  0.00    +0.120 C 
ATOM      2  C   LIG A   1     -12.835   7.376 130.917  0.00  0.00    +0.032 C 
ATOM      3  C   LIG A   1     -11.816   6.666 131.798  0.00  0.00    +0.010 C 
ATOM      4  C   LIG A   1     -10.791   5.819 131.002  0.00  0.00    -0.022 C 
ATOM      5  C   LIG A   1     -10.169   6.689 129.847  0.00  0.00    +0.007 C 
ATOM      6  C   LIG A   1     -11.161   7.548 128.972  0.00  0.00    -0.005 C 
ATOM      7  C   LIG A   1     -10.347   8.626 128.201  0.00  0.00    +0.014 C 
ATOM      8  C   LIG A   1     -11.925   6.754 127.889  0.00  0.00    +0.014 C 
ATOM      9  C   LIG A   1      -9.165   5.845 129.030  0.00  0.00    +0.031 C 
ATOM     10  C   LIG A   1      -8.194   5.107 129.906  0.00  0.00    -0.027 C 
ATOM     11  C   LIG A   1      -8.355   4.931 131.230  0.00  0.00    -0.069 C 
ATOM     12  C   LIG A   1      -9.597   5.409 131.972  0.00  0.00    +0.021 C 
ATOM     13  C   LIG A   1     -10.022   4.406 133.069  0.00  0.00    +0.009 C 
ATOM     14  C   LIG A   1      -8.853   3.970 133.956  0.00  0.00    +0.012 C 
ATOM     15  C   LIG A   1      -7.714   3.313 133.141  0.00  0.00    -0.011 C 
ATOM     16  C   LIG A   1      -6.529   3.029 134.089  0.00  0.00    +0.016 C 
ATOM     17  C   LIG A   1      -7.243   4.330 132.069  0.00  0.00    +0.041 C 
ATOM     18  C   LIG A   1     -11.500   4.549 130.470  0.00  0.00    +0.012 C 
ENDROOT
BRANCH   1  19
ATOM     19  O   LIG A   1     -13.150   8.973 129.150  0.00  0.00    -0.391 OA
ATOM     20  H   LIG A   1     -13.360   9.802 129.611  0.00  0.00    +0.210 HD
ENDBRANCH   1  19
BRANCH  15  21
ATOM     21  C   LIG A   1      -8.180   1.958 132.610  0.00  0.00    -0.028 C 
ATOM     22  C   LIG A   1      -8.027   1.453 131.378  0.00  0.00    +0.004 C 
ENDBRANCH  15  21
TORSDOF 2
ENDMDL
