MODEL 1
REMARK VINA RESULT:      -8.4      0.000      0.000
REMARK  Name = NuBBE_372
REMARK  13 active torsions:
REMARK  status: ('A' for Active; 'I' for Inactive)
REMARK    1  A    between atoms: O_1  and  C_2
REMARK    2  A    between atoms: C_8  and  O_37
REMARK    3  A    between atoms: C_9  and  C_10
REMARK    4  A    between atoms: C_13  and  C_33
REMARK    5  A    between atoms: C_15  and  O_32
REMARK    6  A    between atoms: C_17  and  O_31
REMARK    7  A    between atoms: C_19  and  O_21
REMARK    8  A    between atoms: O_21  and  C_22
REMARK    9  A    between atoms: C_22  and  C_23
REMARK   10  A    between atoms: C_26  and  O_29
REMARK   11  A    between atoms: C_33  and  O_34
REMARK   12  A    between atoms: C_35  and  O_36
REMARK   13  A    between atoms: C_43  and  O_44
REMARK                            x       y       z     vdW  Elec       q    Type
REMARK                         _______ _______ _______ _____ _____    ______ ____
ROOT
ATOM      1  C   LIG A   1      -8.473   0.830 128.075  0.00  0.00    +0.199 C 
ATOM      2  O   LIG A   1      -8.667   1.996 128.900  0.00  0.00    -0.360 OA
ATOM      3  C   LIG A   1      -8.803   1.669 130.293  0.00  0.00    +0.175 C 
ATOM      4  C   LIG A   1      -7.452   1.173 130.807  0.00  0.00    +0.177 C 
ATOM      5  C   LIG A   1      -7.154  -0.159 130.127  0.00  0.00    +0.189 C 
ATOM      6  C   LIG A   1      -7.338  -0.114 128.591  0.00  0.00    +0.241 C 
ENDROOT
BRANCH   1  14
ATOM      7  C   LIG A   1      -5.605   4.629 120.499  0.00  0.00    +0.162 A 
ATOM      8  C   LIG A   1      -6.559   3.699 120.919  0.00  0.00    +0.096 A 
ATOM      9  C   LIG A   1      -6.645   3.362 122.272  0.00  0.00    +0.143 A 
ATOM     10  O   LIG A   1      -7.615   2.453 122.616  0.00  0.00    -0.454 OA
ATOM     11  C   LIG A   1      -7.781   2.138 123.944  0.00  0.00    +0.146 A 
ATOM     12  C   LIG A   1      -8.819   1.259 124.241  0.00  0.00    +0.093 A 
ATOM     13  C   LIG A   1      -9.060   0.873 125.568  0.00  0.00    +0.130 A 
ATOM     14  C   LIG A   1      -8.273   1.340 126.637  0.00  0.00    +0.068 A 
ATOM     15  C   LIG A   1      -7.235   2.241 126.310  0.00  0.00    +0.141 A 
ATOM     16  C   LIG A   1      -6.990   2.635 124.974  0.00  0.00    +0.106 A 
ATOM     17  C   LIG A   1      -5.908   3.569 124.610  0.00  0.00    +0.204 A 
ATOM     18  O   LIG A   1      -5.156   4.018 125.469  0.00  0.00    -0.286 OA
ATOM     19  C   LIG A   1      -5.775   3.946 123.190  0.00  0.00    +0.068 A 
ATOM     20  C   LIG A   1      -4.812   4.872 122.776  0.00  0.00    +0.064 A 
ATOM     21  C   LIG A   1      -4.737   5.213 121.424  0.00  0.00    +0.159 A 
BRANCH   7  22
ATOM     22  O   LIG A   1      -5.513   4.981 119.183  0.00  0.00    -0.503 OA
ATOM     23  H   LIG A   1      -4.631   5.339 118.997  0.00  0.00    +0.292 HD
ENDBRANCH   7  22
BRANCH  15  24
ATOM     24  O   LIG A   1      -6.455   2.726 127.332  0.00  0.00    -0.505 OA
ATOM     25  H   LIG A   1      -5.526   2.435 127.186  0.00  0.00    +0.292 HD
ENDBRANCH  15  24
BRANCH  13  26
ATOM     26  O   LIG A   1     -10.090   0.007 125.822  0.00  0.00    -0.506 OA
ATOM     27  H   LIG A   1     -10.914   0.512 125.933  0.00  0.00    +0.292 HD
ENDBRANCH  13  26
BRANCH  21  28
ATOM     28  O   LIG A   1      -3.816   6.124 120.988  0.00  0.00    -0.503 OA
ATOM     29  H   LIG A   1      -3.871   6.211 120.023  0.00  0.00    +0.292 HD
ENDBRANCH  21  28
ENDBRANCH   1  14
BRANCH   5  30
ATOM     30  O   LIG A   1      -5.812  -0.561 130.472  0.00  0.00    -0.385 OA
ATOM     31  H   LIG A   1      -5.869  -0.827 131.413  0.00  0.00    +0.210 HD
ENDBRANCH   5  30
BRANCH   4  32
ATOM     32  O   LIG A   1      -7.425   0.938 132.223  0.00  0.00    -0.387 OA
ATOM     33  H   LIG A   1      -6.504   0.787 132.496  0.00  0.00    +0.210 HD
ENDBRANCH   4  32
BRANCH   6  34
ATOM     34  O   LIG A   1      -7.532  -1.462 128.071  0.00  0.00    -0.452 OA
BRANCH  34  35
ATOM     35  C   LIG A   1      -6.506  -2.043 127.400  0.00  0.00    +0.340 C 
ATOM     36  O   LIG A   1      -5.460  -2.467 127.875  0.00  0.00    -0.245 OA
BRANCH  35  37
ATOM     37  C   LIG A   1      -6.825  -2.084 125.961  0.00  0.00    +0.059 A 
ATOM     38  C   LIG A   1      -6.048  -1.366 125.045  0.00  0.00    +0.018 A 
ATOM     39  C   LIG A   1      -6.383  -1.372 123.692  0.00  0.00    +0.046 A 
ATOM     40  C   LIG A   1      -7.489  -2.097 123.265  0.00  0.00    +0.117 A 
ATOM     41  C   LIG A   1      -8.270  -2.817 124.169  0.00  0.00    +0.046 A 
ATOM     42  C   LIG A   1      -7.941  -2.811 125.524  0.00  0.00    +0.018 A 
BRANCH  40  43
ATOM     43  O   LIG A   1      -7.847  -2.124 121.952  0.00  0.00    -0.507 OA
ATOM     44  H   LIG A   1      -7.375  -2.851 121.516  0.00  0.00    +0.292 HD
ENDBRANCH  40  43
ENDBRANCH  35  37
ENDBRANCH  34  35
ENDBRANCH   6  34
BRANCH   3  45
ATOM     45  C   LIG A   1      -9.255   2.939 131.015  0.00  0.00    +0.190 C 
BRANCH  45  46
ATOM     46  O   LIG A   1     -10.113   2.607 132.105  0.00  0.00    -0.392 OA
ATOM     47  H   LIG A   1      -9.523   2.263 132.804  0.00  0.00    +0.209 HD
ENDBRANCH  45  46
ENDBRANCH   3  45
TORSDOF 13
ENDMDL
MODEL 2
REMARK VINA RESULT:      -8.1      1.007      2.307
REMARK  Name = NuBBE_372
REMARK  13 active torsions:
REMARK  status: ('A' for Active; 'I' for Inactive)
REMARK    1  A    between atoms: O_1  and  C_2
REMARK    2  A    between atoms: C_8  and  O_37
REMARK    3  A    between atoms: C_9  and  C_10
REMARK    4  A    between atoms: C_13  and  C_33
REMARK    5  A    between atoms: C_15  and  O_32
REMARK    6  A    between atoms: C_17  and  O_31
REMARK    7  A    between atoms: C_19  and  O_21
REMARK    8  A    between atoms: O_21  and  C_22
REMARK    9  A    between atoms: C_22  and  C_23
REMARK   10  A    between atoms: C_26  and  O_29
REMARK   11  A    between atoms: C_33  and  O_34
REMARK   12  A    between atoms: C_35  and  O_36
REMARK   13  A    between atoms: C_43  and  O_44
REMARK                            x       y       z     vdW  Elec       q    Type
REMARK                         _______ _______ _______ _____ _____    ______ ____
ROOT
ATOM      1  C   LIG A   1      -8.147   1.253 128.444  0.00  0.00    +0.199 C 
ATOM      2  O   LIG A   1      -8.158   2.301 129.434  0.00  0.00    -0.360 OA
ATOM      3  C   LIG A   1      -8.742   1.879 130.677  0.00  0.00    +0.175 C 
ATOM      4  C   LIG A   1      -7.802   0.870 131.336  0.00  0.00    +0.177 C 
ATOM      5  C   LIG A   1      -7.786  -0.387 130.472  0.00  0.00    +0.189 C 
ATOM      6  C   LIG A   1      -7.548  -0.093 128.971  0.00  0.00    +0.241 C 
ENDROOT
BRANCH   1  14
ATOM      7  C   LIG A   1      -5.881   4.516 120.427  0.00  0.00    +0.162 A 
ATOM      8  C   LIG A   1      -5.333   4.376 121.704  0.00  0.00    +0.096 A 
ATOM      9  C   LIG A   1      -6.095   3.800 122.723  0.00  0.00    +0.143 A 
ATOM     10  O   LIG A   1      -5.488   3.682 123.949  0.00  0.00    -0.454 OA
ATOM     11  C   LIG A   1      -6.175   3.062 124.966  0.00  0.00    +0.146 A 
ATOM     12  C   LIG A   1      -5.488   2.914 126.169  0.00  0.00    +0.093 A 
ATOM     13  C   LIG A   1      -6.110   2.301 127.267  0.00  0.00    +0.130 A 
ATOM     14  C   LIG A   1      -7.433   1.826 127.207  0.00  0.00    +0.068 A 
ATOM     15  C   LIG A   1      -8.103   1.977 125.972  0.00  0.00    +0.141 A 
ATOM     16  C   LIG A   1      -7.479   2.591 124.861  0.00  0.00    +0.106 A 
ATOM     17  C   LIG A   1      -8.161   2.764 123.565  0.00  0.00    +0.204 A 
ATOM     18  O   LIG A   1      -9.323   2.399 123.418  0.00  0.00    -0.286 OA
ATOM     19  C   LIG A   1      -7.396   3.377 122.462  0.00  0.00    +0.068 A 
ATOM     20  C   LIG A   1      -7.954   3.520 121.188  0.00  0.00    +0.064 A 
ATOM     21  C   LIG A   1      -7.186   4.088 120.171  0.00  0.00    +0.159 A 
BRANCH   7  22
ATOM     22  O   LIG A   1      -5.148   5.066 119.414  0.00  0.00    -0.503 OA
ATOM     23  H   LIG A   1      -4.229   4.765 119.470  0.00  0.00    +0.292 HD
ENDBRANCH   7  22
BRANCH  15  24
ATOM     24  O   LIG A   1      -9.393   1.512 125.875  0.00  0.00    -0.505 OA
ATOM     25  H   LIG A   1      -9.983   2.113 126.386  0.00  0.00    +0.292 HD
ENDBRANCH  15  24
BRANCH  13  26
ATOM     26  O   LIG A   1      -5.404   2.173 128.433  0.00  0.00    -0.506 OA
ATOM     27  H   LIG A   1      -5.682   1.361 128.890  0.00  0.00    +0.292 HD
ENDBRANCH  13  26
BRANCH  21  28
ATOM     28  O   LIG A   1      -7.696   4.230 118.911  0.00  0.00    -0.503 OA
ATOM     29  H   LIG A   1      -7.369   3.516 118.341  0.00  0.00    +0.292 HD
ENDBRANCH  21  28
ENDBRANCH   1  14
BRANCH   5  30
ATOM     30  O   LIG A   1      -6.781  -1.285 130.985  0.00  0.00    -0.385 OA
ATOM     31  H   LIG A   1      -5.931  -0.888 130.704  0.00  0.00    +0.210 HD
ENDBRANCH   5  30
BRANCH   4  32
ATOM     32  O   LIG A   1      -8.213   0.471 132.651  0.00  0.00    -0.387 OA
ATOM     33  H   LIG A   1      -8.272   1.263 133.212  0.00  0.00    +0.210 HD
ENDBRANCH   4  32
BRANCH   6  34
ATOM     34  O   LIG A   1      -8.027  -1.206 128.161  0.00  0.00    -0.452 OA
BRANCH  34  35
ATOM     35  C   LIG A   1      -7.108  -2.011 127.572  0.00  0.00    +0.340 C 
ATOM     36  O   LIG A   1      -6.194  -2.612 128.121  0.00  0.00    -0.245 OA
BRANCH  35  37
ATOM     37  C   LIG A   1      -7.360  -2.056 126.120  0.00  0.00    +0.059 A 
ATOM     38  C   LIG A   1      -8.306  -2.944 125.594  0.00  0.00    +0.018 A 
ATOM     39  C   LIG A   1      -8.507  -3.013 124.218  0.00  0.00    +0.046 A 
ATOM     40  C   LIG A   1      -7.763  -2.194 123.376  0.00  0.00    +0.117 A 
ATOM     41  C   LIG A   1      -6.818  -1.306 123.888  0.00  0.00    +0.046 A 
ATOM     42  C   LIG A   1      -6.611  -1.235 125.266  0.00  0.00    +0.018 A 
BRANCH  40  43
ATOM     43  O   LIG A   1      -7.930  -2.237 122.026  0.00  0.00    -0.507 OA
ATOM     44  H   LIG A   1      -8.808  -2.601 121.833  0.00  0.00    +0.292 HD
ENDBRANCH  40  43
ENDBRANCH  35  37
ENDBRANCH  34  35
ENDBRANCH   6  34
BRANCH   3  45
ATOM     45  C   LIG A   1      -8.928   3.129 131.538  0.00  0.00    +0.190 C 
BRANCH  45  46
ATOM     46  O   LIG A   1      -9.891   2.884 132.560  0.00  0.00    -0.392 OA
ATOM     47  H   LIG A   1     -10.759   3.062 132.148  0.00  0.00    +0.209 HD
ENDBRANCH  45  46
ENDBRANCH   3  45
TORSDOF 13
ENDMDL
MODEL 3
REMARK VINA RESULT:      -8.0      2.989      7.837
REMARK  Name = NuBBE_372
REMARK  13 active torsions:
REMARK  status: ('A' for Active; 'I' for Inactive)
REMARK    1  A    between atoms: O_1  and  C_2
REMARK    2  A    between atoms: C_8  and  O_37
REMARK    3  A    between atoms: C_9  and  C_10
REMARK    4  A    between atoms: C_13  and  C_33
REMARK    5  A    between atoms: C_15  and  O_32
REMARK    6  A    between atoms: C_17  and  O_31
REMARK    7  A    between atoms: C_19  and  O_21
REMARK    8  A    between atoms: O_21  and  C_22
REMARK    9  A    between atoms: C_22  and  C_23
REMARK   10  A    between atoms: C_26  and  O_29
REMARK   11  A    between atoms: C_33  and  O_34
REMARK   12  A    between atoms: C_35  and  O_36
REMARK   13  A    between atoms: C_43  and  O_44
REMARK                            x       y       z     vdW  Elec       q    Type
REMARK                         _______ _______ _______ _____ _____    ______ ____
ROOT
ATOM      1  C   LIG A   1      -7.135  -0.513 126.615  0.00  0.00    +0.199 C 
ATOM      2  O   LIG A   1      -7.444   0.421 125.562  0.00  0.00    -0.360 OA
ATOM      3  C   LIG A   1      -7.709  -0.229 124.308  0.00  0.00    +0.175 C 
ATOM      4  C   LIG A   1      -9.034  -0.982 124.424  0.00  0.00    +0.177 C 
ATOM      5  C   LIG A   1      -8.837  -2.124 125.416  0.00  0.00    +0.189 C 
ATOM      6  C   LIG A   1      -8.176  -1.673 126.741  0.00  0.00    +0.241 C 
ENDROOT
BRANCH   1  14
ATOM      7  C   LIG A   1      -7.966   4.952 133.650  0.00  0.00    +0.162 A 
ATOM      8  C   LIG A   1      -7.112   3.948 133.188  0.00  0.00    +0.096 A 
ATOM      9  C   LIG A   1      -7.394   3.305 131.981  0.00  0.00    +0.143 A 
ATOM     10  O   LIG A   1      -6.505   2.338 131.580  0.00  0.00    -0.454 OA
ATOM     11  C   LIG A   1      -6.704   1.723 130.366  0.00  0.00    +0.146 A 
ATOM     12  C   LIG A   1      -5.739   0.795 129.983  0.00  0.00    +0.093 A 
ATOM     13  C   LIG A   1      -5.861   0.110 128.765  0.00  0.00    +0.130 A 
ATOM     14  C   LIG A   1      -6.949   0.318 127.897  0.00  0.00    +0.068 A 
ATOM     15  C   LIG A   1      -7.908   1.274 128.303  0.00  0.00    +0.141 A 
ATOM     16  C   LIG A   1      -7.787   1.968 129.529  0.00  0.00    +0.106 A 
ATOM     17  C   LIG A   1      -8.779   2.965 129.976  0.00  0.00    +0.204 A 
ATOM     18  O   LIG A   1      -9.772   3.203 129.297  0.00  0.00    -0.286 OA
ATOM     19  C   LIG A   1      -8.526   3.662 131.251  0.00  0.00    +0.068 A 
ATOM     20  C   LIG A   1      -9.388   4.662 131.711  0.00  0.00    +0.064 A 
ATOM     21  C   LIG A   1      -9.098   5.308 132.914  0.00  0.00    +0.159 A 
BRANCH   7  22
ATOM     22  O   LIG A   1      -7.701   5.601 134.823  0.00  0.00    -0.503 OA
ATOM     23  H   LIG A   1      -6.866   6.086 134.751  0.00  0.00    +0.292 HD
ENDBRANCH   7  22
BRANCH  15  24
ATOM     24  O   LIG A   1      -8.977   1.510 127.473  0.00  0.00    -0.505 OA
ATOM     25  H   LIG A   1      -9.516   2.241 127.853  0.00  0.00    +0.292 HD
ENDBRANCH  15  24
BRANCH  13  26
ATOM     26  O   LIG A   1      -4.893  -0.794 128.421  0.00  0.00    -0.506 OA
ATOM     27  H   LIG A   1      -4.282  -0.384 127.785  0.00  0.00    +0.292 HD
ENDBRANCH  13  26
BRANCH  21  28
ATOM     28  O   LIG A   1      -9.913   6.298 133.385  0.00  0.00    -0.503 OA
ATOM     29  H   LIG A   1     -10.404   6.697 132.649  0.00  0.00    +0.292 HD
ENDBRANCH  21  28
ENDBRANCH   1  14
BRANCH   5  30
ATOM     30  O   LIG A   1     -10.117  -2.742 125.665  0.00  0.00    -0.385 OA
ATOM     31  H   LIG A   1     -10.506  -2.867 124.775  0.00  0.00    +0.210 HD
ENDBRANCH   5  30
BRANCH   4  32
ATOM     32  O   LIG A   1      -9.475  -1.568 123.191  0.00  0.00    -0.387 OA
ATOM     33  H   LIG A   1     -10.169  -2.220 123.386  0.00  0.00    +0.210 HD
ENDBRANCH   4  32
BRANCH   6  34
ATOM     34  O   LIG A   1      -7.572  -2.818 127.412  0.00  0.00    -0.452 OA
BRANCH  34  35
ATOM     35  C   LIG A   1      -8.251  -3.389 128.438  0.00  0.00    +0.340 C 
ATOM     36  O   LIG A   1      -9.303  -4.011 128.371  0.00  0.00    -0.245 OA
BRANCH  35  37
ATOM     37  C   LIG A   1      -7.530  -3.138 129.700  0.00  0.00    +0.059 A 
ATOM     38  C   LIG A   1      -6.411  -3.909 130.039  0.00  0.00    +0.018 A 
ATOM     39  C   LIG A   1      -5.761  -3.697 131.252  0.00  0.00    +0.046 A 
ATOM     40  C   LIG A   1      -6.231  -2.715 132.117  0.00  0.00    +0.117 A 
ATOM     41  C   LIG A   1      -7.343  -1.941 131.790  0.00  0.00    +0.046 A 
ATOM     42  C   LIG A   1      -7.999  -2.152 130.577  0.00  0.00    +0.018 A 
BRANCH  40  43
ATOM     43  O   LIG A   1      -5.622  -2.482 133.312  0.00  0.00    -0.507 OA
ATOM     44  H   LIG A   1      -6.035  -3.045 133.986  0.00  0.00    +0.292 HD
ENDBRANCH  40  43
ENDBRANCH  35  37
ENDBRANCH  34  35
ENDBRANCH   6  34
BRANCH   3  45
ATOM     45  C   LIG A   1      -7.765   0.859 123.236  0.00  0.00    +0.190 C 
BRANCH  45  46
ATOM     46  O   LIG A   1      -9.101   1.332 123.083  0.00  0.00    -0.392 OA
ATOM     47  H   LIG A   1      -9.411   1.534 123.988  0.00  0.00    +0.209 HD
ENDBRANCH  45  46
ENDBRANCH   3  45
TORSDOF 13
ENDMDL
MODEL 4
REMARK VINA RESULT:      -7.8      2.517      8.323
REMARK  Name = NuBBE_372
REMARK  13 active torsions:
REMARK  status: ('A' for Active; 'I' for Inactive)
REMARK    1  A    between atoms: O_1  and  C_2
REMARK    2  A    between atoms: C_8  and  O_37
REMARK    3  A    between atoms: C_9  and  C_10
REMARK    4  A    between atoms: C_13  and  C_33
REMARK    5  A    between atoms: C_15  and  O_32
REMARK    6  A    between atoms: C_17  and  O_31
REMARK    7  A    between atoms: C_19  and  O_21
REMARK    8  A    between atoms: O_21  and  C_22
REMARK    9  A    between atoms: C_22  and  C_23
REMARK   10  A    between atoms: C_26  and  O_29
REMARK   11  A    between atoms: C_33  and  O_34
REMARK   12  A    between atoms: C_35  and  O_36
REMARK   13  A    between atoms: C_43  and  O_44
REMARK                            x       y       z     vdW  Elec       q    Type
REMARK                         _______ _______ _______ _____ _____    ______ ____
ROOT
ATOM      1  C   LIG A   1      -7.761   0.691 126.157  0.00  0.00    +0.199 C 
ATOM      2  O   LIG A   1      -7.161   2.000 126.089  0.00  0.00    -0.360 OA
ATOM      3  C   LIG A   1      -7.121   2.521 124.750  0.00  0.00    +0.175 C 
ATOM      4  C   LIG A   1      -8.551   2.835 124.312  0.00  0.00    +0.177 C 
ATOM      5  C   LIG A   1      -9.304   1.515 124.189  0.00  0.00    +0.189 C 
ATOM      6  C   LIG A   1      -9.143   0.604 125.430  0.00  0.00    +0.241 C 
ENDROOT
BRANCH   1  14
ATOM      7  C   LIG A   1      -6.806  -3.139 134.185  0.00  0.00    +0.162 A 
ATOM      8  C   LIG A   1      -7.263  -1.940 133.636  0.00  0.00    +0.096 A 
ATOM      9  C   LIG A   1      -7.197  -1.745 132.254  0.00  0.00    +0.143 A 
ATOM     10  O   LIG A   1      -7.677  -0.549 131.781  0.00  0.00    -0.454 OA
ATOM     11  C   LIG A   1      -7.694  -0.337 130.422  0.00  0.00    +0.146 A 
ATOM     12  C   LIG A   1      -8.247   0.867 129.995  0.00  0.00    +0.093 A 
ATOM     13  C   LIG A   1      -8.301   1.175 128.627  0.00  0.00    +0.130 A 
ATOM     14  C   LIG A   1      -7.798   0.302 127.645  0.00  0.00    +0.068 A 
ATOM     15  C   LIG A   1      -7.253  -0.918 128.104  0.00  0.00    +0.141 A 
ATOM     16  C   LIG A   1      -7.200  -1.234 129.481  0.00  0.00    +0.106 A 
ATOM     17  C   LIG A   1      -6.630  -2.499 129.982  0.00  0.00    +0.204 A 
ATOM     18  O   LIG A   1      -6.151  -3.318 129.204  0.00  0.00    -0.286 OA
ATOM     19  C   LIG A   1      -6.671  -2.743 131.436  0.00  0.00    +0.068 A 
ATOM     20  C   LIG A   1      -6.205  -3.944 131.981  0.00  0.00    +0.064 A 
ATOM     21  C   LIG A   1      -6.281  -4.137 133.361  0.00  0.00    +0.159 A 
BRANCH   7  22
ATOM     22  O   LIG A   1      -6.872  -3.354 135.533  0.00  0.00    -0.503 OA
ATOM     23  H   LIG A   1      -6.608  -2.552 136.009  0.00  0.00    +0.292 HD
ENDBRANCH   7  22
BRANCH  15  24
ATOM     24  O   LIG A   1      -6.764  -1.799 127.169  0.00  0.00    -0.505 OA
ATOM     25  H   LIG A   1      -7.254  -2.649 127.250  0.00  0.00    +0.292 HD
ENDBRANCH  15  24
BRANCH  13  26
ATOM     26  O   LIG A   1      -8.852   2.368 128.246  0.00  0.00    -0.506 OA
ATOM     27  H   LIG A   1      -8.257   3.094 128.501  0.00  0.00    +0.292 HD
ENDBRANCH  13  26
BRANCH  21  28
ATOM     28  O   LIG A   1      -5.846  -5.304 133.924  0.00  0.00    -0.503 OA
ATOM     29  H   LIG A   1      -4.881  -5.281 134.025  0.00  0.00    +0.292 HD
ENDBRANCH  21  28
ENDBRANCH   1  14
BRANCH   5  30
ATOM     30  O   LIG A   1     -10.696   1.800 123.939  0.00  0.00    -0.385 OA
ATOM     31  H   LIG A   1     -10.894   1.336 123.100  0.00  0.00    +0.210 HD
ENDBRANCH   5  30
BRANCH   4  32
ATOM     32  O   LIG A   1      -8.633   3.486 123.035  0.00  0.00    -0.387 OA
ATOM     33  H   LIG A   1      -7.844   3.254 122.516  0.00  0.00    +0.210 HD
ENDBRANCH   4  32
BRANCH   6  34
ATOM     34  O   LIG A   1      -9.437  -0.780 125.076  0.00  0.00    -0.452 OA
BRANCH  34  35
ATOM     35  C   LIG A   1      -9.154  -1.191 123.814  0.00  0.00    +0.340 C 
ATOM     36  O   LIG A   1      -9.782  -0.934 122.796  0.00  0.00    -0.245 OA
BRANCH  35  37
ATOM     37  C   LIG A   1      -7.945  -2.035 123.837  0.00  0.00    +0.059 A 
ATOM     38  C   LIG A   1      -7.998  -3.331 124.365  0.00  0.00    +0.018 A 
ATOM     39  C   LIG A   1      -6.843  -4.107 124.425  0.00  0.00    +0.046 A 
ATOM     40  C   LIG A   1      -5.644  -3.584 123.955  0.00  0.00    +0.117 A 
ATOM     41  C   LIG A   1      -5.578  -2.296 123.426  0.00  0.00    +0.046 A 
ATOM     42  C   LIG A   1      -6.732  -1.514 123.368  0.00  0.00    +0.018 A 
BRANCH  40  43
ATOM     43  O   LIG A   1      -4.494  -4.312 124.000  0.00  0.00    -0.507 OA
ATOM     44  H   LIG A   1      -3.765  -3.762 123.675  0.00  0.00    +0.292 HD
ENDBRANCH  40  43
ENDBRANCH  35  37
ENDBRANCH  34  35
ENDBRANCH   6  34
BRANCH   3  45
ATOM     45  C   LIG A   1      -6.245   3.773 124.776  0.00  0.00    +0.190 C 
BRANCH  45  46
ATOM     46  O   LIG A   1      -7.060   4.944 124.785  0.00  0.00    -0.392 OA
ATOM     47  H   LIG A   1      -7.584   4.890 125.608  0.00  0.00    +0.209 HD
ENDBRANCH  45  46
ENDBRANCH   3  45
TORSDOF 13
ENDMDL
MODEL 5
REMARK VINA RESULT:      -7.8      3.623      7.899
REMARK  Name = NuBBE_372
REMARK  13 active torsions:
REMARK  status: ('A' for Active; 'I' for Inactive)
REMARK    1  A    between atoms: O_1  and  C_2
REMARK    2  A    between atoms: C_8  and  O_37
REMARK    3  A    between atoms: C_9  and  C_10
REMARK    4  A    between atoms: C_13  and  C_33
REMARK    5  A    between atoms: C_15  and  O_32
REMARK    6  A    between atoms: C_17  and  O_31
REMARK    7  A    between atoms: C_19  and  O_21
REMARK    8  A    between atoms: O_21  and  C_22
REMARK    9  A    between atoms: C_22  and  C_23
REMARK   10  A    between atoms: C_26  and  O_29
REMARK   11  A    between atoms: C_33  and  O_34
REMARK   12  A    between atoms: C_35  and  O_36
REMARK   13  A    between atoms: C_43  and  O_44
REMARK                            x       y       z     vdW  Elec       q    Type
REMARK                         _______ _______ _______ _____ _____    ______ ____
ROOT
ATOM      1  C   LIG A   1      -7.868   4.003 130.977  0.00  0.00    +0.199 C 
ATOM      2  O   LIG A   1      -7.035   3.724 132.119  0.00  0.00    -0.360 OA
ATOM      3  C   LIG A   1      -6.905   4.855 132.996  0.00  0.00    +0.175 C 
ATOM      4  C   LIG A   1      -8.254   5.098 133.674  0.00  0.00    +0.177 C 
ATOM      5  C   LIG A   1      -9.241   5.552 132.604  0.00  0.00    +0.189 C 
ATOM      6  C   LIG A   1      -9.247   4.639 131.354  0.00  0.00    +0.241 C 
ENDROOT
BRANCH   1  14
ATOM      7  C   LIG A   1      -8.528  -2.357 124.719  0.00  0.00    +0.162 A 
ATOM      8  C   LIG A   1      -8.237  -2.241 126.079  0.00  0.00    +0.096 A 
ATOM      9  C   LIG A   1      -8.216  -0.978 126.675  0.00  0.00    +0.143 A 
ATOM     10  O   LIG A   1      -7.937  -0.939 128.019  0.00  0.00    -0.454 OA
ATOM     11  C   LIG A   1      -7.970   0.275 128.663  0.00  0.00    +0.146 A 
ATOM     12  C   LIG A   1      -7.740   0.247 130.037  0.00  0.00    +0.093 A 
ATOM     13  C   LIG A   1      -7.746   1.438 130.779  0.00  0.00    +0.130 A 
ATOM     14  C   LIG A   1      -7.970   2.691 130.178  0.00  0.00    +0.068 A 
ATOM     15  C   LIG A   1      -8.214   2.690 128.786  0.00  0.00    +0.141 A 
ATOM     16  C   LIG A   1      -8.211   1.492 128.035  0.00  0.00    +0.106 A 
ATOM     17  C   LIG A   1      -8.457   1.468 126.581  0.00  0.00    +0.204 A 
ATOM     18  O   LIG A   1      -8.645   2.512 125.964  0.00  0.00    -0.286 OA
ATOM     19  C   LIG A   1      -8.478   0.156 125.909  0.00  0.00    +0.068 A 
ATOM     20  C   LIG A   1      -8.764   0.048 124.544  0.00  0.00    +0.064 A 
ATOM     21  C   LIG A   1      -8.791  -1.218 123.955  0.00  0.00    +0.159 A 
BRANCH   7  22
ATOM     22  O   LIG A   1      -8.564  -3.584 124.120  0.00  0.00    -0.503 OA
ATOM     23  H   LIG A   1      -9.048  -3.529 123.282  0.00  0.00    +0.292 HD
ENDBRANCH   7  22
BRANCH  15  24
ATOM     24  O   LIG A   1      -8.448   3.896 128.171  0.00  0.00    -0.505 OA
ATOM     25  H   LIG A   1      -7.589   4.360 128.048  0.00  0.00    +0.292 HD
ENDBRANCH  15  24
BRANCH  13  26
ATOM     26  O   LIG A   1      -7.516   1.371 132.126  0.00  0.00    -0.506 OA
ATOM     27  H   LIG A   1      -6.557   1.372 132.289  0.00  0.00    +0.292 HD
ENDBRANCH  13  26
BRANCH  21  28
ATOM     28  O   LIG A   1      -9.080  -1.359 122.627  0.00  0.00    -0.503 OA
ATOM     29  H   LIG A   1      -9.719  -0.682 122.355  0.00  0.00    +0.292 HD
ENDBRANCH  21  28
ENDBRANCH   1  14
BRANCH   5  30
ATOM     30  O   LIG A   1     -10.556   5.625 133.192  0.00  0.00    -0.385 OA
ATOM     31  H   LIG A   1     -11.080   6.152 132.555  0.00  0.00    +0.210 HD
ENDBRANCH   5  30
BRANCH   4  32
ATOM     32  O   LIG A   1      -8.219   6.124 134.677  0.00  0.00    -0.387 OA
ATOM     33  H   LIG A   1      -9.094   6.179 135.097  0.00  0.00    +0.210 HD
ENDBRANCH   4  32
BRANCH   6  34
ATOM     34  O   LIG A   1      -9.795   5.360 130.212  0.00  0.00    -0.452 OA
BRANCH  34  35
ATOM     35  C   LIG A   1     -11.123   5.244 129.960  0.00  0.00    +0.340 C 
ATOM     36  O   LIG A   1     -11.788   4.216 129.965  0.00  0.00    -0.245 OA
BRANCH  35  37
ATOM     37  C   LIG A   1     -11.679   6.575 129.652  0.00  0.00    +0.059 A 
ATOM     38  C   LIG A   1     -11.465   7.156 128.396  0.00  0.00    +0.018 A 
ATOM     39  C   LIG A   1     -11.954   8.432 128.127  0.00  0.00    +0.046 A 
ATOM     40  C   LIG A   1     -12.656   9.117 129.113  0.00  0.00    +0.117 A 
ATOM     41  C   LIG A   1     -12.877   8.548 130.366  0.00  0.00    +0.046 A 
ATOM     42  C   LIG A   1     -12.386   7.272 130.641  0.00  0.00    +0.018 A 
BRANCH  40  43
ATOM     43  O   LIG A   1     -13.147  10.367 128.886  0.00  0.00    -0.507 OA
ATOM     44  H   LIG A   1     -14.018  10.439 129.305  0.00  0.00    +0.292 HD
ENDBRANCH  40  43
ENDBRANCH  35  37
ENDBRANCH  34  35
ENDBRANCH   6  34
BRANCH   3  45
ATOM     45  C   LIG A   1      -5.811   4.521 134.009  0.00  0.00    +0.190 C 
BRANCH  45  46
ATOM     46  O   LIG A   1      -5.325   5.714 134.621  0.00  0.00    -0.392 OA
ATOM     47  H   LIG A   1      -4.811   6.172 133.926  0.00  0.00    +0.209 HD
ENDBRANCH  45  46
ENDBRANCH   3  45
TORSDOF 13
ENDMDL
MODEL 6
REMARK VINA RESULT:      -7.6      2.627      7.919
REMARK  Name = NuBBE_372
REMARK  13 active torsions:
REMARK  status: ('A' for Active; 'I' for Inactive)
REMARK    1  A    between atoms: O_1  and  C_2
REMARK    2  A    between atoms: C_8  and  O_37
REMARK    3  A    between atoms: C_9  and  C_10
REMARK    4  A    between atoms: C_13  and  C_33
REMARK    5  A    between atoms: C_15  and  O_32
REMARK    6  A    between atoms: C_17  and  O_31
REMARK    7  A    between atoms: C_19  and  O_21
REMARK    8  A    between atoms: O_21  and  C_22
REMARK    9  A    between atoms: C_22  and  C_23
REMARK   10  A    between atoms: C_26  and  O_29
REMARK   11  A    between atoms: C_33  and  O_34
REMARK   12  A    between atoms: C_35  and  O_36
REMARK   13  A    between atoms: C_43  and  O_44
REMARK                            x       y       z     vdW  Elec       q    Type
REMARK                         _______ _______ _______ _____ _____    ______ ____
ROOT
ATOM      1  C   LIG A   1      -6.085   1.712 126.038  0.00  0.00    +0.199 C 
ATOM      2  O   LIG A   1      -5.389   2.823 126.637  0.00  0.00    -0.360 OA
ATOM      3  C   LIG A   1      -5.409   3.998 125.810  0.00  0.00    +0.175 C 
ATOM      4  C   LIG A   1      -6.838   4.538 125.772  0.00  0.00    +0.177 C 
ATOM      5  C   LIG A   1      -7.701   3.527 125.025  0.00  0.00    +0.189 C 
ATOM      6  C   LIG A   1      -7.521   2.077 125.536  0.00  0.00    +0.241 C 
ENDROOT
BRANCH   1  14
ATOM      7  C   LIG A   1      -6.807  -3.612 133.192  0.00  0.00    +0.162 A 
ATOM      8  C   LIG A   1      -6.470  -3.701 131.840  0.00  0.00    +0.096 A 
ATOM      9  C   LIG A   1      -6.524  -2.557 131.039  0.00  0.00    +0.143 A 
ATOM     10  O   LIG A   1      -6.166  -2.714 129.723  0.00  0.00    -0.454 OA
ATOM     11  C   LIG A   1      -6.140  -1.604 128.911  0.00  0.00    +0.146 A 
ATOM     12  C   LIG A   1      -5.710  -1.811 127.603  0.00  0.00    +0.093 A 
ATOM     13  C   LIG A   1      -5.658  -0.740 126.698  0.00  0.00    +0.130 A 
ATOM     14  C   LIG A   1      -6.040   0.564 127.062  0.00  0.00    +0.068 A 
ATOM     15  C   LIG A   1      -6.460   0.750 128.399  0.00  0.00    +0.141 A 
ATOM     16  C   LIG A   1      -6.511  -0.327 129.315  0.00  0.00    +0.106 A 
ATOM     17  C   LIG A   1      -6.952  -0.157 130.712  0.00  0.00    +0.204 A 
ATOM     18  O   LIG A   1      -7.322   0.939 131.120  0.00  0.00    -0.286 OA
ATOM     19  C   LIG A   1      -6.920  -1.340 131.591  0.00  0.00    +0.068 A 
ATOM     20  C   LIG A   1      -7.266  -1.246 132.943  0.00  0.00    +0.064 A 
ATOM     21  C   LIG A   1      -7.202  -2.390 133.741  0.00  0.00    +0.159 A 
BRANCH   7  22
ATOM     22  O   LIG A   1      -6.750  -4.716 133.994  0.00  0.00    -0.503 OA
ATOM     23  H   LIG A   1      -6.069  -5.325 133.671  0.00  0.00    +0.292 HD
ENDBRANCH   7  22
BRANCH  15  24
ATOM     24  O   LIG A   1      -6.829   2.014 128.790  0.00  0.00    -0.505 OA
ATOM     25  H   LIG A   1      -6.698   2.630 128.033  0.00  0.00    +0.292 HD
ENDBRANCH  15  24
BRANCH  13  26
ATOM     26  O   LIG A   1      -5.230  -0.982 125.421  0.00  0.00    -0.506 OA
ATOM     27  H   LIG A   1      -5.974  -1.316 124.890  0.00  0.00    +0.292 HD
ENDBRANCH  13  26
BRANCH  21  28
ATOM     28  O   LIG A   1      -7.521  -2.329 135.069  0.00  0.00    -0.503 OA
ATOM     29  H   LIG A   1      -8.481  -2.415 135.180  0.00  0.00    +0.292 HD
ENDBRANCH  21  28
ENDBRANCH   1  14
BRANCH   5  30
ATOM     30  O   LIG A   1      -9.080   3.938 125.124  0.00  0.00    -0.385 OA
ATOM     31  H   LIG A   1      -9.567   3.114 125.333  0.00  0.00    +0.210 HD
ENDBRANCH   5  30
BRANCH   4  32
ATOM     32  O   LIG A   1      -6.964   5.789 125.080  0.00  0.00    -0.387 OA
ATOM     33  H   LIG A   1      -7.331   5.621 124.196  0.00  0.00    +0.210 HD
ENDBRANCH   4  32
BRANCH   6  34
ATOM     34  O   LIG A   1      -7.950   1.130 124.514  0.00  0.00    -0.452 OA
BRANCH  34  35
ATOM     35  C   LIG A   1      -9.105   0.448 124.718  0.00  0.00    +0.340 C 
ATOM     36  O   LIG A   1     -10.225   0.920 124.861  0.00  0.00    -0.245 OA
BRANCH  35  37
ATOM     37  C   LIG A   1      -8.816  -0.997 124.761  0.00  0.00    +0.059 A 
ATOM     38  C   LIG A   1      -9.106  -1.741 125.911  0.00  0.00    +0.018 A 
ATOM     39  C   LIG A   1      -8.789  -3.097 125.962  0.00  0.00    +0.046 A 
ATOM     40  C   LIG A   1      -8.188  -3.700 124.863  0.00  0.00    +0.117 A 
ATOM     41  C   LIG A   1      -7.896  -2.970 123.712  0.00  0.00    +0.046 A 
ATOM     42  C   LIG A   1      -8.208  -1.611 123.658  0.00  0.00    +0.018 A 
BRANCH  40  43
ATOM     43  O   LIG A   1      -7.862  -5.022 124.877  0.00  0.00    -0.507 OA
ATOM     44  H   LIG A   1      -7.986  -5.362 125.777  0.00  0.00    +0.292 HD
ENDBRANCH  40  43
ENDBRANCH  35  37
ENDBRANCH  34  35
ENDBRANCH   6  34
BRANCH   3  45
ATOM     45  C   LIG A   1      -4.436   5.003 126.425  0.00  0.00    +0.190 C 
BRANCH  45  46
ATOM     46  O   LIG A   1      -5.032   5.637 127.555  0.00  0.00    -0.392 OA
ATOM     47  H   LIG A   1      -4.749   5.109 128.328  0.00  0.00    +0.209 HD
ENDBRANCH  45  46
ENDBRANCH   3  45
TORSDOF 13
ENDMDL
MODEL 7
REMARK VINA RESULT:      -7.6      2.094      7.475
REMARK  Name = NuBBE_372
REMARK  13 active torsions:
REMARK  status: ('A' for Active; 'I' for Inactive)
REMARK    1  A    between atoms: O_1  and  C_2
REMARK    2  A    between atoms: C_8  and  O_37
REMARK    3  A    between atoms: C_9  and  C_10
REMARK    4  A    between atoms: C_13  and  C_33
REMARK    5  A    between atoms: C_15  and  O_32
REMARK    6  A    between atoms: C_17  and  O_31
REMARK    7  A    between atoms: C_19  and  O_21
REMARK    8  A    between atoms: O_21  and  C_22
REMARK    9  A    between atoms: C_22  and  C_23
REMARK   10  A    between atoms: C_26  and  O_29
REMARK   11  A    between atoms: C_33  and  O_34
REMARK   12  A    between atoms: C_35  and  O_36
REMARK   13  A    between atoms: C_43  and  O_44
REMARK                            x       y       z     vdW  Elec       q    Type
REMARK                         _______ _______ _______ _____ _____    ______ ____
ROOT
ATOM      1  C   LIG A   1      -7.379   1.583 125.151  0.00  0.00    +0.199 C 
ATOM      2  O   LIG A   1      -6.755   2.777 124.638  0.00  0.00    -0.360 OA
ATOM      3  C   LIG A   1      -6.675   2.783 123.203  0.00  0.00    +0.175 C 
ATOM      4  C   LIG A   1      -8.088   2.930 122.639  0.00  0.00    +0.177 C 
ATOM      5  C   LIG A   1      -8.860   1.659 122.976  0.00  0.00    +0.189 C 
ATOM      6  C   LIG A   1      -8.745   1.251 124.464  0.00  0.00    +0.241 C 
ENDROOT
BRANCH   1  14
ATOM      7  C   LIG A   1      -8.846   4.301 133.548  0.00  0.00    +0.162 A 
ATOM      8  C   LIG A   1      -8.418   3.159 132.868  0.00  0.00    +0.096 A 
ATOM      9  C   LIG A   1      -8.364   3.168 131.472  0.00  0.00    +0.143 A 
ATOM     10  O   LIG A   1      -7.920   2.017 130.869  0.00  0.00    -0.454 OA
ATOM     11  C   LIG A   1      -7.787   1.999 129.501  0.00  0.00    +0.146 A 
ATOM     12  C   LIG A   1      -7.275   0.828 128.949  0.00  0.00    +0.093 A 
ATOM     13  C   LIG A   1      -7.111   0.713 127.560  0.00  0.00    +0.130 A 
ATOM     14  C   LIG A   1      -7.459   1.753 126.679  0.00  0.00    +0.068 A 
ATOM     15  C   LIG A   1      -7.964   2.936 127.265  0.00  0.00    +0.141 A 
ATOM     16  C   LIG A   1      -8.129   3.056 128.664  0.00  0.00    +0.106 A 
ATOM     17  C   LIG A   1      -8.660   4.279 129.297  0.00  0.00    +0.204 A 
ATOM     18  O   LIG A   1      -9.008   5.234 128.611  0.00  0.00    -0.286 OA
ATOM     19  C   LIG A   1      -8.743   4.310 130.769  0.00  0.00    +0.068 A 
ATOM     20  C   LIG A   1      -9.180   5.454 131.444  0.00  0.00    +0.064 A 
ATOM     21  C   LIG A   1      -9.224   5.443 132.839  0.00  0.00    +0.159 A 
BRANCH   7  22
ATOM     22  O   LIG A   1      -8.896   4.316 134.913  0.00  0.00    -0.503 OA
ATOM     23  H   LIG A   1      -8.820   3.414 135.257  0.00  0.00    +0.292 HD
ENDBRANCH   7  22
BRANCH  15  24
ATOM     24  O   LIG A   1      -8.303   3.976 126.433  0.00  0.00    -0.505 OA
ATOM     25  H   LIG A   1      -8.827   3.619 125.679  0.00  0.00    +0.292 HD
ENDBRANCH  15  24
BRANCH  13  26
ATOM     26  O   LIG A   1      -6.604  -0.453 127.054  0.00  0.00    -0.506 OA
ATOM     27  H   LIG A   1      -6.294  -0.301 126.145  0.00  0.00    +0.292 HD
ENDBRANCH  13  26
BRANCH  21  28
ATOM     28  O   LIG A   1      -9.633   6.549 133.530  0.00  0.00    -0.503 OA
ATOM     29  H   LIG A   1     -10.594   6.517 133.661  0.00  0.00    +0.292 HD
ENDBRANCH  21  28
ENDBRANCH   1  14
BRANCH   5  30
ATOM     30  O   LIG A   1     -10.240   1.845 122.600  0.00  0.00    -0.385 OA
ATOM     31  H   LIG A   1     -10.240   2.669 122.070  0.00  0.00    +0.210 HD
ENDBRANCH   5  30
BRANCH   4  32
ATOM     32  O   LIG A   1      -8.127   3.081 121.213  0.00  0.00    -0.387 OA
ATOM     33  H   LIG A   1      -8.017   4.023 120.996  0.00  0.00    +0.210 HD
ENDBRANCH   4  32
BRANCH   6  34
ATOM     34  O   LIG A   1      -9.053  -0.165 124.620  0.00  0.00    -0.452 OA
BRANCH  34  35
ATOM     35  C   LIG A   1      -9.009  -0.954 123.517  0.00  0.00    +0.340 C 
ATOM     36  O   LIG A   1      -9.817  -0.983 122.599  0.00  0.00    -0.245 OA
BRANCH  35  37
ATOM     37  C   LIG A   1      -7.816  -1.818 123.584  0.00  0.00    +0.059 A 
ATOM     38  C   LIG A   1      -7.794  -2.928 124.436  0.00  0.00    +0.018 A 
ATOM     39  C   LIG A   1      -6.648  -3.714 124.528  0.00  0.00    +0.046 A 
ATOM     40  C   LIG A   1      -5.532  -3.386 123.765  0.00  0.00    +0.117 A 
ATOM     41  C   LIG A   1      -5.542  -2.284 122.912  0.00  0.00    +0.046 A 
ATOM     42  C   LIG A   1      -6.687  -1.492 122.820  0.00  0.00    +0.018 A 
BRANCH  40  43
ATOM     43  O   LIG A   1      -4.393  -4.129 123.831  0.00  0.00    -0.507 OA
ATOM     44  H   LIG A   1      -4.627  -5.034 124.094  0.00  0.00    +0.292 HD
ENDBRANCH  40  43
ENDBRANCH  35  37
ENDBRANCH  34  35
ENDBRANCH   6  34
BRANCH   3  45
ATOM     45  C   LIG A   1      -5.778   3.956 122.805  0.00  0.00    +0.190 C 
BRANCH  45  46
ATOM     46  O   LIG A   1      -5.910   5.018 123.747  0.00  0.00    -0.392 OA
ATOM     47  H   LIG A   1      -6.375   5.733 123.269  0.00  0.00    +0.209 HD
ENDBRANCH  45  46
ENDBRANCH   3  45
TORSDOF 13
ENDMDL
MODEL 8
REMARK VINA RESULT:      -7.5      2.685      4.276
REMARK  Name = NuBBE_372
REMARK  13 active torsions:
REMARK  status: ('A' for Active; 'I' for Inactive)
REMARK    1  A    between atoms: O_1  and  C_2
REMARK    2  A    between atoms: C_8  and  O_37
REMARK    3  A    between atoms: C_9  and  C_10
REMARK    4  A    between atoms: C_13  and  C_33
REMARK    5  A    between atoms: C_15  and  O_32
REMARK    6  A    between atoms: C_17  and  O_31
REMARK    7  A    between atoms: C_19  and  O_21
REMARK    8  A    between atoms: O_21  and  C_22
REMARK    9  A    between atoms: C_22  and  C_23
REMARK   10  A    between atoms: C_26  and  O_29
REMARK   11  A    between atoms: C_33  and  O_34
REMARK   12  A    between atoms: C_35  and  O_36
REMARK   13  A    between atoms: C_43  and  O_44
REMARK                            x       y       z     vdW  Elec       q    Type
REMARK                         _______ _______ _______ _____ _____    ______ ____
ROOT
ATOM      1  C   LIG A   1      -5.689   0.157 131.631  0.00  0.00    +0.199 C 
ATOM      2  O   LIG A   1      -5.034   1.310 132.196  0.00  0.00    -0.360 OA
ATOM      3  C   LIG A   1      -4.304   0.998 133.394  0.00  0.00    +0.175 C 
ATOM      4  C   LIG A   1      -3.098   0.138 133.015  0.00  0.00    +0.177 C 
ATOM      5  C   LIG A   1      -3.620  -1.207 132.520  0.00  0.00    +0.189 C 
ATOM      6  C   LIG A   1      -4.739  -1.074 131.459  0.00  0.00    +0.241 C 
ENDROOT
BRANCH   1  14
ATOM      7  C   LIG A   1      -7.673   3.397 123.531  0.00  0.00    +0.162 A 
ATOM      8  C   LIG A   1      -8.279   2.661 124.551  0.00  0.00    +0.096 A 
ATOM      9  C   LIG A   1      -7.548   2.337 125.696  0.00  0.00    +0.143 A 
ATOM     10  O   LIG A   1      -8.210   1.624 126.665  0.00  0.00    -0.454 OA
ATOM     11  C   LIG A   1      -7.552   1.338 127.838  0.00  0.00    +0.146 A 
ATOM     12  C   LIG A   1      -8.292   0.667 128.808  0.00  0.00    +0.093 A 
ATOM     13  C   LIG A   1      -7.703   0.324 130.035  0.00  0.00    +0.130 A 
ATOM     14  C   LIG A   1      -6.361   0.629 130.329  0.00  0.00    +0.068 A 
ATOM     15  C   LIG A   1      -5.636   1.322 129.333  0.00  0.00    +0.141 A 
ATOM     16  C   LIG A   1      -6.227   1.671 128.097  0.00  0.00    +0.106 A 
ATOM     17  C   LIG A   1      -5.488   2.388 127.040  0.00  0.00    +0.204 A 
ATOM     18  O   LIG A   1      -4.307   2.682 127.196  0.00  0.00    -0.286 OA
ATOM     19  C   LIG A   1      -6.219   2.742 125.810  0.00  0.00    +0.068 A 
ATOM     20  C   LIG A   1      -5.604   3.474 124.789  0.00  0.00    +0.064 A 
ATOM     21  C   LIG A   1      -6.342   3.803 123.650  0.00  0.00    +0.159 A 
BRANCH   7  22
ATOM     22  O   LIG A   1      -8.375   3.734 122.408  0.00  0.00    -0.503 OA
ATOM     23  H   LIG A   1      -9.309   3.864 122.629  0.00  0.00    +0.292 HD
ENDBRANCH   7  22
BRANCH  15  24
ATOM     24  O   LIG A   1      -4.327   1.645 129.594  0.00  0.00    -0.505 OA
ATOM     25  H   LIG A   1      -4.175   2.582 129.331  0.00  0.00    +0.292 HD
ENDBRANCH  15  24
BRANCH  13  26
ATOM     26  O   LIG A   1      -8.461  -0.334 130.964  0.00  0.00    -0.506 OA
ATOM     27  H   LIG A   1      -9.123   0.277 131.331  0.00  0.00    +0.292 HD
ENDBRANCH  13  26
BRANCH  21  28
ATOM     28  O   LIG A   1      -5.775   4.528 122.640  0.00  0.00    -0.503 OA
ATOM     29  H   LIG A   1      -5.939   5.474 122.782  0.00  0.00    +0.292 HD
ENDBRANCH  21  28
ENDBRANCH   1  14
BRANCH   5  30
ATOM     30  O   LIG A   1      -2.510  -1.969 132.003  0.00  0.00    -0.385 OA
ATOM     31  H   LIG A   1      -2.386  -1.633 131.092  0.00  0.00    +0.210 HD
ENDBRANCH   5  30
BRANCH   4  32
ATOM     32  O   LIG A   1      -2.214  -0.132 134.112  0.00  0.00    -0.387 OA
ATOM     33  H   LIG A   1      -1.320   0.163 133.872  0.00  0.00    +0.210 HD
ENDBRANCH   4  32
BRANCH   6  34
ATOM     34  O   LIG A   1      -5.519  -2.305 131.399  0.00  0.00    -0.452 OA
BRANCH  34  35
ATOM     35  C   LIG A   1      -5.265  -3.175 130.390  0.00  0.00    +0.340 C 
ATOM     36  O   LIG A   1      -4.356  -3.992 130.332  0.00  0.00    -0.245 OA
BRANCH  35  37
ATOM     37  C   LIG A   1      -6.263  -2.986 129.321  0.00  0.00    +0.059 A 
ATOM     38  C   LIG A   1      -7.569  -3.466 129.482  0.00  0.00    +0.018 A 
ATOM     39  C   LIG A   1      -8.495  -3.324 128.451  0.00  0.00    +0.046 A 
ATOM     40  C   LIG A   1      -8.111  -2.703 127.268  0.00  0.00    +0.117 A 
ATOM     41  C   LIG A   1      -6.814  -2.221 127.096  0.00  0.00    +0.046 A 
ATOM     42  C   LIG A   1      -5.882  -2.363 128.125  0.00  0.00    +0.018 A 
BRANCH  40  43
ATOM     43  O   LIG A   1      -8.987  -2.550 126.238  0.00  0.00    -0.507 OA
ATOM     44  H   LIG A   1      -9.341  -1.647 126.262  0.00  0.00    +0.292 HD
ENDBRANCH  40  43
ENDBRANCH  35  37
ENDBRANCH  34  35
ENDBRANCH   6  34
BRANCH   3  45
ATOM     45  C   LIG A   1      -3.881   2.324 134.026  0.00  0.00    +0.190 C 
BRANCH  45  46
ATOM     46  O   LIG A   1      -3.483   2.118 135.380  0.00  0.00    -0.392 OA
ATOM     47  H   LIG A   1      -2.842   2.831 135.574  0.00  0.00    +0.209 HD
ENDBRANCH  45  46
ENDBRANCH   3  45
TORSDOF 13
ENDMDL
MODEL 9
REMARK VINA RESULT:      -7.5      3.188      6.332
REMARK  Name = NuBBE_372
REMARK  13 active torsions:
REMARK  status: ('A' for Active; 'I' for Inactive)
REMARK    1  A    between atoms: O_1  and  C_2
REMARK    2  A    between atoms: C_8  and  O_37
REMARK    3  A    between atoms: C_9  and  C_10
REMARK    4  A    between atoms: C_13  and  C_33
REMARK    5  A    between atoms: C_15  and  O_32
REMARK    6  A    between atoms: C_17  and  O_31
REMARK    7  A    between atoms: C_19  and  O_21
REMARK    8  A    between atoms: O_21  and  C_22
REMARK    9  A    between atoms: C_22  and  C_23
REMARK   10  A    between atoms: C_26  and  O_29
REMARK   11  A    between atoms: C_33  and  O_34
REMARK   12  A    between atoms: C_35  and  O_36
REMARK   13  A    between atoms: C_43  and  O_44
REMARK                            x       y       z     vdW  Elec       q    Type
REMARK                         _______ _______ _______ _____ _____    ______ ____
ROOT
ATOM      1  C   LIG A   1      -8.927   3.398 130.506  0.00  0.00    +0.199 C 
ATOM      2  O   LIG A   1     -10.099   3.897 129.831  0.00  0.00    -0.360 OA
ATOM      3  C   LIG A   1     -10.580   5.127 130.396  0.00  0.00    +0.175 C 
ATOM      4  C   LIG A   1      -9.571   6.232 130.078  0.00  0.00    +0.177 C 
ATOM      5  C   LIG A   1      -8.289   5.930 130.847  0.00  0.00    +0.189 C 
ATOM      6  C   LIG A   1      -7.801   4.472 130.669  0.00  0.00    +0.241 C 
ENDROOT
BRANCH   1  14
ATOM      7  C   LIG A   1      -6.186  -2.677 124.537  0.00  0.00    +0.162 A 
ATOM      8  C   LIG A   1      -6.390  -2.567 125.913  0.00  0.00    +0.096 A 
ATOM      9  C   LIG A   1      -6.823  -1.353 126.452  0.00  0.00    +0.143 A 
ATOM     10  O   LIG A   1      -7.017  -1.321 127.811  0.00  0.00    -0.454 OA
ATOM     11  C   LIG A   1      -7.506  -0.167 128.379  0.00  0.00    +0.146 A 
ATOM     12  C   LIG A   1      -7.741  -0.211 129.751  0.00  0.00    +0.093 A 
ATOM     13  C   LIG A   1      -8.232   0.920 130.420  0.00  0.00    +0.130 A 
ATOM     14  C   LIG A   1      -8.493   2.130 129.750  0.00  0.00    +0.068 A 
ATOM     15  C   LIG A   1      -8.258   2.144 128.357  0.00  0.00    +0.141 A 
ATOM     16  C   LIG A   1      -7.766   1.005 127.678  0.00  0.00    +0.106 A 
ATOM     17  C   LIG A   1      -7.507   0.999 126.225  0.00  0.00    +0.204 A 
ATOM     18  O   LIG A   1      -7.688   2.011 125.556  0.00  0.00    -0.286 OA
ATOM     19  C   LIG A   1      -7.040  -0.260 125.616  0.00  0.00    +0.068 A 
ATOM     20  C   LIG A   1      -6.831  -0.360 124.237  0.00  0.00    +0.064 A 
ATOM     21  C   LIG A   1      -6.407  -1.578 123.702  0.00  0.00    +0.159 A 
BRANCH   7  22
ATOM     22  O   LIG A   1      -5.774  -3.858 123.989  0.00  0.00    -0.503 OA
ATOM     23  H   LIG A   1      -6.332  -4.083 123.229  0.00  0.00    +0.292 HD
ENDBRANCH   7  22
BRANCH  15  24
ATOM     24  O   LIG A   1      -8.514   3.306 127.670  0.00  0.00    -0.505 OA
ATOM     25  H   LIG A   1      -8.150   3.221 126.759  0.00  0.00    +0.292 HD
ENDBRANCH  15  24
BRANCH  13  26
ATOM     26  O   LIG A   1      -8.451   0.839 131.769  0.00  0.00    -0.506 OA
ATOM     27  H   LIG A   1      -9.409   0.839 131.939  0.00  0.00    +0.292 HD
ENDBRANCH  13  26
BRANCH  21  28
ATOM     28  O   LIG A   1      -6.205  -1.714 122.357  0.00  0.00    -0.503 OA
ATOM     29  H   LIG A   1      -5.918  -2.620 122.158  0.00  0.00    +0.292 HD
ENDBRANCH  21  28
ENDBRANCH   1  14
BRANCH   5  30
ATOM     30  O   LIG A   1      -7.273   6.866 130.431  0.00  0.00    -0.385 OA
ATOM     31  H   LIG A   1      -6.882   7.190 131.268  0.00  0.00    +0.210 HD
ENDBRANCH   5  30
BRANCH   4  32
ATOM     32  O   LIG A   1     -10.004   7.540 130.478  0.00  0.00    -0.387 OA
ATOM     33  H   LIG A   1      -9.453   8.202 130.027  0.00  0.00    +0.210 HD
ENDBRANCH   4  32
BRANCH   6  34
ATOM     34  O   LIG A   1      -6.914   4.105 131.766  0.00  0.00    -0.452 OA
BRANCH  34  35
ATOM     35  C   LIG A   1      -5.576   4.195 131.564  0.00  0.00    +0.340 C 
ATOM     36  O   LIG A   1      -4.867   5.177 131.741  0.00  0.00    -0.245 OA
BRANCH  35  37
ATOM     37  C   LIG A   1      -5.070   2.901 131.070  0.00  0.00    +0.059 A 
ATOM     38  C   LIG A   1      -4.733   2.743 129.720  0.00  0.00    +0.018 A 
ATOM     39  C   LIG A   1      -4.298   1.506 129.251  0.00  0.00    +0.046 A 
ATOM     40  C   LIG A   1      -4.201   0.436 130.133  0.00  0.00    +0.117 A 
ATOM     41  C   LIG A   1      -4.533   0.581 131.479  0.00  0.00    +0.046 A 
ATOM     42  C   LIG A   1      -4.972   1.817 131.953  0.00  0.00    +0.018 A 
BRANCH  40  43
ATOM     43  O   LIG A   1      -3.783  -0.789 129.709  0.00  0.00    -0.507 OA
ATOM     44  H   LIG A   1      -3.736  -0.783 128.740  0.00  0.00    +0.292 HD
ENDBRANCH  40  43
ENDBRANCH  35  37
ENDBRANCH  34  35
ENDBRANCH   6  34
BRANCH   3  45
ATOM     45  C   LIG A   1     -11.947   5.409 129.774  0.00  0.00    +0.190 C 
BRANCH  45  46
ATOM     46  O   LIG A   1     -11.797   6.180 128.584  0.00  0.00    -0.392 OA
ATOM     47  H   LIG A   1     -11.217   5.650 128.002  0.00  0.00    +0.209 HD
ENDBRANCH  45  46
ENDBRANCH   3  45
TORSDOF 13
ENDMDL
