MODEL 1
REMARK VINA RESULT:      -8.7      0.000      0.000
REMARK  Name = NuBBE_2198
REMARK  5 active torsions:
REMARK  status: ('A' for Active; 'I' for Inactive)
REMARK    1  A    between atoms: C_1  and  C_2
REMARK    2  A    between atoms: C_8  and  C_9
REMARK    3  A    between atoms: C_8  and  C_11
REMARK    4  A    between atoms: C_20  and  C_21
REMARK    5  A    between atoms: C_20  and  C_22
REMARK                            x       y       z     vdW  Elec       q    Type
REMARK                         _______ _______ _______ _____ _____    ______ ____
ROOT
ATOM      1  C   LIG A   1      -8.268   6.701 130.335  0.00  0.00    +0.012 C 
ATOM      2  C   LIG A   1      -9.207   5.468 130.348  0.00  0.00    -0.018 C 
ATOM      3  C   LIG A   1      -9.633   5.041 131.797  0.00  0.00    +0.008 C 
ATOM      4  C   LIG A   1     -10.414   6.176 132.472  0.00  0.00    +0.079 C 
ATOM      5  C   LIG A   1     -11.639   6.559 131.677  0.00  0.00    +0.137 C 
ATOM      6  C   LIG A   1     -11.820   5.958 130.290  0.00  0.00    +0.067 C 
ATOM      7  C   LIG A   1     -12.895   6.674 129.450  0.00  0.00    +0.022 C 
ATOM      8  C   LIG A   1     -12.493   8.093 128.936  0.00  0.00    -0.007 C 
ATOM      9  C   LIG A   1     -13.151   8.311 127.556  0.00  0.00    +0.016 C 
ATOM     10  C   LIG A   1     -10.963   8.207 128.789  0.00  0.00    +0.085 C 
ATOM     11  C   LIG A   1     -10.509   5.760 129.494  0.00  0.00    +0.072 C 
ATOM     12  C   LIG A   1     -10.356   6.867 128.450  0.00  0.00    +0.138 C 
ATOM     13  O   LIG A   1      -9.725   6.688 127.412  0.00  0.00    -0.297 OA
ATOM     14  O   LIG A   1     -12.504   7.266 132.198  0.00  0.00    -0.297 OA
ATOM     15  C   LIG A   1      -8.526   4.396 132.709  0.00  0.00    -0.031 C 
ATOM     16  C   LIG A   1      -9.201   3.700 133.922  0.00  0.00    +0.011 C 
ATOM     17  C   LIG A   1      -7.508   5.390 133.306  0.00  0.00    +0.011 C 
ATOM     18  C   LIG A   1      -7.782   3.294 131.915  0.00  0.00    +0.007 C 
ATOM     19  C   LIG A   1      -7.302   3.736 130.537  0.00  0.00    +0.001 C 
ATOM     20  C   LIG A   1      -8.450   4.280 129.690  0.00  0.00    +0.007 C 
ENDROOT
BRANCH   8  21
ATOM     21  C   LIG A   1     -13.082   9.161 129.855  0.00  0.00    -0.028 C 
ATOM     22  C   LIG A   1     -13.398  10.429 129.558  0.00  0.00    +0.004 C 
ENDBRANCH   8  21
TORSDOF 1
ENDMDL
MODEL 2
REMARK VINA RESULT:      -7.9      7.249      9.863
REMARK  Name = NuBBE_2198
REMARK  5 active torsions:
REMARK  status: ('A' for Active; 'I' for Inactive)
REMARK    1  A    between atoms: C_1  and  C_2
REMARK    2  A    between atoms: C_8  and  C_9
REMARK    3  A    between atoms: C_8  and  C_11
REMARK    4  A    between atoms: C_20  and  C_21
REMARK    5  A    between atoms: C_20  and  C_22
REMARK                            x       y       z     vdW  Elec       q    Type
REMARK                         _______ _______ _______ _____ _____    ______ ____
ROOT
ATOM      1  C   LIG A   1      -8.031   2.003 125.847  0.00  0.00    +0.012 C 
ATOM      2  C   LIG A   1      -6.845   1.703 124.896  0.00  0.00    -0.018 C 
ATOM      3  C   LIG A   1      -5.477   1.561 125.653  0.00  0.00    +0.008 C 
ATOM      4  C   LIG A   1      -5.539   0.385 126.637  0.00  0.00    +0.079 C 
ATOM      5  C   LIG A   1      -5.866  -0.912 125.934  0.00  0.00    +0.137 C 
ATOM      6  C   LIG A   1      -6.275  -0.860 124.469  0.00  0.00    +0.067 C 
ATOM      7  C   LIG A   1      -6.912  -2.169 123.965  0.00  0.00    +0.022 C 
ATOM      8  C   LIG A   1      -8.351  -2.452 124.502  0.00  0.00    -0.007 C 
ATOM      9  C   LIG A   1      -9.141  -3.187 123.398  0.00  0.00    +0.016 C 
ATOM     10  C   LIG A   1      -9.072  -1.134 124.847  0.00  0.00    +0.085 C 
ATOM     11  C   LIG A   1      -7.119   0.376 124.076  0.00  0.00    +0.072 C 
ATOM     12  C   LIG A   1      -8.593  -0.012 123.958  0.00  0.00    +0.138 C 
ATOM     13  O   LIG A   1      -9.360   0.596 123.216  0.00  0.00    -0.297 OA
ATOM     14  O   LIG A   1      -5.705  -1.980 126.527  0.00  0.00    -0.297 OA
ATOM     15  C   LIG A   1      -4.855   2.871 126.262  0.00  0.00    -0.031 C 
ATOM     16  C   LIG A   1      -3.365   2.615 126.616  0.00  0.00    +0.011 C 
ATOM     17  C   LIG A   1      -5.519   3.368 127.563  0.00  0.00    +0.011 C 
ATOM     18  C   LIG A   1      -4.877   3.995 125.197  0.00  0.00    +0.007 C 
ATOM     19  C   LIG A   1      -6.230   4.182 124.517  0.00  0.00    +0.001 C 
ATOM     20  C   LIG A   1      -6.727   2.882 123.889  0.00  0.00    +0.007 C 
ENDROOT
BRANCH   8  21
ATOM     21  C   LIG A   1      -8.281  -3.417 125.683  0.00  0.00    -0.028 C 
ATOM     22  C   LIG A   1      -8.959  -3.365 126.838  0.00  0.00    +0.004 C 
ENDBRANCH   8  21
TORSDOF 1
ENDMDL
MODEL 3
REMARK VINA RESULT:      -7.9      7.259      8.771
REMARK  Name = NuBBE_2198
REMARK  5 active torsions:
REMARK  status: ('A' for Active; 'I' for Inactive)
REMARK    1  A    between atoms: C_1  and  C_2
REMARK    2  A    between atoms: C_8  and  C_9
REMARK    3  A    between atoms: C_8  and  C_11
REMARK    4  A    between atoms: C_20  and  C_21
REMARK    5  A    between atoms: C_20  and  C_22
REMARK                            x       y       z     vdW  Elec       q    Type
REMARK                         _______ _______ _______ _____ _____    ______ ____
ROOT
ATOM      1  C   LIG A   1      -7.094  -2.292 125.548  0.00  0.00    +0.012 C 
ATOM      2  C   LIG A   1      -8.318  -1.750 126.329  0.00  0.00    -0.018 C 
ATOM      3  C   LIG A   1      -7.941  -1.208 127.753  0.00  0.00    +0.008 C 
ATOM      4  C   LIG A   1      -6.964  -0.032 127.628  0.00  0.00    +0.079 C 
ATOM      5  C   LIG A   1      -7.545   1.088 126.797  0.00  0.00    +0.137 C 
ATOM      6  C   LIG A   1      -8.854   0.841 126.060  0.00  0.00    +0.067 C 
ATOM      7  C   LIG A   1      -9.162   1.904 124.989  0.00  0.00    +0.022 C 
ATOM      8  C   LIG A   1      -8.267   1.831 123.711  0.00  0.00    -0.007 C 
ATOM      9  C   LIG A   1      -9.120   2.264 122.499  0.00  0.00    +0.016 C 
ATOM     10  C   LIG A   1      -7.759   0.394 123.483  0.00  0.00    +0.085 C 
ATOM     11  C   LIG A   1      -9.026  -0.594 125.510  0.00  0.00    +0.072 C 
ATOM     12  C   LIG A   1      -8.752  -0.615 124.005  0.00  0.00    +0.138 C 
ATOM     13  O   LIG A   1      -9.275  -1.447 123.269  0.00  0.00    -0.297 OA
ATOM     14  O   LIG A   1      -7.004   2.196 126.809  0.00  0.00    -0.297 OA
ATOM     15  C   LIG A   1      -7.528  -2.269 128.838  0.00  0.00    -0.031 C 
ATOM     16  C   LIG A   1      -7.571  -1.609 130.244  0.00  0.00    +0.011 C 
ATOM     17  C   LIG A   1      -6.104  -2.842 128.684  0.00  0.00    +0.011 C 
ATOM     18  C   LIG A   1      -8.562  -3.422 128.851  0.00  0.00    +0.007 C 
ATOM     19  C   LIG A   1      -8.868  -3.998 127.473  0.00  0.00    +0.001 C 
ATOM     20  C   LIG A   1      -9.333  -2.916 126.502  0.00  0.00    +0.007 C 
ENDROOT
BRANCH   8  21
ATOM     21  C   LIG A   1      -7.135   2.851 123.815  0.00  0.00    -0.028 C 
ATOM     22  C   LIG A   1      -6.486   3.475 122.821  0.00  0.00    +0.004 C 
ENDBRANCH   8  21
TORSDOF 1
ENDMDL
MODEL 4
REMARK VINA RESULT:      -7.3      6.973      9.363
REMARK  Name = NuBBE_2198
REMARK  5 active torsions:
REMARK  status: ('A' for Active; 'I' for Inactive)
REMARK    1  A    between atoms: C_1  and  C_2
REMARK    2  A    between atoms: C_8  and  C_9
REMARK    3  A    between atoms: C_8  and  C_11
REMARK    4  A    between atoms: C_20  and  C_21
REMARK    5  A    between atoms: C_20  and  C_22
REMARK                            x       y       z     vdW  Elec       q    Type
REMARK                         _______ _______ _______ _____ _____    ______ ____
ROOT
ATOM      1  C   LIG A   1      -6.733  -0.553 123.174  0.00  0.00    +0.012 C 
ATOM      2  C   LIG A   1      -8.023  -0.417 124.021  0.00  0.00    -0.018 C 
ATOM      3  C   LIG A   1      -8.039  -1.371 125.267  0.00  0.00    +0.008 C 
ATOM      4  C   LIG A   1      -6.876  -1.029 126.208  0.00  0.00    +0.079 C 
ATOM      5  C   LIG A   1      -6.938   0.407 126.671  0.00  0.00    +0.137 C 
ATOM      6  C   LIG A   1      -7.957   1.334 126.023  0.00  0.00    +0.067 C 
ATOM      7  C   LIG A   1      -7.698   2.825 126.313  0.00  0.00    +0.022 C 
ATOM      8  C   LIG A   1      -6.465   3.436 125.576  0.00  0.00    -0.007 C 
ATOM      9  C   LIG A   1      -6.781   4.911 125.247  0.00  0.00    +0.016 C 
ATOM     10  C   LIG A   1      -6.183   2.676 124.265  0.00  0.00    +0.085 C 
ATOM     11  C   LIG A   1      -8.200   1.078 124.517  0.00  0.00    +0.072 C 
ATOM     12  C   LIG A   1      -7.460   2.122 123.681  0.00  0.00    +0.138 C 
ATOM     13  O   LIG A   1      -7.857   2.452 122.566  0.00  0.00    -0.297 OA
ATOM     14  O   LIG A   1      -6.238   0.770 127.618  0.00  0.00    -0.297 OA
ATOM     15  C   LIG A   1      -8.204  -2.910 124.989  0.00  0.00    -0.031 C 
ATOM     16  C   LIG A   1      -8.581  -3.634 126.310  0.00  0.00    +0.011 C 
ATOM     17  C   LIG A   1      -6.938  -3.621 124.465  0.00  0.00    +0.011 C 
ATOM     18  C   LIG A   1      -9.378  -3.133 124.004  0.00  0.00    +0.007 C 
ATOM     19  C   LIG A   1      -9.318  -2.257 122.757  0.00  0.00    +0.001 C 
ATOM     20  C   LIG A   1      -9.234  -0.775 123.114  0.00  0.00    +0.007 C 
ENDROOT
BRANCH   8  21
ATOM     21  C   LIG A   1      -5.263   3.463 126.516  0.00  0.00    -0.028 C 
ATOM     22  C   LIG A   1      -3.976   3.686 126.212  0.00  0.00    +0.004 C 
ENDBRANCH   8  21
TORSDOF 1
ENDMDL
MODEL 5
REMARK VINA RESULT:      -7.1      8.033     10.398
REMARK  Name = NuBBE_2198
REMARK  5 active torsions:
REMARK  status: ('A' for Active; 'I' for Inactive)
REMARK    1  A    between atoms: C_1  and  C_2
REMARK    2  A    between atoms: C_8  and  C_9
REMARK    3  A    between atoms: C_8  and  C_11
REMARK    4  A    between atoms: C_20  and  C_21
REMARK    5  A    between atoms: C_20  and  C_22
REMARK                            x       y       z     vdW  Elec       q    Type
REMARK                         _______ _______ _______ _____ _____    ______ ____
ROOT
ATOM      1  C   LIG A   1      -4.444  -2.822 132.152  0.00  0.00    +0.012 C 
ATOM      2  C   LIG A   1      -5.586  -3.815 131.817  0.00  0.00    -0.018 C 
ATOM      3  C   LIG A   1      -6.903  -3.524 132.621  0.00  0.00    +0.008 C 
ATOM      4  C   LIG A   1      -7.437  -2.129 132.269  0.00  0.00    +0.079 C 
ATOM      5  C   LIG A   1      -7.707  -1.993 130.789  0.00  0.00    +0.137 C 
ATOM      6  C   LIG A   1      -7.247  -3.110 129.863  0.00  0.00    +0.067 C 
ATOM      7  C   LIG A   1      -7.258  -2.712 128.374  0.00  0.00    +0.022 C 
ATOM      8  C   LIG A   1      -6.138  -1.709 127.951  0.00  0.00    -0.007 C 
ATOM      9  C   LIG A   1      -5.719  -2.037 126.502  0.00  0.00    +0.016 C 
ATOM     10  C   LIG A   1      -4.911  -1.841 128.874  0.00  0.00    +0.085 C 
ATOM     11  C   LIG A   1      -5.912  -3.777 130.267  0.00  0.00    +0.072 C 
ATOM     12  C   LIG A   1      -4.776  -3.255 129.387  0.00  0.00    +0.138 C 
ATOM     13  O   LIG A   1      -3.779  -3.933 129.153  0.00  0.00    -0.297 OA
ATOM     14  O   LIG A   1      -8.371  -1.039 130.379  0.00  0.00    -0.297 OA
ATOM     15  C   LIG A   1      -6.884  -3.830 134.163  0.00  0.00    -0.031 C 
ATOM     16  C   LIG A   1      -8.341  -3.854 134.700  0.00  0.00    +0.011 C 
ATOM     17  C   LIG A   1      -6.132  -2.797 135.028  0.00  0.00    +0.011 C 
ATOM     18  C   LIG A   1      -6.295  -5.243 134.401  0.00  0.00    +0.007 C 
ATOM     19  C   LIG A   1      -4.975  -5.496 133.679  0.00  0.00    +0.001 C 
ATOM     20  C   LIG A   1      -5.100  -5.247 132.178  0.00  0.00    +0.007 C 
ENDROOT
BRANCH   8  21
ATOM     21  C   LIG A   1      -6.703  -0.291 127.915  0.00  0.00    -0.028 C 
ATOM     22  C   LIG A   1      -7.719   0.180 127.178  0.00  0.00    +0.004 C 
ENDBRANCH   8  21
TORSDOF 1
ENDMDL
MODEL 6
REMARK VINA RESULT:      -7.0      8.409     10.812
REMARK  Name = NuBBE_2198
REMARK  5 active torsions:
REMARK  status: ('A' for Active; 'I' for Inactive)
REMARK    1  A    between atoms: C_1  and  C_2
REMARK    2  A    between atoms: C_8  and  C_9
REMARK    3  A    between atoms: C_8  and  C_11
REMARK    4  A    between atoms: C_20  and  C_21
REMARK    5  A    between atoms: C_20  and  C_22
REMARK                            x       y       z     vdW  Elec       q    Type
REMARK                         _______ _______ _______ _____ _____    ______ ____
ROOT
ATOM      1  C   LIG A   1      -5.340  -0.985 125.626  0.00  0.00    +0.012 C 
ATOM      2  C   LIG A   1      -6.764  -0.465 125.951  0.00  0.00    -0.018 C 
ATOM      3  C   LIG A   1      -7.888  -1.243 125.179  0.00  0.00    +0.008 C 
ATOM      4  C   LIG A   1      -7.875  -2.724 125.582  0.00  0.00    +0.079 C 
ATOM      5  C   LIG A   1      -8.069  -2.898 127.069  0.00  0.00    +0.137 C 
ATOM      6  C   LIG A   1      -8.042  -1.659 127.954  0.00  0.00    +0.067 C 
ATOM      7  C   LIG A   1      -7.900  -1.983 129.454  0.00  0.00    +0.022 C 
ATOM      8  C   LIG A   1      -6.489  -2.494 129.887  0.00  0.00    -0.007 C 
ATOM      9  C   LIG A   1      -6.210  -1.987 131.318  0.00  0.00    +0.016 C 
ATOM     10  C   LIG A   1      -5.400  -1.956 128.939  0.00  0.00    +0.085 C 
ATOM     11  C   LIG A   1      -7.045  -0.565 127.507  0.00  0.00    +0.072 C 
ATOM     12  C   LIG A   1      -5.792  -0.608 128.383  0.00  0.00    +0.138 C 
ATOM     13  O   LIG A   1      -5.110   0.394 128.578  0.00  0.00    -0.297 OA
ATOM     14  O   LIG A   1      -8.337  -4.014 127.519  0.00  0.00    -0.297 OA
ATOM     15  C   LIG A   1      -7.990  -1.003 123.628  0.00  0.00    -0.031 C 
ATOM     16  C   LIG A   1      -9.358  -1.530 123.116  0.00  0.00    +0.011 C 
ATOM     17  C   LIG A   1      -6.918  -1.721 122.782  0.00  0.00    +0.011 C 
ATOM     18  C   LIG A   1      -7.958   0.518 123.339  0.00  0.00    +0.007 C 
ATOM     19  C   LIG A   1      -6.817   1.258 124.029  0.00  0.00    +0.001 C 
ATOM     20  C   LIG A   1      -6.834   1.033 125.539  0.00  0.00    +0.007 C 
ENDROOT
BRANCH   8  21
ATOM     21  C   LIG A   1      -6.498  -4.018 129.975  0.00  0.00    -0.028 C 
ATOM     22  C   LIG A   1      -5.695  -4.812 130.699  0.00  0.00    +0.004 C 
ENDBRANCH   8  21
TORSDOF 1
ENDMDL
MODEL 7
REMARK VINA RESULT:      -6.9      7.274      8.889
REMARK  Name = NuBBE_2198
REMARK  5 active torsions:
REMARK  status: ('A' for Active; 'I' for Inactive)
REMARK    1  A    between atoms: C_1  and  C_2
REMARK    2  A    between atoms: C_8  and  C_9
REMARK    3  A    between atoms: C_8  and  C_11
REMARK    4  A    between atoms: C_20  and  C_21
REMARK    5  A    between atoms: C_20  and  C_22
REMARK                            x       y       z     vdW  Elec       q    Type
REMARK                         _______ _______ _______ _____ _____    ______ ____
ROOT
ATOM      1  C   LIG A   1      -5.614  -2.016 126.999  0.00  0.00    +0.012 C 
ATOM      2  C   LIG A   1      -6.785  -1.253 127.667  0.00  0.00    -0.018 C 
ATOM      3  C   LIG A   1      -6.755  -1.339 129.234  0.00  0.00    +0.008 C 
ATOM      4  C   LIG A   1      -5.469  -0.697 129.772  0.00  0.00    +0.079 C 
ATOM      5  C   LIG A   1      -5.346   0.746 129.343  0.00  0.00    +0.137 C 
ATOM      6  C   LIG A   1      -6.337   1.286 128.322  0.00  0.00    +0.067 C 
ATOM      7  C   LIG A   1      -5.909   2.633 127.707  0.00  0.00    +0.022 C 
ATOM      8  C   LIG A   1      -4.712   2.551 126.709  0.00  0.00    -0.007 C 
ATOM      9  C   LIG A   1      -4.922   3.620 125.615  0.00  0.00    +0.016 C 
ATOM     10  C   LIG A   1      -4.647   1.160 126.048  0.00  0.00    +0.085 C 
ATOM     11  C   LIG A   1      -6.766   0.272 127.236  0.00  0.00    +0.072 C 
ATOM     12  C   LIG A   1      -6.026   0.558 125.929  0.00  0.00    +0.138 C 
ATOM     13  O   LIG A   1      -6.510   0.264 124.839  0.00  0.00    -0.297 OA
ATOM     14  O   LIG A   1      -4.515   1.473 129.891  0.00  0.00    -0.297 OA
ATOM     15  C   LIG A   1      -7.093  -2.731 129.883  0.00  0.00    -0.031 C 
ATOM     16  C   LIG A   1      -7.391  -2.535 131.394  0.00  0.00    +0.011 C 
ATOM     17  C   LIG A   1      -5.965  -3.781 129.807  0.00  0.00    +0.011 C 
ATOM     18  C   LIG A   1      -8.384  -3.299 129.241  0.00  0.00    +0.007 C 
ATOM     19  C   LIG A   1      -8.378  -3.284 127.716  0.00  0.00    +0.001 C 
ATOM     20  C   LIG A   1      -8.116  -1.883 127.168  0.00  0.00    +0.007 C 
ENDROOT
BRANCH   8  21
ATOM     21  C   LIG A   1      -3.417   2.929 127.423  0.00  0.00    -0.028 C 
ATOM     22  C   LIG A   1      -2.190   3.069 126.900  0.00  0.00    +0.004 C 
ENDBRANCH   8  21
TORSDOF 1
ENDMDL
MODEL 8
REMARK VINA RESULT:      -6.9      3.763      6.937
REMARK  Name = NuBBE_2198
REMARK  5 active torsions:
REMARK  status: ('A' for Active; 'I' for Inactive)
REMARK    1  A    between atoms: C_1  and  C_2
REMARK    2  A    between atoms: C_8  and  C_9
REMARK    3  A    between atoms: C_8  and  C_11
REMARK    4  A    between atoms: C_20  and  C_21
REMARK    5  A    between atoms: C_20  and  C_22
REMARK                            x       y       z     vdW  Elec       q    Type
REMARK                         _______ _______ _______ _____ _____    ______ ____
ROOT
ATOM      1  C   LIG A   1      -7.430   6.126 132.493  0.00  0.00    +0.012 C 
ATOM      2  C   LIG A   1      -6.892   4.679 132.358  0.00  0.00    -0.018 C 
ATOM      3  C   LIG A   1      -7.553   3.890 131.173  0.00  0.00    +0.008 C 
ATOM      4  C   LIG A   1      -7.241   4.584 129.840  0.00  0.00    +0.079 C 
ATOM      5  C   LIG A   1      -5.753   4.696 129.606  0.00  0.00    +0.137 C 
ATOM      6  C   LIG A   1      -4.810   4.324 130.742  0.00  0.00    +0.067 C 
ATOM      7  C   LIG A   1      -3.363   4.803 130.516  0.00  0.00    +0.022 C 
ATOM      8  C   LIG A   1      -3.149   6.343 130.656  0.00  0.00    -0.007 C 
ATOM      9  C   LIG A   1      -1.740   6.583 131.240  0.00  0.00    +0.016 C 
ATOM     10  C   LIG A   1      -4.199   6.956 131.603  0.00  0.00    +0.085 C 
ATOM     11  C   LIG A   1      -5.321   4.692 132.155  0.00  0.00    +0.072 C 
ATOM     12  C   LIG A   1      -4.621   5.957 132.653  0.00  0.00    +0.138 C 
ATOM     13  O   LIG A   1      -4.460   6.173 133.851  0.00  0.00    -0.297 OA
ATOM     14  O   LIG A   1      -5.336   4.991 128.484  0.00  0.00    -0.297 OA
ATOM     15  C   LIG A   1      -9.061   3.475 131.340  0.00  0.00    -0.031 C 
ATOM     16  C   LIG A   1      -9.418   2.400 130.278  0.00  0.00    +0.011 C 
ATOM     17  C   LIG A   1     -10.080   4.617 131.143  0.00  0.00    +0.011 C 
ATOM     18  C   LIG A   1      -9.265   2.821 132.729  0.00  0.00    +0.007 C 
ATOM     19  C   LIG A   1      -8.689   3.629 133.887  0.00  0.00    +0.001 C 
ATOM     20  C   LIG A   1      -7.205   3.925 133.682  0.00  0.00    +0.007 C 
ENDROOT
BRANCH   8  21
ATOM     21  C   LIG A   1      -3.147   6.991 129.273  0.00  0.00    -0.028 C 
ATOM     22  C   LIG A   1      -2.303   6.772 128.255  0.00  0.00    +0.004 C 
ENDBRANCH   8  21
TORSDOF 1
ENDMDL
MODEL 9
REMARK VINA RESULT:      -6.9      6.450      9.637
REMARK  Name = NuBBE_2198
REMARK  5 active torsions:
REMARK  status: ('A' for Active; 'I' for Inactive)
REMARK    1  A    between atoms: C_1  and  C_2
REMARK    2  A    between atoms: C_8  and  C_9
REMARK    3  A    between atoms: C_8  and  C_11
REMARK    4  A    between atoms: C_20  and  C_21
REMARK    5  A    between atoms: C_20  and  C_22
REMARK                            x       y       z     vdW  Elec       q    Type
REMARK                         _______ _______ _______ _____ _____    ______ ____
ROOT
ATOM      1  C   LIG A   1      -6.132   0.687 127.736  0.00  0.00    +0.012 C 
ATOM      2  C   LIG A   1      -7.538   1.074 127.210  0.00  0.00    -0.018 C 
ATOM      3  C   LIG A   1      -7.497   2.247 126.167  0.00  0.00    +0.008 C 
ATOM      4  C   LIG A   1      -6.685   1.827 124.935  0.00  0.00    +0.079 C 
ATOM      5  C   LIG A   1      -7.259   0.591 124.284  0.00  0.00    +0.137 C 
ATOM      6  C   LIG A   1      -8.370  -0.159 125.006  0.00  0.00    +0.067 C 
ATOM      7  C   LIG A   1      -8.628  -1.566 124.435  0.00  0.00    +0.022 C 
ATOM      8  C   LIG A   1      -7.520  -2.620 124.753  0.00  0.00    -0.007 C 
ATOM      9  C   LIG A   1      -8.197  -3.998 124.916  0.00  0.00    +0.016 C 
ATOM     10  C   LIG A   1      -6.786  -2.261 126.060  0.00  0.00    +0.085 C 
ATOM     11  C   LIG A   1      -8.243  -0.180 126.547  0.00  0.00    +0.072 C 
ATOM     12  C   LIG A   1      -7.707  -1.535 127.011  0.00  0.00    +0.138 C 
ATOM     13  O   LIG A   1      -7.972  -1.984 128.123  0.00  0.00    -0.297 OA
ATOM     14  O   LIG A   1      -6.887   0.272 123.153  0.00  0.00    -0.297 OA
ATOM     15  C   LIG A   1      -7.139   3.678 126.711  0.00  0.00    -0.031 C 
ATOM     16  C   LIG A   1      -7.520   4.742 125.646  0.00  0.00    +0.011 C 
ATOM     17  C   LIG A   1      -5.645   3.907 127.021  0.00  0.00    +0.011 C 
ATOM     18  C   LIG A   1      -7.990   3.978 127.971  0.00  0.00    +0.007 C 
ATOM     19  C   LIG A   1      -7.965   2.869 129.017  0.00  0.00    +0.001 C 
ATOM     20  C   LIG A   1      -8.396   1.529 128.425  0.00  0.00    +0.007 C 
ENDROOT
BRANCH   8  21
ATOM     21  C   LIG A   1      -6.577  -2.753 123.561  0.00  0.00    -0.028 C 
ATOM     22  C   LIG A   1      -5.241  -2.867 123.567  0.00  0.00    +0.004 C 
ENDBRANCH   8  21
TORSDOF 1
ENDMDL
