REMARK  Name = NuBBE_299
REMARK  18 active torsions:
REMARK  status: ('A' for Active; 'I' for Inactive)
REMARK    1  A    between atoms: C_1  and  C_2
REMARK    2  A    between atoms: C_4  and  O_6
REMARK    3  A    between atoms: O_6  and  C_7
REMARK    4  A    between atoms: C_7  and  C_8
REMARK    5  A    between atoms: C_12  and  C_14
REMARK    6  A    between atoms: C_14  and  C_15
REMARK    7  A    between atoms: C_15  and  C_16
REMARK    8  A    between atoms: C_16  and  C_17
REMARK    9  A    between atoms: C_17  and  C_18
REMARK   10  A    between atoms: C_18  and  C_19
REMARK   11  A    between atoms: C_19  and  C_20
REMARK   12  A    between atoms: C_20  and  C_21
REMARK   13  A    between atoms: C_21  and  C_22
REMARK   14  A    between atoms: C_22  and  C_23
REMARK   15  A    between atoms: C_23  and  C_24
REMARK   16  A    between atoms: C_24  and  C_25
REMARK   17  A    between atoms: C_25  and  C_26
REMARK   18  A    between atoms: C_26  and  C_27
REMARK                            x       y       z     vdW  Elec       q    Type
REMARK                         _______ _______ _______ _____ _____    ______ ____
ROOT
ATOM      1  C   LIG A   1       0.431   0.474   3.238  0.00  0.00    +0.054 C 
ENDROOT
BRANCH   1   7
ATOM      2  C   LIG A   1      -4.550   0.224   3.335  0.00  0.00    +0.067 C 
ATOM      3  C   LIG A   1      -3.343   0.719   4.114  0.00  0.00    +0.101 C 
ATOM      4  C   LIG A   1      -3.334   2.226   4.392  0.00  0.00    +0.224 C 
ATOM      5  C   LIG A   1      -2.139   2.504   5.311  0.00  0.00    +0.056 C 
ATOM      6  C   LIG A   1      -0.807   1.940   4.829  0.00  0.00    +0.058 C 
ATOM      7  C   LIG A   1      -0.834   0.573   4.117  0.00  0.00    +0.063 C 
ATOM      8  N   LIG A   1      -2.082   0.411   3.311  0.00  0.00    +0.234 N 
ATOM      9  H   LIG A   1      -2.072   1.052   2.505  0.00  0.00    +0.202 HD
ATOM     10  H   LIG A   1      -2.144  -0.547   2.951  0.00  0.00    +0.202 HD
BRANCH   4  11
ATOM     11  O   LIG A   1      -3.188   2.963   3.146  0.00  0.00    -0.456 OA
BRANCH  11  12
ATOM     12  C   LIG A   1      -4.327   3.510   2.638  0.00  0.00    +0.304 C 
ATOM     13  C   LIG A   1      -4.088   4.158   1.319  0.00  0.00    +0.136 C 
ATOM     14  O   LIG A   1      -5.468   3.396   3.139  0.00  0.00    -0.251 OA
ENDBRANCH  11  12
ENDBRANCH   4  11
ENDBRANCH   1   7
BRANCH   1  15
ATOM     15  C   LIG A   1       0.624  -0.725   2.302  0.00  0.00    +0.005 C 
BRANCH  15  16
ATOM     16  C   LIG A   1       1.957  -0.533   1.503  0.00  0.00    +0.000 C 
BRANCH  16  17
ATOM     17  C   LIG A   1       2.266  -1.738   0.612  0.00  0.00    -0.000 C 
BRANCH  17  18
ATOM     18  C   LIG A   1       3.490  -1.762  -0.326  0.00  0.00    -0.000 C 
BRANCH  18  19
ATOM     19  C   LIG A   1       3.312  -2.909  -1.374  0.00  0.00    -0.000 C 
BRANCH  19  20
ATOM     20  C   LIG A   1       1.983  -3.002  -2.236  0.00  0.00    -0.000 C 
BRANCH  20  21
ATOM     21  C   LIG A   1       1.756  -2.011  -3.393  0.00  0.00    -0.000 C 
BRANCH  21  22
ATOM     22  C   LIG A   1       0.550  -2.117  -4.371  0.00  0.00    +0.000 C 
BRANCH  22  23
ATOM     23  C   LIG A   1       0.281  -1.004  -5.470  0.00  0.00    +0.000 C 
BRANCH  23  24
ATOM     24  C   LIG A   1       1.046  -0.833  -6.819  0.00  0.00    +0.007 C 
BRANCH  24  25
ATOM     25  C   LIG A   1       2.375  -0.077  -6.787  0.00  0.00    +0.074 C 
BRANCH  25  26
ATOM     26  C   LIG A   1       3.501  -0.855  -6.138  0.00  0.00    +0.130 C 
ATOM     27  C   LIG A   1       3.870  -0.406  -4.741  0.00  0.00    +0.086 C 
ATOM     28  O   LIG A   1       4.045  -1.774  -6.688  0.00  0.00    -0.298 OA
ENDBRANCH  25  26
ENDBRANCH  24  25
ENDBRANCH  23  24
ENDBRANCH  22  23
ENDBRANCH  21  22
ENDBRANCH  20  21
ENDBRANCH  19  20
ENDBRANCH  18  19
ENDBRANCH  17  18
ENDBRANCH  16  17
ENDBRANCH  15  16
ENDBRANCH   1  15
TORSDOF 15
REMARK  Name = NuBBE_299
REMARK  18 active torsions:
REMARK  status: ('A' for Active; 'I' for Inactive)
REMARK    1  A    between atoms: C_1  and  C_2
REMARK    2  A    between atoms: C_4  and  O_6
REMARK    3  A    between atoms: O_6  and  C_7
REMARK    4  A    between atoms: C_7  and  C_8
REMARK    5  A    between atoms: C_12  and  C_14
REMARK    6  A    between atoms: C_14  and  C_15
REMARK    7  A    between atoms: C_15  and  C_16
REMARK    8  A    between atoms: C_16  and  C_17
REMARK    9  A    between atoms: C_17  and  C_18
REMARK   10  A    between atoms: C_18  and  C_19
REMARK   11  A    between atoms: C_19  and  C_20
REMARK   12  A    between atoms: C_20  and  C_21
REMARK   13  A    between atoms: C_21  and  C_22
REMARK   14  A    between atoms: C_22  and  C_23
REMARK   15  A    between atoms: C_23  and  C_24
REMARK   16  A    between atoms: C_24  and  C_25
REMARK   17  A    between atoms: C_25  and  C_26
REMARK   18  A    between atoms: C_26  and  C_27
REMARK                            x       y       z     vdW  Elec       q    Type
REMARK                         _______ _______ _______ _____ _____    ______ ____
ROOT
ATOM      1 CL   LIG A   2      -4.704   3.421   7.509  0.00  0.00    +0.000 Cl
ENDROOT
TORSDOF 0
