MODEL 1
REMARK VINA RESULT:      -8.2      0.000      0.000
REMARK  Name = NuBBE_682
REMARK  13 active torsions:
REMARK  status: ('A' for Active; 'I' for Inactive)
REMARK    1  A    between atoms: C_4  and  C_31
REMARK    2  A    between atoms: C_5  and  O_14
REMARK    3  A    between atoms: C_7  and  C_8
REMARK    4  A    between atoms: C_8  and  C_9
REMARK    5  A    between atoms: C_8  and  C_12
REMARK    6  A    between atoms: C_9  and  O_10
REMARK    7  A    between atoms: C_9  and  C_11
REMARK    8  A    between atoms: C_15  and  O_27
REMARK    9  A    between atoms: C_18  and  C_19
REMARK   10  A    between atoms: C_20  and  C_21
REMARK   11  A    between atoms: C_21  and  C_23
REMARK   12  A    between atoms: C_21  and  C_24
REMARK   13  A    between atoms: C_24  and  C_25
REMARK                            x       y       z     vdW  Elec       q    Type
REMARK                         _______ _______ _______ _____ _____    ______ ____
ROOT
ATOM      1  O   LIG A   1      -9.672   1.930 122.542  0.00  0.00    -0.245 OA
ATOM      2  C   LIG A   1      -9.229   1.073 123.273  0.00  0.00    +0.343 C 
ATOM      3  O   LIG A   1      -9.559  -0.271 123.240  0.00  0.00    -0.443 OA
ATOM      4  C   LIG A   1      -8.643  -0.987 124.077  0.00  0.00    +0.209 C 
ATOM      5  C   LIG A   1      -8.397   0.048 125.160  0.00  0.00    +0.187 C 
ATOM      6  C   LIG A   1      -8.282   1.290 124.408  0.00  0.00    +0.113 C 
ATOM      7  C   LIG A   1      -7.454   2.262 124.815  0.00  0.00    +0.120 C 
ATOM      8  O   LIG A   1      -6.706   2.137 125.986  0.00  0.00    -0.454 OA
ATOM      9  C   LIG A   1      -7.201  -0.302 126.026  0.00  0.00    +0.204 C 
ATOM     10  C   LIG A   1      -6.795   0.950 126.826  0.00  0.00    +0.403 C 
ATOM     11  O   LIG A   1      -7.646   1.140 127.962  0.00  0.00    -0.450 OA
ATOM     12  C   LIG A   1      -7.618   0.002 128.772  0.00  0.00    +0.125 C 
ATOM     13  C   LIG A   1      -7.576  -1.256 128.277  0.00  0.00    +0.054 C 
ATOM     14  C   LIG A   1      -7.704  -1.474 126.842  0.00  0.00    +0.020 C 
ATOM     15  C   LIG A   1      -8.497  -2.427 126.284  0.00  0.00    +0.094 C 
ATOM     16 CL   LIG A   1      -9.197  -3.721 127.197  0.00  0.00    -0.079 Cl
ATOM     17  C   LIG A   1      -7.500  -1.410 123.124  0.00  0.00    +0.068 C 
ATOM     18  C   LIG A   1      -9.015  -2.283 124.845  0.00  0.00    +0.221 C 
ATOM     19  O   LIG A   1      -9.677  -3.176 124.315  0.00  0.00    -0.287 OA
ENDROOT
BRANCH   7  20
ATOM     20  C   LIG A   1      -7.229   3.574 124.069  0.00  0.00    +0.080 C 
ATOM     21  C   LIG A   1      -6.438   4.584 124.925  0.00  0.00    +0.018 C 
BRANCH  20  22
ATOM     22  C   LIG A   1      -6.555   3.382 122.679  0.00  0.00    +0.121 C 
ATOM     23  C   LIG A   1      -5.329   4.264 122.473  0.00  0.00    +0.038 C 
BRANCH  22  24
ATOM     24  O   LIG A   1      -7.455   3.665 121.606  0.00  0.00    -0.391 OA
ATOM     25  H   LIG A   1      -7.323   4.593 121.348  0.00  0.00    +0.210 HD
ENDBRANCH  22  24
ENDBRANCH  20  22
ENDBRANCH   7  20
BRANCH   5  26
ATOM     26  O   LIG A   1      -9.604   0.244 125.952  0.00  0.00    -0.376 OA
ATOM     27  H   LIG A   1     -10.361   0.406 125.354  0.00  0.00    +0.211 HD
ENDBRANCH   5  26
BRANCH  12  28
ATOM     28  C   LIG A   1      -7.723   0.254 130.194  0.00  0.00    +0.042 C 
ATOM     29  C   LIG A   1      -8.561   1.132 130.772  0.00  0.00    -0.020 C 
BRANCH  29  30
ATOM     30  C   LIG A   1      -8.667   1.311 132.269  0.00  0.00    +0.008 C 
ATOM     31  C   LIG A   1      -7.264   1.448 132.865  0.00  0.00    +0.012 C 
BRANCH  30  32
ATOM     32  C   LIG A   1      -9.517   2.535 132.664  0.00  0.00    +0.004 C 
ATOM     33  C   LIG A   1      -8.886   3.430 133.723  0.00  0.00    +0.004 C 
ENDBRANCH  30  32
ENDBRANCH  29  30
ENDBRANCH  12  28
BRANCH   9  34
ATOM     34  O   LIG A   1      -6.051  -0.751 125.297  0.00  0.00    -0.374 OA
ATOM     35  H   LIG A   1      -5.636  -1.494 125.782  0.00  0.00    +0.211 HD
ENDBRANCH   9  34
TORSDOF 8
ENDMDL
MODEL 2
REMARK VINA RESULT:      -8.1      5.971      8.360
REMARK  Name = NuBBE_682
REMARK  13 active torsions:
REMARK  status: ('A' for Active; 'I' for Inactive)
REMARK    1  A    between atoms: C_4  and  C_31
REMARK    2  A    between atoms: C_5  and  O_14
REMARK    3  A    between atoms: C_7  and  C_8
REMARK    4  A    between atoms: C_8  and  C_9
REMARK    5  A    between atoms: C_8  and  C_12
REMARK    6  A    between atoms: C_9  and  O_10
REMARK    7  A    between atoms: C_9  and  C_11
REMARK    8  A    between atoms: C_15  and  O_27
REMARK    9  A    between atoms: C_18  and  C_19
REMARK   10  A    between atoms: C_20  and  C_21
REMARK   11  A    between atoms: C_21  and  C_23
REMARK   12  A    between atoms: C_21  and  C_24
REMARK   13  A    between atoms: C_24  and  C_25
REMARK                            x       y       z     vdW  Elec       q    Type
REMARK                         _______ _______ _______ _____ _____    ______ ____
ROOT
ATOM      1  O   LIG A   1     -11.622   3.383 130.011  0.00  0.00    -0.245 OA
ATOM      2  C   LIG A   1     -10.559   3.339 130.588  0.00  0.00    +0.343 C 
ATOM      3  O   LIG A   1      -9.775   2.212 130.759  0.00  0.00    -0.443 OA
ATOM      4  C   LIG A   1      -8.493   2.616 131.256  0.00  0.00    +0.209 C 
ATOM      5  C   LIG A   1      -8.896   3.804 132.113  0.00  0.00    +0.187 C 
ATOM      6  C   LIG A   1      -9.895   4.477 131.293  0.00  0.00    +0.113 C 
ATOM      7  C   LIG A   1     -10.010   5.812 131.316  0.00  0.00    +0.120 C 
ATOM      8  O   LIG A   1      -9.212   6.597 132.147  0.00  0.00    -0.454 OA
ATOM      9  C   LIG A   1      -7.704   4.652 132.514  0.00  0.00    +0.204 C 
ATOM     10  C   LIG A   1      -8.220   6.005 133.036  0.00  0.00    +0.403 C 
ATOM     11  O   LIG A   1      -8.683   5.899 134.387  0.00  0.00    -0.450 OA
ATOM     12  C   LIG A   1      -7.660   5.410 135.203  0.00  0.00    +0.125 C 
ATOM     13  C   LIG A   1      -6.793   4.451 134.805  0.00  0.00    +0.054 C 
ATOM     14  C   LIG A   1      -6.992   3.780 133.526  0.00  0.00    +0.020 C 
ATOM     15  C   LIG A   1      -6.898   2.435 133.350  0.00  0.00    +0.094 C 
ATOM     16 CL   LIG A   1      -6.203   1.377 134.532  0.00  0.00    -0.079 Cl
ATOM     17  C   LIG A   1      -7.636   2.823 129.986  0.00  0.00    +0.068 C 
ATOM     18  C   LIG A   1      -7.616   1.737 132.186  0.00  0.00    +0.221 C 
ATOM     19  O   LIG A   1      -7.477   0.530 131.984  0.00  0.00    -0.287 OA
ENDROOT
BRANCH   7  20
ATOM     20  C   LIG A   1     -10.990   6.609 130.458  0.00  0.00    +0.080 C 
ATOM     21  C   LIG A   1     -12.157   7.165 131.299  0.00  0.00    +0.018 C 
BRANCH  20  22
ATOM     22  C   LIG A   1     -10.307   7.746 129.643  0.00  0.00    +0.121 C 
ATOM     23  C   LIG A   1     -10.696   7.751 128.169  0.00  0.00    +0.038 C 
BRANCH  22  24
ATOM     24  O   LIG A   1      -8.882   7.657 129.696  0.00  0.00    -0.391 OA
ATOM     25  H   LIG A   1      -8.560   7.528 128.787  0.00  0.00    +0.210 HD
ENDBRANCH  22  24
ENDBRANCH  20  22
ENDBRANCH   7  20
BRANCH   5  26
ATOM     26  O   LIG A   1      -9.658   3.353 133.269  0.00  0.00    -0.376 OA
ATOM     27  H   LIG A   1      -9.484   2.403 133.423  0.00  0.00    +0.211 HD
ENDBRANCH   5  26
BRANCH  12  28
ATOM     28  C   LIG A   1      -7.638   5.941 136.549  0.00  0.00    +0.042 C 
ATOM     29  C   LIG A   1      -8.200   7.096 136.942  0.00  0.00    -0.020 C 
BRANCH  29  30
ATOM     30  C   LIG A   1      -8.194   7.573 138.377  0.00  0.00    +0.008 C 
ATOM     31  C   LIG A   1      -6.752   7.627 138.888  0.00  0.00    +0.012 C 
BRANCH  30  32
ATOM     32  C   LIG A   1      -8.856   8.955 138.550  0.00  0.00    +0.004 C 
ATOM     33  C   LIG A   1     -10.241   9.076 137.928  0.00  0.00    +0.004 C 
ENDBRANCH  30  32
ENDBRANCH  29  30
ENDBRANCH  12  28
BRANCH   9  34
ATOM     34  O   LIG A   1      -6.777   4.914 131.451  0.00  0.00    -0.374 OA
ATOM     35  H   LIG A   1      -7.198   4.688 130.597  0.00  0.00    +0.211 HD
ENDBRANCH   9  34
TORSDOF 8
ENDMDL
MODEL 3
REMARK VINA RESULT:      -8.0      6.234      8.421
REMARK  Name = NuBBE_682
REMARK  13 active torsions:
REMARK  status: ('A' for Active; 'I' for Inactive)
REMARK    1  A    between atoms: C_4  and  C_31
REMARK    2  A    between atoms: C_5  and  O_14
REMARK    3  A    between atoms: C_7  and  C_8
REMARK    4  A    between atoms: C_8  and  C_9
REMARK    5  A    between atoms: C_8  and  C_12
REMARK    6  A    between atoms: C_9  and  O_10
REMARK    7  A    between atoms: C_9  and  C_11
REMARK    8  A    between atoms: C_15  and  O_27
REMARK    9  A    between atoms: C_18  and  C_19
REMARK   10  A    between atoms: C_20  and  C_21
REMARK   11  A    between atoms: C_21  and  C_23
REMARK   12  A    between atoms: C_21  and  C_24
REMARK   13  A    between atoms: C_24  and  C_25
REMARK                            x       y       z     vdW  Elec       q    Type
REMARK                         _______ _______ _______ _____ _____    ______ ____
ROOT
ATOM      1  O   LIG A   1      -3.369   4.105 129.321  0.00  0.00    -0.245 OA
ATOM      2  C   LIG A   1      -4.404   4.065 129.949  0.00  0.00    +0.343 C 
ATOM      3  O   LIG A   1      -5.057   2.918 130.365  0.00  0.00    -0.443 OA
ATOM      4  C   LIG A   1      -6.088   3.288 131.288  0.00  0.00    +0.209 C 
ATOM      5  C   LIG A   1      -6.504   4.629 130.710  0.00  0.00    +0.187 C 
ATOM      6  C   LIG A   1      -5.231   5.242 130.353  0.00  0.00    +0.113 C 
ATOM      7  C   LIG A   1      -5.061   6.568 130.450  0.00  0.00    +0.120 C 
ATOM      8  O   LIG A   1      -6.098   7.407 130.854  0.00  0.00    -0.454 OA
ATOM      9  C   LIG A   1      -7.364   5.427 131.671  0.00  0.00    +0.204 C 
ATOM     10  C   LIG A   1      -7.419   6.885 131.182  0.00  0.00    +0.403 C 
ATOM     11  O   LIG A   1      -8.356   7.040 130.111  0.00  0.00    -0.450 OA
ATOM     12  C   LIG A   1      -9.620   6.606 130.519  0.00  0.00    +0.125 C 
ATOM     13  C   LIG A   1      -9.809   5.525 131.309  0.00  0.00    +0.054 C 
ATOM     14  C   LIG A   1      -8.677   4.674 131.656  0.00  0.00    +0.020 C 
ATOM     15  C   LIG A   1      -8.706   3.315 131.615  0.00  0.00    +0.094 C 
ATOM     16 CL   LIG A   1     -10.175   2.409 131.474  0.00  0.00    -0.079 Cl
ATOM     17  C   LIG A   1      -5.408   3.212 132.676  0.00  0.00    +0.068 C 
ATOM     18  C   LIG A   1      -7.414   2.500 131.454  0.00  0.00    +0.221 C 
ATOM     19  O   LIG A   1      -7.430   1.269 131.486  0.00  0.00    -0.287 OA
ENDROOT
BRANCH   7  20
ATOM     20  C   LIG A   1      -3.752   7.295 130.147  0.00  0.00    +0.080 C 
ATOM     21  C   LIG A   1      -4.007   8.690 129.542  0.00  0.00    +0.018 C 
BRANCH  20  22
ATOM     22  C   LIG A   1      -2.806   7.392 131.380  0.00  0.00    +0.121 C 
ATOM     23  C   LIG A   1      -1.682   6.363 131.362  0.00  0.00    +0.038 C 
BRANCH  22  24
ATOM     24  O   LIG A   1      -3.513   7.215 132.609  0.00  0.00    -0.391 OA
ATOM     25  H   LIG A   1      -4.462   7.320 132.421  0.00  0.00    +0.210 HD
ENDBRANCH  22  24
ENDBRANCH  20  22
ENDBRANCH   7  20
BRANCH   5  26
ATOM     26  O   LIG A   1      -7.158   4.439 129.422  0.00  0.00    -0.376 OA
ATOM     27  H   LIG A   1      -8.117   4.306 129.561  0.00  0.00    +0.211 HD
ENDBRANCH   5  26
BRANCH  12  28
ATOM     28  C   LIG A   1     -10.735   7.345 129.966  0.00  0.00    +0.042 C 
ATOM     29  C   LIG A   1     -11.925   6.824 129.625  0.00  0.00    -0.020 C 
BRANCH  29  30
ATOM     30  C   LIG A   1     -13.074   7.658 129.104  0.00  0.00    +0.008 C 
ATOM     31  C   LIG A   1     -12.645   9.125 129.033  0.00  0.00    +0.012 C 
BRANCH  30  32
ATOM     32  C   LIG A   1     -13.567   7.196 127.718  0.00  0.00    +0.004 C 
ATOM     33  C   LIG A   1     -12.471   7.058 126.670  0.00  0.00    +0.004 C 
ENDBRANCH  30  32
ENDBRANCH  29  30
ENDBRANCH  12  28
BRANCH   9  34
ATOM     34  O   LIG A   1      -6.892   5.432 133.025  0.00  0.00    -0.374 OA
ATOM     35  H   LIG A   1      -6.393   4.607 133.194  0.00  0.00    +0.211 HD
ENDBRANCH   9  34
TORSDOF 8
ENDMDL
MODEL 4
REMARK VINA RESULT:      -7.9      6.124      8.275
REMARK  Name = NuBBE_682
REMARK  13 active torsions:
REMARK  status: ('A' for Active; 'I' for Inactive)
REMARK    1  A    between atoms: C_4  and  C_31
REMARK    2  A    between atoms: C_5  and  O_14
REMARK    3  A    between atoms: C_7  and  C_8
REMARK    4  A    between atoms: C_8  and  C_9
REMARK    5  A    between atoms: C_8  and  C_12
REMARK    6  A    between atoms: C_9  and  O_10
REMARK    7  A    between atoms: C_9  and  C_11
REMARK    8  A    between atoms: C_15  and  O_27
REMARK    9  A    between atoms: C_18  and  C_19
REMARK   10  A    between atoms: C_20  and  C_21
REMARK   11  A    between atoms: C_21  and  C_23
REMARK   12  A    between atoms: C_21  and  C_24
REMARK   13  A    between atoms: C_24  and  C_25
REMARK                            x       y       z     vdW  Elec       q    Type
REMARK                         _______ _______ _______ _____ _____    ______ ____
ROOT
ATOM      1  O   LIG A   1      -3.933   1.848 129.542  0.00  0.00    -0.245 OA
ATOM      2  C   LIG A   1      -4.616   2.436 130.350  0.00  0.00    +0.343 C 
ATOM      3  O   LIG A   1      -5.216   1.877 131.466  0.00  0.00    -0.443 OA
ATOM      4  C   LIG A   1      -5.712   2.934 132.296  0.00  0.00    +0.209 C 
ATOM      5  C   LIG A   1      -6.111   3.948 131.238  0.00  0.00    +0.187 C 
ATOM      6  C   LIG A   1      -5.013   3.875 130.283  0.00  0.00    +0.113 C 
ATOM      7  C   LIG A   1      -4.613   4.968 129.618  0.00  0.00    +0.120 C 
ATOM      8  O   LIG A   1      -5.251   6.196 129.785  0.00  0.00    -0.454 OA
ATOM      9  C   LIG A   1      -6.370   5.321 131.829  0.00  0.00    +0.204 C 
ATOM     10  C   LIG A   1      -6.389   6.349 130.683  0.00  0.00    +0.403 C 
ATOM     11  O   LIG A   1      -7.643   6.336 129.992  0.00  0.00    -0.450 OA
ATOM     12  C   LIG A   1      -8.684   6.577 130.893  0.00  0.00    +0.125 C 
ATOM     13  C   LIG A   1      -8.703   6.077 132.149  0.00  0.00    +0.054 C 
ATOM     14  C   LIG A   1      -7.678   5.130 132.568  0.00  0.00    +0.020 C 
ATOM     15  C   LIG A   1      -7.934   3.986 133.256  0.00  0.00    +0.094 C 
ATOM     16 CL   LIG A   1      -9.456   3.666 134.017  0.00  0.00    -0.079 Cl
ATOM     17  C   LIG A   1      -4.550   3.236 133.271  0.00  0.00    +0.068 C 
ATOM     18  C   LIG A   1      -6.963   2.797 133.204  0.00  0.00    +0.221 C 
ATOM     19  O   LIG A   1      -7.157   1.786 133.880  0.00  0.00    -0.287 OA
ENDROOT
BRANCH   7  20
ATOM     20  C   LIG A   1      -3.443   5.002 128.638  0.00  0.00    +0.080 C 
ATOM     21  C   LIG A   1      -3.928   4.940 127.175  0.00  0.00    +0.018 C 
BRANCH  20  22
ATOM     22  C   LIG A   1      -2.496   6.218 128.854  0.00  0.00    +0.121 C 
ATOM     23  C   LIG A   1      -1.936   6.306 130.269  0.00  0.00    +0.038 C 
BRANCH  22  24
ATOM     24  O   LIG A   1      -3.155   7.459 128.590  0.00  0.00    -0.391 OA
ATOM     25  H   LIG A   1      -3.732   7.327 127.817  0.00  0.00    +0.210 HD
ENDBRANCH  22  24
ENDBRANCH  20  22
ENDBRANCH   7  20
BRANCH   5  26
ATOM     26  O   LIG A   1      -7.252   3.457 130.477  0.00  0.00    -0.376 OA
ATOM     27  H   LIG A   1      -7.992   4.091 130.556  0.00  0.00    +0.211 HD
ENDBRANCH   5  26
BRANCH  12  28
ATOM     28  C   LIG A   1      -9.796   7.336 130.361  0.00  0.00    +0.042 C 
ATOM     29  C   LIG A   1     -10.101   7.466 129.059  0.00  0.00    -0.020 C 
BRANCH  29  30
ATOM     30  C   LIG A   1     -11.312   8.226 128.565  0.00  0.00    +0.008 C 
ATOM     31  C   LIG A   1     -11.983   7.435 127.440  0.00  0.00    +0.012 C 
BRANCH  30  32
ATOM     32  C   LIG A   1     -12.337   8.506 129.682  0.00  0.00    +0.004 C 
ATOM     33  C   LIG A   1     -13.112   9.807 129.519  0.00  0.00    +0.004 C 
ENDBRANCH  30  32
ENDBRANCH  29  30
ENDBRANCH  12  28
BRANCH   9  34
ATOM     34  O   LIG A   1      -5.396   5.748 132.789  0.00  0.00    -0.374 OA
ATOM     35  H   LIG A   1      -5.855   6.166 133.547  0.00  0.00    +0.211 HD
ENDBRANCH   9  34
TORSDOF 8
ENDMDL
MODEL 5
REMARK VINA RESULT:      -7.8      4.079      7.056
REMARK  Name = NuBBE_682
REMARK  13 active torsions:
REMARK  status: ('A' for Active; 'I' for Inactive)
REMARK    1  A    between atoms: C_4  and  C_31
REMARK    2  A    between atoms: C_5  and  O_14
REMARK    3  A    between atoms: C_7  and  C_8
REMARK    4  A    between atoms: C_8  and  C_9
REMARK    5  A    between atoms: C_8  and  C_12
REMARK    6  A    between atoms: C_9  and  O_10
REMARK    7  A    between atoms: C_9  and  C_11
REMARK    8  A    between atoms: C_15  and  O_27
REMARK    9  A    between atoms: C_18  and  C_19
REMARK   10  A    between atoms: C_20  and  C_21
REMARK   11  A    between atoms: C_21  and  C_23
REMARK   12  A    between atoms: C_21  and  C_24
REMARK   13  A    between atoms: C_24  and  C_25
REMARK                            x       y       z     vdW  Elec       q    Type
REMARK                         _______ _______ _______ _____ _____    ______ ____
ROOT
ATOM      1  O   LIG A   1      -7.749  -1.483 129.619  0.00  0.00    -0.245 OA
ATOM      2  C   LIG A   1      -7.667  -0.403 130.159  0.00  0.00    +0.343 C 
ATOM      3  O   LIG A   1      -7.274  -0.178 131.467  0.00  0.00    -0.443 OA
ATOM      4  C   LIG A   1      -7.058   1.228 131.644  0.00  0.00    +0.209 C 
ATOM      5  C   LIG A   1      -8.121   1.786 130.714  0.00  0.00    +0.187 C 
ATOM      6  C   LIG A   1      -8.033   0.913 129.552  0.00  0.00    +0.113 C 
ATOM      7  C   LIG A   1      -8.258   1.390 128.320  0.00  0.00    +0.120 C 
ATOM      8  O   LIG A   1      -8.620   2.720 128.110  0.00  0.00    -0.454 OA
ATOM      9  C   LIG A   1      -7.920   3.264 130.436  0.00  0.00    +0.204 C 
ATOM     10  C   LIG A   1      -8.779   3.653 129.219  0.00  0.00    +0.403 C 
ATOM     11  O   LIG A   1     -10.150   3.841 129.589  0.00  0.00    -0.450 OA
ATOM     12  C   LIG A   1     -10.241   4.810 130.592  0.00  0.00    +0.125 C 
ATOM     13  C   LIG A   1      -9.344   4.918 131.598  0.00  0.00    +0.054 C 
ATOM     14  C   LIG A   1      -8.301   3.912 131.749  0.00  0.00    +0.020 C 
ATOM     15  C   LIG A   1      -7.956   3.346 132.937  0.00  0.00    +0.094 C 
ATOM     16 CL   LIG A   1      -8.469   3.978 134.465  0.00  0.00    -0.079 Cl
ATOM     17  C   LIG A   1      -5.558   1.430 131.328  0.00  0.00    +0.068 C 
ATOM     18  C   LIG A   1      -7.281   1.967 132.990  0.00  0.00    +0.221 C 
ATOM     19  O   LIG A   1      -6.906   1.482 134.058  0.00  0.00    -0.287 OA
ENDROOT
BRANCH   7  20
ATOM     20  C   LIG A   1      -8.140   0.567 127.039  0.00  0.00    +0.080 C 
ATOM     21  C   LIG A   1      -9.325   0.828 126.088  0.00  0.00    +0.018 C 
BRANCH  20  22
ATOM     22  C   LIG A   1      -6.785   0.770 126.302  0.00  0.00    +0.121 C 
ATOM     23  C   LIG A   1      -5.663  -0.108 126.843  0.00  0.00    +0.038 C 
BRANCH  22  24
ATOM     24  O   LIG A   1      -6.331   2.122 126.385  0.00  0.00    -0.391 OA
ATOM     25  H   LIG A   1      -5.422   2.149 126.037  0.00  0.00    +0.210 HD
ENDBRANCH  22  24
ENDBRANCH  20  22
ENDBRANCH   7  20
BRANCH   5  26
ATOM     26  O   LIG A   1      -9.449   1.508 131.245  0.00  0.00    -0.376 OA
ATOM     27  H   LIG A   1      -9.434   0.658 131.729  0.00  0.00    +0.211 HD
ENDBRANCH   5  26
BRANCH  12  28
ATOM     28  C   LIG A   1     -11.421   5.648 130.534  0.00  0.00    +0.042 C 
ATOM     29  C   LIG A   1     -11.774   6.429 129.499  0.00  0.00    -0.020 C 
BRANCH  29  30
ATOM     30  C   LIG A   1     -13.049   7.239 129.472  0.00  0.00    +0.008 C 
ATOM     31  C   LIG A   1     -12.837   8.545 130.241  0.00  0.00    +0.012 C 
BRANCH  30  32
ATOM     32  C   LIG A   1     -13.526   7.555 128.040  0.00  0.00    +0.004 C 
ATOM     33  C   LIG A   1     -12.614   7.030 126.939  0.00  0.00    +0.004 C 
ENDBRANCH  30  32
ENDBRANCH  29  30
ENDBRANCH  12  28
BRANCH   9  34
ATOM     34  O   LIG A   1      -6.563   3.636 130.155  0.00  0.00    -0.374 OA
ATOM     35  H   LIG A   1      -6.169   2.974 129.551  0.00  0.00    +0.211 HD
ENDBRANCH   9  34
TORSDOF 8
ENDMDL
MODEL 6
REMARK VINA RESULT:      -7.7      3.876      7.265
REMARK  Name = NuBBE_682
REMARK  13 active torsions:
REMARK  status: ('A' for Active; 'I' for Inactive)
REMARK    1  A    between atoms: C_4  and  C_31
REMARK    2  A    between atoms: C_5  and  O_14
REMARK    3  A    between atoms: C_7  and  C_8
REMARK    4  A    between atoms: C_8  and  C_9
REMARK    5  A    between atoms: C_8  and  C_12
REMARK    6  A    between atoms: C_9  and  O_10
REMARK    7  A    between atoms: C_9  and  C_11
REMARK    8  A    between atoms: C_15  and  O_27
REMARK    9  A    between atoms: C_18  and  C_19
REMARK   10  A    between atoms: C_20  and  C_21
REMARK   11  A    between atoms: C_21  and  C_23
REMARK   12  A    between atoms: C_21  and  C_24
REMARK   13  A    between atoms: C_24  and  C_25
REMARK                            x       y       z     vdW  Elec       q    Type
REMARK                         _______ _______ _______ _____ _____    ______ ____
ROOT
ATOM      1  O   LIG A   1      -2.929   4.385 131.564  0.00  0.00    -0.245 OA
ATOM      2  C   LIG A   1      -4.090   4.212 131.270  0.00  0.00    +0.343 C 
ATOM      3  O   LIG A   1      -5.166   4.285 132.137  0.00  0.00    -0.443 OA
ATOM      4  C   LIG A   1      -6.375   4.278 131.369  0.00  0.00    +0.209 C 
ATOM      5  C   LIG A   1      -5.962   3.377 130.219  0.00  0.00    +0.187 C 
ATOM      6  C   LIG A   1      -4.606   3.821 129.923  0.00  0.00    +0.113 C 
ATOM      7  C   LIG A   1      -4.141   3.806 128.666  0.00  0.00    +0.120 C 
ATOM      8  O   LIG A   1      -4.917   3.332 127.609  0.00  0.00    -0.454 OA
ATOM      9  C   LIG A   1      -6.937   3.445 129.058  0.00  0.00    +0.204 C 
ATOM     10  C   LIG A   1      -6.266   2.823 127.820  0.00  0.00    +0.403 C 
ATOM     11  O   LIG A   1      -6.315   1.392 127.865  0.00  0.00    -0.450 OA
ATOM     12  C   LIG A   1      -7.642   0.966 127.978  0.00  0.00    +0.125 C 
ATOM     13  C   LIG A   1      -8.560   1.607 128.735  0.00  0.00    +0.054 C 
ATOM     14  C   LIG A   1      -8.150   2.712 129.591  0.00  0.00    +0.020 C 
ATOM     15  C   LIG A   1      -8.549   2.864 130.882  0.00  0.00    +0.094 C 
ATOM     16 CL   LIG A   1      -9.854   1.961 131.576  0.00  0.00    -0.079 Cl
ATOM     17  C   LIG A   1      -6.681   5.774 131.119  0.00  0.00    +0.068 C 
ATOM     18  C   LIG A   1      -7.713   3.681 131.878  0.00  0.00    +0.221 C 
ATOM     19  O   LIG A   1      -8.107   3.877 133.029  0.00  0.00    -0.287 OA
ENDROOT
BRANCH   7  20
ATOM     20  C   LIG A   1      -2.756   4.298 128.252  0.00  0.00    +0.080 C 
ATOM     21  C   LIG A   1      -2.155   3.421 127.135  0.00  0.00    +0.018 C 
BRANCH  20  22
ATOM     22  C   LIG A   1      -2.735   5.800 127.846  0.00  0.00    +0.121 C 
ATOM     23  C   LIG A   1      -2.139   6.708 128.915  0.00  0.00    +0.038 C 
BRANCH  22  24
ATOM     24  O   LIG A   1      -4.045   6.294 127.564  0.00  0.00    -0.391 OA
ATOM     25  H   LIG A   1      -4.034   6.660 126.662  0.00  0.00    +0.210 HD
ENDBRANCH  22  24
ENDBRANCH  20  22
ENDBRANCH   7  20
BRANCH   5  26
ATOM     26  O   LIG A   1      -5.773   2.013 130.693  0.00  0.00    -0.376 OA
ATOM     27  H   LIG A   1      -4.925   1.665 130.353  0.00  0.00    +0.211 HD
ENDBRANCH   5  26
BRANCH  12  28
ATOM     28  C   LIG A   1      -7.953  -0.269 127.291  0.00  0.00    +0.042 C 
ATOM     29  C   LIG A   1      -7.816  -1.504 127.803  0.00  0.00    -0.020 C 
BRANCH  29  30
ATOM     30  C   LIG A   1      -8.213  -2.758 127.058  0.00  0.00    +0.008 C 
ATOM     31  C   LIG A   1      -8.728  -3.799 128.054  0.00  0.00    +0.012 C 
BRANCH  30  32
ATOM     32  C   LIG A   1      -9.286  -2.498 125.981  0.00  0.00    +0.004 C 
ATOM     33  C   LIG A   1      -9.076  -3.259 124.680  0.00  0.00    +0.004 C 
ENDBRANCH  30  32
ENDBRANCH  29  30
ENDBRANCH  12  28
BRANCH   9  34
ATOM     34  O   LIG A   1      -7.357   4.771 128.712  0.00  0.00    -0.374 OA
ATOM     35  H   LIG A   1      -8.298   4.748 128.440  0.00  0.00    +0.211 HD
ENDBRANCH   9  34
TORSDOF 8
ENDMDL
MODEL 7
REMARK VINA RESULT:      -7.7      4.484      7.890
REMARK  Name = NuBBE_682
REMARK  13 active torsions:
REMARK  status: ('A' for Active; 'I' for Inactive)
REMARK    1  A    between atoms: C_4  and  C_31
REMARK    2  A    between atoms: C_5  and  O_14
REMARK    3  A    between atoms: C_7  and  C_8
REMARK    4  A    between atoms: C_8  and  C_9
REMARK    5  A    between atoms: C_8  and  C_12
REMARK    6  A    between atoms: C_9  and  O_10
REMARK    7  A    between atoms: C_9  and  C_11
REMARK    8  A    between atoms: C_15  and  O_27
REMARK    9  A    between atoms: C_18  and  C_19
REMARK   10  A    between atoms: C_20  and  C_21
REMARK   11  A    between atoms: C_21  and  C_23
REMARK   12  A    between atoms: C_21  and  C_24
REMARK   13  A    between atoms: C_24  and  C_25
REMARK                            x       y       z     vdW  Elec       q    Type
REMARK                         _______ _______ _______ _____ _____    ______ ____
ROOT
ATOM      1  O   LIG A   1      -9.366   8.207 129.675  0.00  0.00    -0.245 OA
ATOM      2  C   LIG A   1      -8.814   7.206 130.074  0.00  0.00    +0.343 C 
ATOM      3  O   LIG A   1      -7.520   7.130 130.557  0.00  0.00    -0.443 OA
ATOM      4  C   LIG A   1      -7.332   5.845 131.163  0.00  0.00    +0.209 C 
ATOM      5  C   LIG A   1      -8.213   4.991 130.268  0.00  0.00    +0.187 C 
ATOM      6  C   LIG A   1      -9.389   5.827 130.070  0.00  0.00    +0.113 C 
ATOM      7  C   LIG A   1     -10.605   5.276 129.946  0.00  0.00    +0.120 C 
ATOM      8  O   LIG A   1     -10.782   3.894 129.962  0.00  0.00    -0.454 OA
ATOM      9  C   LIG A   1      -8.479   3.622 130.864  0.00  0.00    +0.204 C 
ATOM     10  C   LIG A   1      -9.656   2.980 130.107  0.00  0.00    +0.403 C 
ATOM     11  O   LIG A   1      -9.231   2.426 128.856  0.00  0.00    -0.450 OA
ATOM     12  C   LIG A   1      -8.212   1.495 129.072  0.00  0.00    +0.125 C 
ATOM     13  C   LIG A   1      -7.241   1.664 129.997  0.00  0.00    +0.054 C 
ATOM     14  C   LIG A   1      -7.143   2.924 130.723  0.00  0.00    +0.020 C 
ATOM     15  C   LIG A   1      -5.978   3.592 130.935  0.00  0.00    +0.094 C 
ATOM     16 CL   LIG A   1      -4.422   2.878 130.671  0.00  0.00    -0.079 Cl
ATOM     17  C   LIG A   1      -7.703   6.061 132.649  0.00  0.00    +0.068 C 
ATOM     18  C   LIG A   1      -5.969   5.105 131.200  0.00  0.00    +0.221 C 
ATOM     19  O   LIG A   1      -4.922   5.700 131.460  0.00  0.00    -0.287 OA
ENDROOT
BRANCH   7  20
ATOM     20  C   LIG A   1     -11.900   6.070 129.786  0.00  0.00    +0.080 C 
ATOM     21  C   LIG A   1     -12.263   6.827 131.079  0.00  0.00    +0.018 C 
BRANCH  20  22
ATOM     22  C   LIG A   1     -11.879   7.038 128.567  0.00  0.00    +0.121 C 
ATOM     23  C   LIG A   1     -12.769   8.262 128.751  0.00  0.00    +0.038 C 
BRANCH  22  24
ATOM     24  O   LIG A   1     -12.305   6.391 127.366  0.00  0.00    -0.391 OA
ATOM     25  H   LIG A   1     -13.256   6.566 127.259  0.00  0.00    +0.210 HD
ENDBRANCH  22  24
ENDBRANCH  20  22
ENDBRANCH   7  20
BRANCH   5  26
ATOM     26  O   LIG A   1      -7.635   4.902 128.933  0.00  0.00    -0.376 OA
ATOM     27  H   LIG A   1      -8.233   5.331 128.290  0.00  0.00    +0.211 HD
ENDBRANCH   5  26
BRANCH  12  28
ATOM     28  C   LIG A   1      -8.213   0.360 128.172  0.00  0.00    +0.042 C 
ATOM     29  C   LIG A   1      -7.627  -0.825 128.409  0.00  0.00    -0.020 C 
BRANCH  29  30
ATOM     30  C   LIG A   1      -7.711  -1.995 127.455  0.00  0.00    +0.008 C 
ATOM     31  C   LIG A   1      -8.242  -3.221 128.201  0.00  0.00    +0.012 C 
BRANCH  30  32
ATOM     32  C   LIG A   1      -8.608  -1.705 126.234  0.00  0.00    +0.004 C 
ATOM     33  C   LIG A   1      -9.347  -2.920 125.688  0.00  0.00    +0.004 C 
ENDBRANCH  30  32
ENDBRANCH  29  30
ENDBRANCH  12  28
BRANCH   9  34
ATOM     34  O   LIG A   1      -8.807   3.635 132.260  0.00  0.00    -0.374 OA
ATOM     35  H   LIG A   1      -8.168   4.206 132.733  0.00  0.00    +0.211 HD
ENDBRANCH   9  34
TORSDOF 8
ENDMDL
MODEL 8
REMARK VINA RESULT:      -7.6      5.398      8.462
REMARK  Name = NuBBE_682
REMARK  13 active torsions:
REMARK  status: ('A' for Active; 'I' for Inactive)
REMARK    1  A    between atoms: C_4  and  C_31
REMARK    2  A    between atoms: C_5  and  O_14
REMARK    3  A    between atoms: C_7  and  C_8
REMARK    4  A    between atoms: C_8  and  C_9
REMARK    5  A    between atoms: C_8  and  C_12
REMARK    6  A    between atoms: C_9  and  O_10
REMARK    7  A    between atoms: C_9  and  C_11
REMARK    8  A    between atoms: C_15  and  O_27
REMARK    9  A    between atoms: C_18  and  C_19
REMARK   10  A    between atoms: C_20  and  C_21
REMARK   11  A    between atoms: C_21  and  C_23
REMARK   12  A    between atoms: C_21  and  C_24
REMARK   13  A    between atoms: C_24  and  C_25
REMARK                            x       y       z     vdW  Elec       q    Type
REMARK                         _______ _______ _______ _____ _____    ______ ____
ROOT
ATOM      1  O   LIG A   1      -7.399   7.366 130.864  0.00  0.00    -0.245 OA
ATOM      2  C   LIG A   1      -7.411   6.369 131.550  0.00  0.00    +0.343 C 
ATOM      3  O   LIG A   1      -6.530   6.079 132.577  0.00  0.00    -0.443 OA
ATOM      4  C   LIG A   1      -7.028   4.948 133.302  0.00  0.00    +0.209 C 
ATOM      5  C   LIG A   1      -7.683   4.169 132.175  0.00  0.00    +0.187 C 
ATOM      6  C   LIG A   1      -8.340   5.208 131.394  0.00  0.00    +0.113 C 
ATOM      7  C   LIG A   1      -9.501   4.964 130.772  0.00  0.00    +0.120 C 
ATOM      8  O   LIG A   1     -10.100   3.706 130.817  0.00  0.00    -0.454 OA
ATOM      9  C   LIG A   1      -8.592   3.069 132.691  0.00  0.00    +0.204 C 
ATOM     10  C   LIG A   1      -9.489   2.594 131.534  0.00  0.00    +0.403 C 
ATOM     11  O   LIG A   1      -8.787   1.697 130.666  0.00  0.00    -0.450 OA
ATOM     12  C   LIG A   1      -8.303   0.610 131.398  0.00  0.00    +0.125 C 
ATOM     13  C   LIG A   1      -7.801   0.726 132.648  0.00  0.00    +0.054 C 
ATOM     14  C   LIG A   1      -7.615   2.048 133.234  0.00  0.00    +0.020 C 
ATOM     15  C   LIG A   1      -6.496   2.434 133.901  0.00  0.00    +0.094 C 
ATOM     16 CL   LIG A   1      -5.287   1.316 134.437  0.00  0.00    -0.079 Cl
ATOM     17  C   LIG A   1      -7.889   5.564 134.430  0.00  0.00    +0.068 C 
ATOM     18  C   LIG A   1      -6.116   3.918 134.018  0.00  0.00    +0.221 C 
ATOM     19  O   LIG A   1      -5.140   4.275 134.680  0.00  0.00    -0.287 OA
ENDROOT
BRANCH   7  20
ATOM     20  C   LIG A   1     -10.288   6.001 129.974  0.00  0.00    +0.080 C 
ATOM     21  C   LIG A   1      -9.878   6.002 128.487  0.00  0.00    +0.018 C 
BRANCH  20  22
ATOM     22  C   LIG A   1     -11.830   5.847 130.120  0.00  0.00    +0.121 C 
ATOM     23  C   LIG A   1     -12.620   6.882 129.328  0.00  0.00    +0.038 C 
BRANCH  22  24
ATOM     24  O   LIG A   1     -12.250   5.957 131.482  0.00  0.00    -0.391 OA
ATOM     25  H   LIG A   1     -11.461   5.856 132.042  0.00  0.00    +0.210 HD
ENDBRANCH  22  24
ENDBRANCH  20  22
ENDBRANCH   7  20
BRANCH   5  26
ATOM     26  O   LIG A   1      -6.668   3.654 131.265  0.00  0.00    -0.376 OA
ATOM     27  H   LIG A   1      -6.951   3.809 130.342  0.00  0.00    +0.211 HD
ENDBRANCH   5  26
BRANCH  12  28
ATOM     28  C   LIG A   1      -8.294  -0.654 130.692  0.00  0.00    +0.042 C 
ATOM     29  C   LIG A   1      -7.480  -1.690 130.955  0.00  0.00    -0.020 C 
BRANCH  29  30
ATOM     30  C   LIG A   1      -7.556  -3.009 130.220  0.00  0.00    +0.008 C 
ATOM     31  C   LIG A   1      -8.374  -2.830 128.939  0.00  0.00    +0.012 C 
BRANCH  30  32
ATOM     32  C   LIG A   1      -6.167  -3.579 129.870  0.00  0.00    +0.004 C 
ATOM     33  C   LIG A   1      -5.720  -4.742 130.745  0.00  0.00    +0.004 C 
ENDBRANCH  30  32
ENDBRANCH  29  30
ENDBRANCH  12  28
BRANCH   9  34
ATOM     34  O   LIG A   1      -9.444   3.463 133.776  0.00  0.00    -0.374 OA
ATOM     35  H   LIG A   1      -9.549   2.708 134.390  0.00  0.00    +0.211 HD
ENDBRANCH   9  34
TORSDOF 8
ENDMDL
MODEL 9
REMARK VINA RESULT:      -7.6      2.590      3.405
REMARK  Name = NuBBE_682
REMARK  13 active torsions:
REMARK  status: ('A' for Active; 'I' for Inactive)
REMARK    1  A    between atoms: C_4  and  C_31
REMARK    2  A    between atoms: C_5  and  O_14
REMARK    3  A    between atoms: C_7  and  C_8
REMARK    4  A    between atoms: C_8  and  C_9
REMARK    5  A    between atoms: C_8  and  C_12
REMARK    6  A    between atoms: C_9  and  O_10
REMARK    7  A    between atoms: C_9  and  C_11
REMARK    8  A    between atoms: C_15  and  O_27
REMARK    9  A    between atoms: C_18  and  C_19
REMARK   10  A    between atoms: C_20  and  C_21
REMARK   11  A    between atoms: C_21  and  C_23
REMARK   12  A    between atoms: C_21  and  C_24
REMARK   13  A    between atoms: C_24  and  C_25
REMARK                            x       y       z     vdW  Elec       q    Type
REMARK                         _______ _______ _______ _____ _____    ______ ____
ROOT
ATOM      1  O   LIG A   1      -8.903   3.913 125.140  0.00  0.00    -0.245 OA
ATOM      2  C   LIG A   1      -8.630   2.747 124.965  0.00  0.00    +0.343 C 
ATOM      3  O   LIG A   1      -9.206   1.910 124.025  0.00  0.00    -0.443 OA
ATOM      4  C   LIG A   1      -8.442   0.701 123.959  0.00  0.00    +0.209 C 
ATOM      5  C   LIG A   1      -8.004   0.574 125.408  0.00  0.00    +0.187 C 
ATOM      6  C   LIG A   1      -7.658   1.943 125.767  0.00  0.00    +0.113 C 
ATOM      7  C   LIG A   1      -6.662   2.192 126.628  0.00  0.00    +0.120 C 
ATOM      8  O   LIG A   1      -5.951   1.158 127.236  0.00  0.00    -0.454 OA
ATOM      9  C   LIG A   1      -6.896  -0.446 125.585  0.00  0.00    +0.204 C 
ATOM     10  C   LIG A   1      -6.262  -0.241 126.973  0.00  0.00    +0.403 C 
ATOM     11  O   LIG A   1      -7.062  -0.832 128.003  0.00  0.00    -0.450 OA
ATOM     12  C   LIG A   1      -7.248  -2.192 127.738  0.00  0.00    +0.125 C 
ATOM     13  C   LIG A   1      -7.444  -2.681 126.493  0.00  0.00    +0.054 C 
ATOM     14  C   LIG A   1      -7.610  -1.764 125.373  0.00  0.00    +0.020 C 
ATOM     15  C   LIG A   1      -8.569  -1.895 124.417  0.00  0.00    +0.094 C 
ATOM     16 CL   LIG A   1      -9.500  -3.340 124.211  0.00  0.00    -0.079 Cl
ATOM     17  C   LIG A   1      -7.399   0.965 122.847  0.00  0.00    +0.068 C 
ATOM     18  C   LIG A   1      -9.051  -0.682 123.608  0.00  0.00    +0.221 C 
ATOM     19  O   LIG A   1      -9.869  -0.810 122.695  0.00  0.00    -0.287 OA
ENDROOT
BRANCH   7  20
ATOM     20  C   LIG A   1      -6.194   3.590 127.027  0.00  0.00    +0.080 C 
ATOM     21  C   LIG A   1      -5.988   3.705 128.551  0.00  0.00    +0.018 C 
BRANCH  20  22
ATOM     22  C   LIG A   1      -4.919   4.051 126.262  0.00  0.00    +0.121 C 
ATOM     23  C   LIG A   1      -5.135   4.205 124.761  0.00  0.00    +0.038 C 
BRANCH  22  24
ATOM     24  O   LIG A   1      -3.835   3.136 126.433  0.00  0.00    -0.391 OA
ATOM     25  H   LIG A   1      -3.178   3.562 127.011  0.00  0.00    +0.210 HD
ENDBRANCH  22  24
ENDBRANCH  20  22
ENDBRANCH   7  20
BRANCH   5  26
ATOM     26  O   LIG A   1      -9.153   0.284 126.255  0.00  0.00    -0.376 OA
ATOM     27  H   LIG A   1      -9.841   0.965 126.114  0.00  0.00    +0.211 HD
ENDBRANCH   5  26
BRANCH  12  28
ATOM     28  C   LIG A   1      -7.304  -3.045 128.906  0.00  0.00    +0.042 C 
ATOM     29  C   LIG A   1      -6.430  -3.030 129.927  0.00  0.00    -0.020 C 
BRANCH  29  30
ATOM     30  C   LIG A   1      -6.573  -3.908 131.150  0.00  0.00    +0.008 C 
ATOM     31  C   LIG A   1      -5.504  -5.003 131.117  0.00  0.00    +0.012 C 
BRANCH  30  32
ATOM     32  C   LIG A   1      -6.460  -3.116 132.469  0.00  0.00    +0.004 C 
ATOM     33  C   LIG A   1      -7.727  -3.106 133.312  0.00  0.00    +0.004 C 
ENDBRANCH  30  32
ENDBRANCH  29  30
ENDBRANCH  12  28
BRANCH   9  34
ATOM     34  O   LIG A   1      -5.851  -0.365 124.606  0.00  0.00    -0.374 OA
ATOM     35  H   LIG A   1      -5.316   0.438 124.776  0.00  0.00    +0.211 HD
ENDBRANCH   9  34
TORSDOF 8
ENDMDL
