MODEL 1
REMARK VINA RESULT:      -6.3      0.000      0.000
REMARK  Name = NuBBE_665
REMARK  1 active torsions:
REMARK  status: ('A' for Active; 'I' for Inactive)
REMARK    1  A    between atoms: O_1  and  C_2
REMARK                            x       y       z     vdW  Elec       q    Type
REMARK                         _______ _______ _______ _____ _____    ______ ____
ROOT
ATOM      1  C   LIG A   1     -10.304   6.018 132.085  0.00  0.00    +0.120 A 
ATOM      2  C   LIG A   1     -11.518   6.347 131.496  0.00  0.00    +0.092 A 
ATOM      3  C   LIG A   1     -11.502   7.083 130.314  0.00  0.00    +0.142 A 
ATOM      4  C   LIG A   1     -10.309   7.502 129.723  0.00  0.00    +0.018 A 
ATOM      5  C   LIG A   1      -9.100   7.181 130.342  0.00  0.00    +0.015 A 
ATOM      6  C   LIG A   1      -9.099   6.433 131.522  0.00  0.00    +0.046 A 
ATOM      7  C   LIG A   1     -10.364   8.230 128.466  0.00  0.00    +0.018 A 
ATOM      8  C   LIG A   1     -11.548   8.462 127.892  0.00  0.00    +0.092 A 
ATOM      9  C   LIG A   1     -12.822   8.032 128.498  0.00  0.00    +0.337 A 
ATOM     10  O   LIG A   1     -13.887   8.256 127.940  0.00  0.00    -0.245 OA
ATOM     11  O   LIG A   1     -12.746   7.373 129.717  0.00  0.00    -0.422 OA
ENDROOT
BRANCH   1  12
ATOM     12  O   LIG A   1     -10.245   5.271 133.224  0.00  0.00    -0.507 OA
ATOM     13  H   LIG A   1      -9.369   4.854 133.281  0.00  0.00    +0.292 HD
ENDBRANCH   1  12
TORSDOF 1
ENDMDL
MODEL 2
REMARK VINA RESULT:      -6.3      1.840      2.524
REMARK  Name = NuBBE_665
REMARK  1 active torsions:
REMARK  status: ('A' for Active; 'I' for Inactive)
REMARK    1  A    between atoms: O_1  and  C_2
REMARK                            x       y       z     vdW  Elec       q    Type
REMARK                         _______ _______ _______ _____ _____    ______ ____
ROOT
ATOM      1  C   LIG A   1     -10.051   6.605 131.300  0.00  0.00    +0.120 A 
ATOM      2  C   LIG A   1      -9.647   6.918 130.008  0.00  0.00    +0.092 A 
ATOM      3  C   LIG A   1     -10.621   7.031 129.019  0.00  0.00    +0.142 A 
ATOM      4  C   LIG A   1     -11.974   6.828 129.291  0.00  0.00    +0.018 A 
ATOM      5  C   LIG A   1     -12.359   6.492 130.590  0.00  0.00    +0.015 A 
ATOM      6  C   LIG A   1     -11.395   6.386 131.596  0.00  0.00    +0.046 A 
ATOM      7  C   LIG A   1     -12.942   7.004 128.221  0.00  0.00    +0.018 A 
ATOM      8  C   LIG A   1     -12.521   7.380 127.009  0.00  0.00    +0.092 A 
ATOM      9  C   LIG A   1     -11.096   7.598 126.697  0.00  0.00    +0.337 A 
ATOM     10  O   LIG A   1     -10.748   7.947 125.577  0.00  0.00    -0.245 OA
ATOM     11  O   LIG A   1     -10.188   7.385 127.725  0.00  0.00    -0.422 OA
ENDROOT
BRANCH   1  12
ATOM     12  O   LIG A   1      -9.155   6.512 132.323  0.00  0.00    -0.507 OA
ATOM     13  H   LIG A   1      -9.241   7.298 132.888  0.00  0.00    +0.292 HD
ENDBRANCH   1  12
TORSDOF 1
ENDMDL
MODEL 3
REMARK VINA RESULT:      -6.0      1.781      4.773
REMARK  Name = NuBBE_665
REMARK  1 active torsions:
REMARK  status: ('A' for Active; 'I' for Inactive)
REMARK    1  A    between atoms: O_1  and  C_2
REMARK                            x       y       z     vdW  Elec       q    Type
REMARK                         _______ _______ _______ _____ _____    ______ ____
ROOT
ATOM      1  C   LIG A   1     -11.322   7.643 126.736  0.00  0.00    +0.120 A 
ATOM      2  C   LIG A   1     -10.419   7.528 127.785  0.00  0.00    +0.092 A 
ATOM      3  C   LIG A   1     -10.911   7.212 129.050  0.00  0.00    +0.142 A 
ATOM      4  C   LIG A   1     -12.273   7.023 129.285  0.00  0.00    +0.018 A 
ATOM      5  C   LIG A   1     -13.167   7.166 128.223  0.00  0.00    +0.015 A 
ATOM      6  C   LIG A   1     -12.689   7.471 126.946  0.00  0.00    +0.046 A 
ATOM      7  C   LIG A   1     -12.712   6.653 130.620  0.00  0.00    +0.018 A 
ATOM      8  C   LIG A   1     -11.805   6.477 131.586  0.00  0.00    +0.092 A 
ATOM      9  C   LIG A   1     -10.361   6.673 131.362  0.00  0.00    +0.337 A 
ATOM     10  O   LIG A   1      -9.558   6.498 132.269  0.00  0.00    -0.245 OA
ATOM     11  O   LIG A   1      -9.970   7.065 130.089  0.00  0.00    -0.422 OA
ENDROOT
BRANCH   1  12
ATOM     12  O   LIG A   1     -10.907   7.916 125.467  0.00  0.00    -0.507 OA
ATOM     13  H   LIG A   1     -11.155   8.829 125.245  0.00  0.00    +0.292 HD
ENDBRANCH   1  12
TORSDOF 1
ENDMDL
MODEL 4
REMARK VINA RESULT:      -5.9      1.920      4.606
REMARK  Name = NuBBE_665
REMARK  1 active torsions:
REMARK  status: ('A' for Active; 'I' for Inactive)
REMARK    1  A    between atoms: O_1  and  C_2
REMARK                            x       y       z     vdW  Elec       q    Type
REMARK                         _______ _______ _______ _____ _____    ______ ____
ROOT
ATOM      1  C   LIG A   1     -12.446   7.930 129.102  0.00  0.00    +0.120 A 
ATOM      2  C   LIG A   1     -11.067   8.081 129.029  0.00  0.00    +0.092 A 
ATOM      3  C   LIG A   1     -10.282   7.472 130.006  0.00  0.00    +0.142 A 
ATOM      4  C   LIG A   1     -10.844   6.733 131.047  0.00  0.00    +0.018 A 
ATOM      5  C   LIG A   1     -12.233   6.612 131.117  0.00  0.00    +0.015 A 
ATOM      6  C   LIG A   1     -13.034   7.208 130.138  0.00  0.00    +0.046 A 
ATOM      7  C   LIG A   1      -9.964   6.089 132.008  0.00  0.00    +0.018 A 
ATOM      8  C   LIG A   1      -8.640   6.194 131.861  0.00  0.00    +0.092 A 
ATOM      9  C   LIG A   1      -8.023   6.971 130.769  0.00  0.00    +0.337 A 
ATOM     10  O   LIG A   1      -6.806   7.041 130.663  0.00  0.00    -0.245 OA
ATOM     11  O   LIG A   1      -8.884   7.610 129.888  0.00  0.00    -0.422 OA
ENDROOT
BRANCH   1  12
ATOM     12  O   LIG A   1     -13.271   8.470 128.161  0.00  0.00    -0.507 OA
ATOM     13  H   LIG A   1     -12.912   8.274 127.279  0.00  0.00    +0.292 HD
ENDBRANCH   1  12
TORSDOF 1
ENDMDL
MODEL 5
REMARK VINA RESULT:      -5.6      0.876      4.272
REMARK  Name = NuBBE_665
REMARK  1 active torsions:
REMARK  status: ('A' for Active; 'I' for Inactive)
REMARK    1  A    between atoms: O_1  and  C_2
REMARK                            x       y       z     vdW  Elec       q    Type
REMARK                         _______ _______ _______ _____ _____    ______ ____
ROOT
ATOM      1  C   LIG A   1     -12.684   7.595 128.334  0.00  0.00    +0.120 A 
ATOM      2  C   LIG A   1     -12.542   6.765 129.438  0.00  0.00    +0.092 A 
ATOM      3  C   LIG A   1     -11.291   6.683 130.046  0.00  0.00    +0.142 A 
ATOM      4  C   LIG A   1     -10.191   7.396 129.570  0.00  0.00    +0.018 A 
ATOM      5  C   LIG A   1     -10.349   8.208 128.444  0.00  0.00    +0.015 A 
ATOM      6  C   LIG A   1     -11.600   8.310 127.830  0.00  0.00    +0.046 A 
ATOM      7  C   LIG A   1      -8.926   7.297 130.278  0.00  0.00    +0.018 A 
ATOM      8  C   LIG A   1      -8.848   6.547 131.382  0.00  0.00    +0.092 A 
ATOM      9  C   LIG A   1      -9.995   5.782 131.904  0.00  0.00    +0.337 A 
ATOM     10  O   LIG A   1      -9.888   5.110 132.921  0.00  0.00    -0.245 OA
ATOM     11  O   LIG A   1     -11.181   5.862 131.187  0.00  0.00    -0.422 OA
ENDROOT
BRANCH   1  12
ATOM     12  O   LIG A   1     -13.887   7.749 127.711  0.00  0.00    -0.507 OA
ATOM     13  H   LIG A   1     -14.238   6.872 127.484  0.00  0.00    +0.292 HD
ENDBRANCH   1  12
TORSDOF 1
ENDMDL
MODEL 6
REMARK VINA RESULT:      -5.3      1.900      3.074
REMARK  Name = NuBBE_665
REMARK  1 active torsions:
REMARK  status: ('A' for Active; 'I' for Inactive)
REMARK    1  A    between atoms: O_1  and  C_2
REMARK                            x       y       z     vdW  Elec       q    Type
REMARK                         _______ _______ _______ _____ _____    ______ ____
ROOT
ATOM      1  C   LIG A   1      -7.278   5.715 133.228  0.00  0.00    +0.120 A 
ATOM      2  C   LIG A   1      -8.656   5.803 133.381  0.00  0.00    +0.092 A 
ATOM      3  C   LIG A   1      -9.409   6.308 132.324  0.00  0.00    +0.142 A 
ATOM      4  C   LIG A   1      -8.816   6.732 131.134  0.00  0.00    +0.018 A 
ATOM      5  C   LIG A   1      -7.428   6.658 131.007  0.00  0.00    +0.015 A 
ATOM      6  C   LIG A   1      -6.659   6.143 132.055  0.00  0.00    +0.046 A 
ATOM      7  C   LIG A   1      -9.666   7.208 130.055  0.00  0.00    +0.018 A 
ATOM      8  C   LIG A   1     -10.993   7.206 130.213  0.00  0.00    +0.092 A 
ATOM      9  C   LIG A   1     -11.642   6.764 131.461  0.00  0.00    +0.337 A 
ATOM     10  O   LIG A   1     -12.861   6.771 131.568  0.00  0.00    -0.245 OA
ATOM     11  O   LIG A   1     -10.808   6.352 132.491  0.00  0.00    -0.422 OA
ENDROOT
BRANCH   1  12
ATOM     12  O   LIG A   1      -6.485   5.200 134.209  0.00  0.00    -0.507 OA
ATOM     13  H   LIG A   1      -5.704   4.791 133.800  0.00  0.00    +0.292 HD
ENDBRANCH   1  12
TORSDOF 1
ENDMDL
MODEL 7
REMARK VINA RESULT:      -5.3     11.093     12.164
REMARK  Name = NuBBE_665
REMARK  1 active torsions:
REMARK  status: ('A' for Active; 'I' for Inactive)
REMARK    1  A    between atoms: O_1  and  C_2
REMARK                            x       y       z     vdW  Elec       q    Type
REMARK                         _______ _______ _______ _____ _____    ______ ____
ROOT
ATOM      1  C   LIG A   1      -7.155  -2.227 123.708  0.00  0.00    +0.120 A 
ATOM      2  C   LIG A   1      -6.565  -2.034 124.951  0.00  0.00    +0.092 A 
ATOM      3  C   LIG A   1      -7.231  -2.504 126.080  0.00  0.00    +0.142 A 
ATOM      4  C   LIG A   1      -8.467  -3.146 125.993  0.00  0.00    +0.018 A 
ATOM      5  C   LIG A   1      -9.055  -3.311 124.738  0.00  0.00    +0.015 A 
ATOM      6  C   LIG A   1      -8.394  -2.855 123.594  0.00  0.00    +0.046 A 
ATOM      7  C   LIG A   1      -9.086  -3.650 127.207  0.00  0.00    +0.018 A 
ATOM      8  C   LIG A   1      -8.451  -3.512 128.375  0.00  0.00    +0.092 A 
ATOM      9  C   LIG A   1      -7.146  -2.835 128.493  0.00  0.00    +0.337 A 
ATOM     10  O   LIG A   1      -6.591  -2.732 129.579  0.00  0.00    -0.245 OA
ATOM     11  O   LIG A   1      -6.594  -2.327 127.325  0.00  0.00    -0.422 OA
ENDROOT
BRANCH   1  12
ATOM     12  O   LIG A   1      -6.543  -1.822 122.560  0.00  0.00    -0.507 OA
ATOM     13  H   LIG A   1      -6.127  -2.592 122.138  0.00  0.00    +0.292 HD
ENDBRANCH   1  12
TORSDOF 1
ENDMDL
MODEL 8
REMARK VINA RESULT:      -5.2     10.883     11.873
REMARK  Name = NuBBE_665
REMARK  1 active torsions:
REMARK  status: ('A' for Active; 'I' for Inactive)
REMARK    1  A    between atoms: O_1  and  C_2
REMARK                            x       y       z     vdW  Elec       q    Type
REMARK                         _______ _______ _______ _____ _____    ______ ____
ROOT
ATOM      1  C   LIG A   1      -9.140  -3.091 124.183  0.00  0.00    +0.120 A 
ATOM      2  C   LIG A   1      -9.248  -3.131 125.568  0.00  0.00    +0.092 A 
ATOM      3  C   LIG A   1      -8.121  -2.826 126.327  0.00  0.00    +0.142 A 
ATOM      4  C   LIG A   1      -6.900  -2.499 125.737  0.00  0.00    +0.018 A 
ATOM      5  C   LIG A   1      -6.806  -2.487 124.344  0.00  0.00    +0.015 A 
ATOM      6  C   LIG A   1      -7.931  -2.778 123.567  0.00  0.00    +0.046 A 
ATOM      7  C   LIG A   1      -5.776  -2.150 126.589  0.00  0.00    +0.018 A 
ATOM      8  C   LIG A   1      -5.940  -2.126 127.916  0.00  0.00    +0.092 A 
ATOM      9  C   LIG A   1      -7.219  -2.470 128.563  0.00  0.00    +0.337 A 
ATOM     10  O   LIG A   1      -7.333  -2.432 129.781  0.00  0.00    -0.245 OA
ATOM     11  O   LIG A   1      -8.266  -2.838 127.730  0.00  0.00    -0.422 OA
ENDROOT
BRANCH   1  12
ATOM     12  O   LIG A   1     -10.212  -3.345 123.379  0.00  0.00    -0.507 OA
ATOM     13  H   LIG A   1     -10.968  -2.818 123.688  0.00  0.00    +0.292 HD
ENDBRANCH   1  12
TORSDOF 1
ENDMDL
MODEL 9
REMARK VINA RESULT:      -5.0      8.800      9.494
REMARK  Name = NuBBE_665
REMARK  1 active torsions:
REMARK  status: ('A' for Active; 'I' for Inactive)
REMARK    1  A    between atoms: O_1  and  C_2
REMARK                            x       y       z     vdW  Elec       q    Type
REMARK                         _______ _______ _______ _____ _____    ______ ____
ROOT
ATOM      1  C   LIG A   1      -8.459   2.545 124.825  0.00  0.00    +0.120 A 
ATOM      2  C   LIG A   1      -7.230   3.165 124.643  0.00  0.00    +0.092 A 
ATOM      3  C   LIG A   1      -6.833   3.480 123.346  0.00  0.00    +0.142 A 
ATOM      4  C   LIG A   1      -7.628   3.180 122.239  0.00  0.00    +0.018 A 
ATOM      5  C   LIG A   1      -8.850   2.536 122.440  0.00  0.00    +0.015 A 
ATOM      6  C   LIG A   1      -9.268   2.224 123.737  0.00  0.00    +0.046 A 
ATOM      7  C   LIG A   1      -7.172   3.576 120.917  0.00  0.00    +0.018 A 
ATOM      8  C   LIG A   1      -6.019   4.239 120.790  0.00  0.00    +0.092 A 
ATOM      9  C   LIG A   1      -5.160   4.565 121.944  0.00  0.00    +0.337 A 
ATOM     10  O   LIG A   1      -4.113   5.178 121.791  0.00  0.00    -0.245 OA
ATOM     11  O   LIG A   1      -5.598   4.141 123.192  0.00  0.00    -0.422 OA
ENDROOT
BRANCH   1  12
ATOM     12  O   LIG A   1      -8.924   2.239 126.070  0.00  0.00    -0.507 OA
ATOM     13  H   LIG A   1      -8.801   1.288 126.226  0.00  0.00    +0.292 HD
ENDBRANCH   1  12
TORSDOF 1
ENDMDL
