MODEL 1
REMARK VINA RESULT:      -7.5      0.000      0.000
REMARK  Name = NuBBE_224
REMARK  25 active torsions:
REMARK  status: ('A' for Active; 'I' for Inactive)
REMARK    1  A    between atoms: C_1  and  C_2
REMARK    2  A    between atoms: C_4  and  O_6
REMARK    3  A    between atoms: O_6  and  C_7
REMARK    4  A    between atoms: C_7  and  C_8
REMARK    5  A    between atoms: C_8  and  C_9
REMARK    6  A    between atoms: C_9  and  C_10
REMARK    7  A    between atoms: C_10  and  C_11
REMARK    8  A    between atoms: C_11  and  C_12
REMARK    9  A    between atoms: C_12  and  C_13
REMARK   10  A    between atoms: C_13  and  C_14
REMARK   11  A    between atoms: C_14  and  C_15
REMARK   12  A    between atoms: C_15  and  C_16
REMARK   13  A    between atoms: C_18  and  O_20
REMARK   14  A    between atoms: C_23  and  O_25
REMARK   15  A    between atoms: O_25  and  C_26
REMARK   16  A    between atoms: C_26  and  C_27
REMARK   17  A    between atoms: C_29  and  O_31
REMARK   18  A    between atoms: O_31  and  C_32
REMARK   19  A    between atoms: C_32  and  C_33
REMARK   20  A    between atoms: C_36  and  O_38
REMARK   21  A    between atoms: C_42  and  C_43
REMARK   22  A    between atoms: C_42  and  C_44
REMARK   23  A    between atoms: C_44  and  C_45
REMARK   24  A    between atoms: C_46  and  C_47
REMARK   25  A    between atoms: C_46  and  C_49
REMARK                            x       y       z     vdW  Elec       q    Type
REMARK                         _______ _______ _______ _____ _____    ______ ____
ROOT
ATOM      1  C   LIG A   1      -6.881   0.635 125.426  0.00  0.00    +0.012 C 
ATOM      2  C   LIG A   1      -6.169   1.049 126.712  0.00  0.00    +0.036 C 
ATOM      3  C   LIG A   1      -7.034   0.669 127.929  0.00  0.00    +0.209 C 
ATOM      4  C   LIG A   1      -7.811   1.793 128.553  0.00  0.00    +0.172 C 
ATOM      5  C   LIG A   1      -6.955   2.906 129.205  0.00  0.00    +0.091 C 
ATOM      6  C   LIG A   1      -6.628   2.691 130.686  0.00  0.00    -0.001 C 
ATOM      7  C   LIG A   1      -7.942   2.582 131.456  0.00  0.00    +0.282 C 
ATOM      8  O   LIG A   1      -8.793   3.472 130.727  0.00  0.00    -0.308 OA
ATOM      9  C   LIG A   1      -8.025   4.022 129.623  0.00  0.00    +0.326 C 
ATOM     10  C   LIG A   1      -5.457   3.031 131.256  0.00  0.00    +0.009 C 
ATOM     11  C   LIG A   1      -4.201   3.322 130.509  0.00  0.00    +0.138 C 
ATOM     12  C   LIG A   1      -4.361   3.666 128.993  0.00  0.00    +0.040 C 
ATOM     13  C   LIG A   1      -5.717   3.317 128.230  0.00  0.00    +0.017 C 
ATOM     14  C   LIG A   1      -5.597   2.523 126.688  0.00  0.00    -0.019 C 
ATOM     15  C   LIG A   1      -4.147   2.302 126.118  0.00  0.00    +0.012 C 
ENDROOT
BRANCH  11  16
ATOM     16  O   LIG A   1      -3.467   4.367 131.166  0.00  0.00    -0.388 OA
ATOM     17  H   LIG A   1      -2.952   4.878 130.510  0.00  0.00    +0.210 HD
ENDBRANCH  11  16
BRANCH   4  18
ATOM     18  O   LIG A   1      -8.688   2.366 127.564  0.00  0.00    -0.387 OA
ATOM     19  H   LIG A   1      -8.371   3.266 127.365  0.00  0.00    +0.210 HD
ENDBRANCH   4  18
BRANCH   7  20
ATOM     20  O   LIG A   1      -7.769   2.929 132.823  0.00  0.00    -0.348 OA
BRANCH  20  21
ATOM     21  C   LIG A   1      -8.848   3.588 133.477  0.00  0.00    +0.160 C 
ATOM     22  C   LIG A   1      -8.451   4.481 134.641  0.00  0.00    +0.034 C 
ENDBRANCH  20  21
ENDBRANCH   7  20
BRANCH   9  23
ATOM     23  O   LIG A   1      -7.430   5.321 129.859  0.00  0.00    -0.434 OA
BRANCH  23  24
ATOM     24  C   LIG A   1      -7.930   6.164 130.815  0.00  0.00    +0.306 C 
ATOM     25  C   LIG A   1      -6.858   6.417 131.821  0.00  0.00    +0.136 C 
ATOM     26  O   LIG A   1      -9.068   6.608 130.948  0.00  0.00    -0.251 OA
ENDBRANCH  23  24
ENDBRANCH   9  23
BRANCH  14  27
ATOM     27  C   LIG A   1      -6.308   3.506 125.578  0.00  0.00    +0.034 C 
BRANCH  27  28
ATOM     28  C   LIG A   1      -5.646   3.985 124.253  0.00  0.00    -0.023 C 
ATOM     29  C   LIG A   1      -5.910   3.750 122.936  0.00  0.00    -0.055 C 
ATOM     30  C   LIG A   1      -5.083   4.428 121.849  0.00  0.00    +0.043 C 
BRANCH  29  31
ATOM     31  C   LIG A   1      -6.953   2.854 122.436  0.00  0.00    -0.005 C 
ATOM     32  C   LIG A   1      -8.274   3.032 122.618  0.00  0.00    +0.008 C 
ENDBRANCH  29  31
ENDBRANCH  27  28
ENDBRANCH  14  27
BRANCH   3  33
ATOM     33  O   LIG A   1      -6.310  -0.200 128.805  0.00  0.00    -0.458 OA
BRANCH  33  34
ATOM     34  C   LIG A   1      -7.026  -1.203 129.278  0.00  0.00    +0.307 C 
ATOM     35  O   LIG A   1      -7.693  -1.145 130.423  0.00  0.00    -0.251 OA
BRANCH  34  36
ATOM     36  C   LIG A   1      -7.002  -2.459 128.448  0.00  0.00    +0.120 C 
BRANCH  36  37
ATOM     37  C   LIG A   1      -8.233  -3.403 128.661  0.00  0.00    +0.011 C 
BRANCH  37  38
ATOM     38  C   LIG A   1      -8.984  -3.789 127.387  0.00  0.00    +0.000 C 
BRANCH  38  39
ATOM     39  C   LIG A   1      -8.938  -2.667 126.311  0.00  0.00    +0.000 C 
BRANCH  39  40
ATOM     40  C   LIG A   1      -9.119  -3.144 124.842  0.00  0.00    -0.000 C 
BRANCH  40  41
ATOM     41  C   LIG A   1      -7.771  -3.704 124.352  0.00  0.00    -0.000 C 
BRANCH  41  42
ATOM     42  C   LIG A   1      -6.424  -3.018 124.648  0.00  0.00    -0.000 C 
BRANCH  42  43
ATOM     43  C   LIG A   1      -5.334  -2.945 123.577  0.00  0.00    -0.003 C 
ATOM     44  C   LIG A   1      -4.380  -4.118 123.614  0.00  0.00    +0.004 C 
ENDBRANCH  42  43
ENDBRANCH  41  42
ENDBRANCH  40  41
ENDBRANCH  39  40
ENDBRANCH  38  39
ENDBRANCH  37  38
ENDBRANCH  36  37
ENDBRANCH  34  36
ENDBRANCH  33  34
ENDBRANCH   3  33
TORSDOF 19
ENDMDL
MODEL 2
REMARK VINA RESULT:      -7.5      2.259      6.134
REMARK  Name = NuBBE_224
REMARK  25 active torsions:
REMARK  status: ('A' for Active; 'I' for Inactive)
REMARK    1  A    between atoms: C_1  and  C_2
REMARK    2  A    between atoms: C_4  and  O_6
REMARK    3  A    between atoms: O_6  and  C_7
REMARK    4  A    between atoms: C_7  and  C_8
REMARK    5  A    between atoms: C_8  and  C_9
REMARK    6  A    between atoms: C_9  and  C_10
REMARK    7  A    between atoms: C_10  and  C_11
REMARK    8  A    between atoms: C_11  and  C_12
REMARK    9  A    between atoms: C_12  and  C_13
REMARK   10  A    between atoms: C_13  and  C_14
REMARK   11  A    between atoms: C_14  and  C_15
REMARK   12  A    between atoms: C_15  and  C_16
REMARK   13  A    between atoms: C_18  and  O_20
REMARK   14  A    between atoms: C_23  and  O_25
REMARK   15  A    between atoms: O_25  and  C_26
REMARK   16  A    between atoms: C_26  and  C_27
REMARK   17  A    between atoms: C_29  and  O_31
REMARK   18  A    between atoms: O_31  and  C_32
REMARK   19  A    between atoms: C_32  and  C_33
REMARK   20  A    between atoms: C_36  and  O_38
REMARK   21  A    between atoms: C_42  and  C_43
REMARK   22  A    between atoms: C_42  and  C_44
REMARK   23  A    between atoms: C_44  and  C_45
REMARK   24  A    between atoms: C_46  and  C_47
REMARK   25  A    between atoms: C_46  and  C_49
REMARK                            x       y       z     vdW  Elec       q    Type
REMARK                         _______ _______ _______ _____ _____    ______ ____
ROOT
ATOM      1  C   LIG A   1      -4.431   0.015 130.267  0.00  0.00    +0.012 C 
ATOM      2  C   LIG A   1      -5.471   0.862 129.537  0.00  0.00    +0.036 C 
ATOM      3  C   LIG A   1      -5.235   0.775 128.017  0.00  0.00    +0.209 C 
ATOM      4  C   LIG A   1      -4.531   1.950 127.398  0.00  0.00    +0.172 C 
ATOM      5  C   LIG A   1      -5.311   3.286 127.445  0.00  0.00    +0.091 C 
ATOM      6  C   LIG A   1      -6.213   3.555 126.236  0.00  0.00    -0.001 C 
ATOM      7  C   LIG A   1      -5.346   3.548 124.980  0.00  0.00    +0.282 C 
ATOM      8  O   LIG A   1      -4.112   4.092 125.462  0.00  0.00    -0.308 OA
ATOM      9  C   LIG A   1      -4.268   4.362 126.882  0.00  0.00    +0.326 C 
ATOM     10  C   LIG A   1      -7.411   4.165 126.311  0.00  0.00    +0.009 C 
ATOM     11  C   LIG A   1      -8.196   4.345 127.563  0.00  0.00    +0.138 C 
ATOM     12  C   LIG A   1      -7.403   4.205 128.903  0.00  0.00    +0.040 C 
ATOM     13  C   LIG A   1      -5.968   3.511 128.918  0.00  0.00    +0.017 C 
ATOM     14  C   LIG A   1      -5.661   2.311 130.138  0.00  0.00    -0.019 C 
ATOM     15  C   LIG A   1      -6.798   2.078 131.201  0.00  0.00    +0.012 C 
ENDROOT
BRANCH  11  16
ATOM     16  O   LIG A   1      -8.883   5.606 127.538  0.00  0.00    -0.388 OA
ATOM     17  H   LIG A   1      -9.284   5.787 128.412  0.00  0.00    +0.210 HD
ENDBRANCH  11  16
BRANCH   4  18
ATOM     18  O   LIG A   1      -3.245   2.112 128.025  0.00  0.00    -0.387 OA
ATOM     19  H   LIG A   1      -3.324   1.830 128.955  0.00  0.00    +0.210 HD
ENDBRANCH   4  18
BRANCH   7  20
ATOM     20  O   LIG A   1      -5.944   4.302 123.935  0.00  0.00    -0.348 OA
BRANCH  20  21
ATOM     21  C   LIG A   1      -6.059   3.683 122.658  0.00  0.00    +0.160 C 
ATOM     22  C   LIG A   1      -7.359   2.935 122.415  0.00  0.00    +0.034 C 
ENDBRANCH  20  21
ENDBRANCH   7  20
BRANCH   9  23
ATOM     23  O   LIG A   1      -4.615   5.726 127.225  0.00  0.00    -0.434 OA
BRANCH  23  24
ATOM     24  C   LIG A   1      -3.801   6.483 128.025  0.00  0.00    +0.306 C 
ATOM     25  C   LIG A   1      -2.585   5.680 128.346  0.00  0.00    +0.136 C 
ATOM     26  O   LIG A   1      -3.998   7.595 128.511  0.00  0.00    -0.251 OA
ENDBRANCH  23  24
ENDBRANCH   9  23
BRANCH  14  27
ATOM     27  C   LIG A   1      -4.391   2.844 131.036  0.00  0.00    +0.034 C 
BRANCH  27  28
ATOM     28  C   LIG A   1      -4.506   3.709 132.324  0.00  0.00    -0.023 C 
ATOM     29  C   LIG A   1      -4.814   5.019 132.548  0.00  0.00    -0.055 C 
ATOM     30  C   LIG A   1      -4.891   5.561 133.971  0.00  0.00    +0.043 C 
BRANCH  29  31
ATOM     31  C   LIG A   1      -5.078   6.009 131.504  0.00  0.00    -0.005 C 
ATOM     32  C   LIG A   1      -6.224   6.700 131.370  0.00  0.00    +0.008 C 
ENDBRANCH  29  31
ENDBRANCH  27  28
ENDBRANCH  14  27
BRANCH   3  33
ATOM     33  O   LIG A   1      -6.404   0.283 127.356  0.00  0.00    -0.458 OA
BRANCH  33  34
ATOM     34  C   LIG A   1      -6.159  -0.652 126.457  0.00  0.00    +0.307 C 
ATOM     35  O   LIG A   1      -5.607  -1.820 126.754  0.00  0.00    -0.251 OA
BRANCH  34  36
ATOM     36  C   LIG A   1      -6.506  -0.288 125.038  0.00  0.00    +0.120 C 
BRANCH  36  37
ATOM     37  C   LIG A   1      -7.988   0.174 124.830  0.00  0.00    +0.011 C 
BRANCH  37  38
ATOM     38  C   LIG A   1      -8.719  -0.496 123.666  0.00  0.00    +0.000 C 
BRANCH  38  39
ATOM     39  C   LIG A   1      -8.116  -1.884 123.309  0.00  0.00    +0.000 C 
BRANCH  39  40
ATOM     40  C   LIG A   1      -8.977  -3.111 123.723  0.00  0.00    -0.000 C 
BRANCH  40  41
ATOM     41  C   LIG A   1      -8.471  -3.610 125.089  0.00  0.00    -0.000 C 
BRANCH  41  42
ATOM     42  C   LIG A   1      -9.002  -3.064 126.428  0.00  0.00    -0.000 C 
BRANCH  42  43
ATOM     43  C   LIG A   1      -8.866  -3.881 127.713  0.00  0.00    -0.003 C 
ATOM     44  C   LIG A   1      -8.252  -3.102 128.855  0.00  0.00    +0.004 C 
ENDBRANCH  42  43
ENDBRANCH  41  42
ENDBRANCH  40  41
ENDBRANCH  39  40
ENDBRANCH  38  39
ENDBRANCH  37  38
ENDBRANCH  36  37
ENDBRANCH  34  36
ENDBRANCH  33  34
ENDBRANCH   3  33
TORSDOF 19
ENDMDL
MODEL 3
REMARK VINA RESULT:      -7.3      2.167      5.737
REMARK  Name = NuBBE_224
REMARK  25 active torsions:
REMARK  status: ('A' for Active; 'I' for Inactive)
REMARK    1  A    between atoms: C_1  and  C_2
REMARK    2  A    between atoms: C_4  and  O_6
REMARK    3  A    between atoms: O_6  and  C_7
REMARK    4  A    between atoms: C_7  and  C_8
REMARK    5  A    between atoms: C_8  and  C_9
REMARK    6  A    between atoms: C_9  and  C_10
REMARK    7  A    between atoms: C_10  and  C_11
REMARK    8  A    between atoms: C_11  and  C_12
REMARK    9  A    between atoms: C_12  and  C_13
REMARK   10  A    between atoms: C_13  and  C_14
REMARK   11  A    between atoms: C_14  and  C_15
REMARK   12  A    between atoms: C_15  and  C_16
REMARK   13  A    between atoms: C_18  and  O_20
REMARK   14  A    between atoms: C_23  and  O_25
REMARK   15  A    between atoms: O_25  and  C_26
REMARK   16  A    between atoms: C_26  and  C_27
REMARK   17  A    between atoms: C_29  and  O_31
REMARK   18  A    between atoms: O_31  and  C_32
REMARK   19  A    between atoms: C_32  and  C_33
REMARK   20  A    between atoms: C_36  and  O_38
REMARK   21  A    between atoms: C_42  and  C_43
REMARK   22  A    between atoms: C_42  and  C_44
REMARK   23  A    between atoms: C_44  and  C_45
REMARK   24  A    between atoms: C_46  and  C_47
REMARK   25  A    between atoms: C_46  and  C_49
REMARK                            x       y       z     vdW  Elec       q    Type
REMARK                         _______ _______ _______ _____ _____    ______ ____
ROOT
ATOM      1  C   LIG A   1      -4.174   0.153 130.783  0.00  0.00    +0.012 C 
ATOM      2  C   LIG A   1      -5.309   0.969 130.169  0.00  0.00    +0.036 C 
ATOM      3  C   LIG A   1      -5.371   0.712 128.652  0.00  0.00    +0.209 C 
ATOM      4  C   LIG A   1      -4.763   1.777 127.784  0.00  0.00    +0.172 C 
ATOM      5  C   LIG A   1      -5.479   3.149 127.824  0.00  0.00    +0.091 C 
ATOM      6  C   LIG A   1      -6.587   3.335 126.782  0.00  0.00    -0.001 C 
ATOM      7  C   LIG A   1      -5.977   3.152 125.395  0.00  0.00    +0.282 C 
ATOM      8  O   LIG A   1      -4.658   3.679 125.574  0.00  0.00    -0.308 OA
ATOM      9  C   LIG A   1      -4.531   4.106 126.958  0.00  0.00    +0.326 C 
ATOM     10  C   LIG A   1      -7.730   4.009 127.010  0.00  0.00    +0.009 C 
ATOM     11  C   LIG A   1      -8.255   4.360 128.359  0.00  0.00    +0.138 C 
ATOM     12  C   LIG A   1      -7.225   4.322 129.534  0.00  0.00    +0.040 C 
ATOM     13  C   LIG A   1      -5.836   3.561 129.359  0.00  0.00    +0.017 C 
ATOM     14  C   LIG A   1      -5.337   2.482 130.628  0.00  0.00    -0.019 C 
ATOM     15  C   LIG A   1      -6.256   2.421 131.904  0.00  0.00    +0.012 C 
ENDROOT
BRANCH  11  16
ATOM     16  O   LIG A   1      -8.896   5.645 128.320  0.00  0.00    -0.388 OA
ATOM     17  H   LIG A   1      -8.226   6.352 128.228  0.00  0.00    +0.210 HD
ENDBRANCH  11  16
BRANCH   4  18
ATOM     18  O   LIG A   1      -3.376   1.939 128.137  0.00  0.00    -0.387 OA
ATOM     19  H   LIG A   1      -3.191   2.894 128.203  0.00  0.00    +0.210 HD
ENDBRANCH   4  18
BRANCH   7  20
ATOM     20  O   LIG A   1      -6.741   3.820 124.402  0.00  0.00    -0.348 OA
BRANCH  20  21
ATOM     21  C   LIG A   1      -7.575   3.026 123.566  0.00  0.00    +0.160 C 
ATOM     22  C   LIG A   1      -7.010   1.666 123.192  0.00  0.00    +0.034 C 
ENDBRANCH  20  21
ENDBRANCH   7  20
BRANCH   9  23
ATOM     23  O   LIG A   1      -4.766   5.514 127.204  0.00  0.00    -0.434 OA
BRANCH  23  24
ATOM     24  C   LIG A   1      -3.858   6.271 127.896  0.00  0.00    +0.306 C 
ATOM     25  C   LIG A   1      -2.657   5.429 128.166  0.00  0.00    +0.136 C 
ATOM     26  O   LIG A   1      -3.968   7.414 128.335  0.00  0.00    -0.251 OA
ENDBRANCH  23  24
ENDBRANCH   9  23
BRANCH  14  27
ATOM     27  C   LIG A   1      -3.903   3.041 131.206  0.00  0.00    +0.034 C 
BRANCH  27  28
ATOM     28  C   LIG A   1      -3.736   3.946 132.461  0.00  0.00    -0.023 C 
ATOM     29  C   LIG A   1      -3.901   5.282 132.680  0.00  0.00    -0.055 C 
ATOM     30  C   LIG A   1      -3.699   5.866 134.074  0.00  0.00    +0.043 C 
BRANCH  29  31
ATOM     31  C   LIG A   1      -4.257   6.264 131.655  0.00  0.00    -0.005 C 
ATOM     32  C   LIG A   1      -5.499   6.731 131.434  0.00  0.00    +0.008 C 
ENDBRANCH  29  31
ENDBRANCH  27  28
ENDBRANCH  14  27
BRANCH   3  33
ATOM     33  O   LIG A   1      -6.659   0.213 128.280  0.00  0.00    -0.458 OA
BRANCH  33  34
ATOM     34  C   LIG A   1      -6.630  -0.673 127.302  0.00  0.00    +0.307 C 
ATOM     35  O   LIG A   1      -6.640  -0.341 126.019  0.00  0.00    -0.251 OA
BRANCH  34  36
ATOM     36  C   LIG A   1      -6.634  -2.114 127.739  0.00  0.00    +0.120 C 
BRANCH  36  37
ATOM     37  C   LIG A   1      -8.021  -2.634 128.249  0.00  0.00    +0.011 C 
BRANCH  37  38
ATOM     38  C   LIG A   1      -8.679  -3.697 127.368  0.00  0.00    +0.000 C 
BRANCH  38  39
ATOM     39  C   LIG A   1      -9.006  -3.165 125.944  0.00  0.00    +0.000 C 
BRANCH  39  40
ATOM     40  C   LIG A   1      -8.259  -3.874 124.779  0.00  0.00    -0.000 C 
BRANCH  40  41
ATOM     41  C   LIG A   1      -7.718  -2.790 123.829  0.00  0.00    -0.000 C 
BRANCH  41  42
ATOM     42  C   LIG A   1      -6.232  -2.685 123.439  0.00  0.00    -0.000 C 
BRANCH  42  43
ATOM     43  C   LIG A   1      -5.149  -3.320 124.312  0.00  0.00    -0.003 C 
ATOM     44  C   LIG A   1      -4.515  -4.542 123.685  0.00  0.00    +0.004 C 
ENDBRANCH  42  43
ENDBRANCH  41  42
ENDBRANCH  40  41
ENDBRANCH  39  40
ENDBRANCH  38  39
ENDBRANCH  37  38
ENDBRANCH  36  37
ENDBRANCH  34  36
ENDBRANCH  33  34
ENDBRANCH   3  33
TORSDOF 19
ENDMDL
MODEL 4
REMARK VINA RESULT:      -7.3      2.989      8.500
REMARK  Name = NuBBE_224
REMARK  25 active torsions:
REMARK  status: ('A' for Active; 'I' for Inactive)
REMARK    1  A    between atoms: C_1  and  C_2
REMARK    2  A    between atoms: C_4  and  O_6
REMARK    3  A    between atoms: O_6  and  C_7
REMARK    4  A    between atoms: C_7  and  C_8
REMARK    5  A    between atoms: C_8  and  C_9
REMARK    6  A    between atoms: C_9  and  C_10
REMARK    7  A    between atoms: C_10  and  C_11
REMARK    8  A    between atoms: C_11  and  C_12
REMARK    9  A    between atoms: C_12  and  C_13
REMARK   10  A    between atoms: C_13  and  C_14
REMARK   11  A    between atoms: C_14  and  C_15
REMARK   12  A    between atoms: C_15  and  C_16
REMARK   13  A    between atoms: C_18  and  O_20
REMARK   14  A    between atoms: C_23  and  O_25
REMARK   15  A    between atoms: O_25  and  C_26
REMARK   16  A    between atoms: C_26  and  C_27
REMARK   17  A    between atoms: C_29  and  O_31
REMARK   18  A    between atoms: O_31  and  C_32
REMARK   19  A    between atoms: C_32  and  C_33
REMARK   20  A    between atoms: C_36  and  O_38
REMARK   21  A    between atoms: C_42  and  C_43
REMARK   22  A    between atoms: C_42  and  C_44
REMARK   23  A    between atoms: C_44  and  C_45
REMARK   24  A    between atoms: C_46  and  C_47
REMARK   25  A    between atoms: C_46  and  C_49
REMARK                            x       y       z     vdW  Elec       q    Type
REMARK                         _______ _______ _______ _____ _____    ______ ____
ROOT
ATOM      1  C   LIG A   1      -9.169   2.138 130.673  0.00  0.00    +0.012 C 
ATOM      2  C   LIG A   1      -7.875   2.571 129.988  0.00  0.00    +0.036 C 
ATOM      3  C   LIG A   1      -8.201   3.518 128.818  0.00  0.00    +0.209 C 
ATOM      4  C   LIG A   1      -8.167   2.899 127.449  0.00  0.00    +0.172 C 
ATOM      5  C   LIG A   1      -6.776   2.408 126.981  0.00  0.00    +0.091 C 
ATOM      6  C   LIG A   1      -5.943   3.445 126.219  0.00  0.00    -0.001 C 
ATOM      7  C   LIG A   1      -6.734   3.887 124.991  0.00  0.00    +0.282 C 
ATOM      8  O   LIG A   1      -7.431   2.689 124.634  0.00  0.00    -0.308 OA
ATOM      9  C   LIG A   1      -7.075   1.661 125.597  0.00  0.00    +0.326 C 
ATOM     10  C   LIG A   1      -4.606   3.561 126.326  0.00  0.00    +0.009 C 
ATOM     11  C   LIG A   1      -3.786   2.979 127.425  0.00  0.00    +0.138 C 
ATOM     12  C   LIG A   1      -4.450   1.827 128.247  0.00  0.00    +0.040 C 
ATOM     13  C   LIG A   1      -6.026   1.596 128.177  0.00  0.00    +0.017 C 
ATOM     14  C   LIG A   1      -6.881   1.382 129.676  0.00  0.00    -0.019 C 
ATOM     15  C   LIG A   1      -6.009   1.332 130.985  0.00  0.00    +0.012 C 
ENDROOT
BRANCH  11  16
ATOM     16  O   LIG A   1      -2.518   2.539 126.915  0.00  0.00    -0.388 OA
ATOM     17  H   LIG A   1      -1.792   3.013 127.366  0.00  0.00    +0.210 HD
ENDBRANCH  11  16
BRANCH   4  18
ATOM     18  O   LIG A   1      -9.112   1.813 127.399  0.00  0.00    -0.387 OA
ATOM     19  H   LIG A   1      -9.180   1.515 126.474  0.00  0.00    +0.210 HD
ENDBRANCH   4  18
BRANCH   7  20
ATOM     20  O   LIG A   1      -5.875   4.387 123.976  0.00  0.00    -0.348 OA
BRANCH  20  21
ATOM     21  C   LIG A   1      -5.974   3.802 122.682  0.00  0.00    +0.160 C 
ATOM     22  C   LIG A   1      -5.017   4.363 121.643  0.00  0.00    +0.034 C 
ENDBRANCH  20  21
ENDBRANCH   7  20
BRANCH   9  23
ATOM     23  O   LIG A   1      -6.012   0.764 125.192  0.00  0.00    -0.434 OA
BRANCH  23  24
ATOM     24  C   LIG A   1      -6.272  -0.541 124.870  0.00  0.00    +0.306 C 
ATOM     25  C   LIG A   1      -6.113  -1.367 126.102  0.00  0.00    +0.136 C 
ATOM     26  O   LIG A   1      -6.511  -1.043 123.774  0.00  0.00    -0.251 OA
ENDBRANCH  23  24
ENDBRANCH   9  23
BRANCH  14  27
ATOM     27  C   LIG A   1      -7.592  -0.099 129.624  0.00  0.00    +0.034 C 
BRANCH  27  28
ATOM     28  C   LIG A   1      -7.412  -1.217 130.692  0.00  0.00    -0.023 C 
ATOM     29  C   LIG A   1      -7.316  -2.575 130.618  0.00  0.00    -0.055 C 
ATOM     30  C   LIG A   1      -7.089  -3.403 131.878  0.00  0.00    +0.043 C 
BRANCH  29  31
ATOM     31  C   LIG A   1      -7.430  -3.360 129.388  0.00  0.00    -0.005 C 
ATOM     32  C   LIG A   1      -8.562  -3.518 128.677  0.00  0.00    +0.008 C 
ENDBRANCH  29  31
ENDBRANCH  27  28
ENDBRANCH  14  27
BRANCH   3  33
ATOM     33  O   LIG A   1      -7.538   4.774 128.991  0.00  0.00    -0.458 OA
BRANCH  33  34
ATOM     34  C   LIG A   1      -8.082   5.546 129.914  0.00  0.00    +0.307 C 
ATOM     35  O   LIG A   1      -7.424   5.979 130.980  0.00  0.00    -0.251 OA
BRANCH  34  36
ATOM     36  C   LIG A   1      -9.537   5.871 129.705  0.00  0.00    +0.120 C 
BRANCH  36  37
ATOM     37  C   LIG A   1     -10.108   6.950 130.686  0.00  0.00    +0.011 C 
BRANCH  37  38
ATOM     38  C   LIG A   1     -11.464   6.610 131.307  0.00  0.00    +0.000 C 
BRANCH  38  39
ATOM     39  C   LIG A   1     -12.652   7.007 130.386  0.00  0.00    +0.000 C 
BRANCH  39  40
ATOM     40  C   LIG A   1     -12.809   8.531 130.118  0.00  0.00    -0.000 C 
BRANCH  40  41
ATOM     41  C   LIG A   1     -12.921   8.739 128.597  0.00  0.00    -0.000 C 
BRANCH  41  42
ATOM     42  C   LIG A   1     -13.383   7.631 127.633  0.00  0.00    -0.000 C 
BRANCH  42  43
ATOM     43  C   LIG A   1     -12.413   7.025 126.618  0.00  0.00    -0.003 C 
ATOM     44  C   LIG A   1     -11.024   7.620 126.690  0.00  0.00    +0.004 C 
ENDBRANCH  42  43
ENDBRANCH  41  42
ENDBRANCH  40  41
ENDBRANCH  39  40
ENDBRANCH  38  39
ENDBRANCH  37  38
ENDBRANCH  36  37
ENDBRANCH  34  36
ENDBRANCH  33  34
ENDBRANCH   3  33
TORSDOF 19
ENDMDL
MODEL 5
REMARK VINA RESULT:      -7.3      2.690      7.979
REMARK  Name = NuBBE_224
REMARK  25 active torsions:
REMARK  status: ('A' for Active; 'I' for Inactive)
REMARK    1  A    between atoms: C_1  and  C_2
REMARK    2  A    between atoms: C_4  and  O_6
REMARK    3  A    between atoms: O_6  and  C_7
REMARK    4  A    between atoms: C_7  and  C_8
REMARK    5  A    between atoms: C_8  and  C_9
REMARK    6  A    between atoms: C_9  and  C_10
REMARK    7  A    between atoms: C_10  and  C_11
REMARK    8  A    between atoms: C_11  and  C_12
REMARK    9  A    between atoms: C_12  and  C_13
REMARK   10  A    between atoms: C_13  and  C_14
REMARK   11  A    between atoms: C_14  and  C_15
REMARK   12  A    between atoms: C_15  and  C_16
REMARK   13  A    between atoms: C_18  and  O_20
REMARK   14  A    between atoms: C_23  and  O_25
REMARK   15  A    between atoms: O_25  and  C_26
REMARK   16  A    between atoms: C_26  and  C_27
REMARK   17  A    between atoms: C_29  and  O_31
REMARK   18  A    between atoms: O_31  and  C_32
REMARK   19  A    between atoms: C_32  and  C_33
REMARK   20  A    between atoms: C_36  and  O_38
REMARK   21  A    between atoms: C_42  and  C_43
REMARK   22  A    between atoms: C_42  and  C_44
REMARK   23  A    between atoms: C_44  and  C_45
REMARK   24  A    between atoms: C_46  and  C_47
REMARK   25  A    between atoms: C_46  and  C_49
REMARK                            x       y       z     vdW  Elec       q    Type
REMARK                         _______ _______ _______ _____ _____    ______ ____
ROOT
ATOM      1  C   LIG A   1      -4.870   4.611 127.283  0.00  0.00    +0.012 C 
ATOM      2  C   LIG A   1      -6.180   3.949 126.862  0.00  0.00    +0.036 C 
ATOM      3  C   LIG A   1      -6.424   2.693 127.720  0.00  0.00    +0.209 C 
ATOM      4  C   LIG A   1      -6.095   1.381 127.066  0.00  0.00    +0.172 C 
ATOM      5  C   LIG A   1      -6.974   1.013 125.846  0.00  0.00    +0.091 C 
ATOM      6  C   LIG A   1      -8.235   0.207 126.172  0.00  0.00    -0.001 C 
ATOM      7  C   LIG A   1      -7.812  -1.085 126.866  0.00  0.00    +0.282 C 
ATOM      8  O   LIG A   1      -6.563  -1.374 126.229  0.00  0.00    -0.308 OA
ATOM      9  C   LIG A   1      -6.296  -0.317 125.268  0.00  0.00    +0.326 C 
ATOM     10  C   LIG A   1      -9.412   0.360 125.537  0.00  0.00    +0.009 C 
ATOM     11  C   LIG A   1      -9.780   1.536 124.701  0.00  0.00    +0.138 C 
ATOM     12  C   LIG A   1      -8.596   2.420 124.190  0.00  0.00    +0.040 C 
ATOM     13  C   LIG A   1      -7.158   2.302 124.866  0.00  0.00    +0.017 C 
ATOM     14  C   LIG A   1      -6.343   3.775 125.299  0.00  0.00    -0.019 C 
ATOM     15  C   LIG A   1      -7.052   5.120 124.892  0.00  0.00    +0.012 C 
ENDROOT
BRANCH  11  16
ATOM     16  O   LIG A   1     -10.585   1.117 123.587  0.00  0.00    -0.388 OA
ATOM     17  H   LIG A   1     -11.077   0.304 123.816  0.00  0.00    +0.210 HD
ENDBRANCH  11  16
BRANCH   4  18
ATOM     18  O   LIG A   1      -4.706   1.379 126.686  0.00  0.00    -0.387 OA
ATOM     19  H   LIG A   1      -4.280   2.155 127.095  0.00  0.00    +0.210 HD
ENDBRANCH   4  18
BRANCH   7  20
ATOM     20  O   LIG A   1      -8.793  -2.100 126.712  0.00  0.00    -0.348 OA
BRANCH  20  21
ATOM     21  C   LIG A   1      -8.565  -3.344 127.365  0.00  0.00    +0.160 C 
ATOM     22  C   LIG A   1      -8.258  -3.248 128.850  0.00  0.00    +0.034 C 
ENDBRANCH  20  21
ENDBRANCH   7  20
BRANCH   9  23
ATOM     23  O   LIG A   1      -6.678  -0.603 123.901  0.00  0.00    -0.434 OA
BRANCH  23  24
ATOM     24  C   LIG A   1      -6.620  -1.878 123.402  0.00  0.00    +0.306 C 
ATOM     25  C   LIG A   1      -8.016  -2.359 123.189  0.00  0.00    +0.136 C 
ATOM     26  O   LIG A   1      -5.645  -2.602 123.219  0.00  0.00    -0.251 OA
ENDBRANCH  23  24
ENDBRANCH   9  23
BRANCH  14  27
ATOM     27  C   LIG A   1      -4.927   3.813 124.463  0.00  0.00    +0.034 C 
BRANCH  27  28
ATOM     28  C   LIG A   1      -4.706   4.551 123.111  0.00  0.00    -0.023 C 
ATOM     29  C   LIG A   1      -5.236   4.398 121.863  0.00  0.00    -0.055 C 
ATOM     30  C   LIG A   1      -4.834   5.340 120.734  0.00  0.00    +0.043 C 
BRANCH  29  31
ATOM     31  C   LIG A   1      -6.190   3.358 121.478  0.00  0.00    -0.005 C 
ATOM     32  C   LIG A   1      -7.433   3.586 121.016  0.00  0.00    +0.008 C 
ENDBRANCH  29  31
ENDBRANCH  27  28
ENDBRANCH  14  27
BRANCH   3  33
ATOM     33  O   LIG A   1      -7.675   2.792 128.408  0.00  0.00    -0.458 OA
BRANCH  33  34
ATOM     34  C   LIG A   1      -8.050   4.032 128.665  0.00  0.00    +0.307 C 
ATOM     35  O   LIG A   1      -8.669   4.803 127.782  0.00  0.00    -0.251 OA
BRANCH  34  36
ATOM     36  C   LIG A   1      -7.682   4.544 130.032  0.00  0.00    +0.120 C 
BRANCH  36  37
ATOM     37  C   LIG A   1      -8.901   4.781 130.986  0.00  0.00    +0.011 C 
BRANCH  37  38
ATOM     38  C   LIG A   1      -9.272   6.247 131.213  0.00  0.00    +0.000 C 
BRANCH  38  39
ATOM     39  C   LIG A   1     -10.656   6.406 131.905  0.00  0.00    +0.000 C 
BRANCH  39  40
ATOM     40  C   LIG A   1     -11.891   6.174 130.989  0.00  0.00    -0.000 C 
BRANCH  40  41
ATOM     41  C   LIG A   1     -12.683   7.492 130.913  0.00  0.00    -0.000 C 
BRANCH  41  42
ATOM     42  C   LIG A   1     -12.468   8.535 129.801  0.00  0.00    -0.000 C 
BRANCH  42  43
ATOM     43  C   LIG A   1     -11.952   8.113 128.424  0.00  0.00    -0.003 C 
ATOM     44  C   LIG A   1     -10.482   8.404 128.222  0.00  0.00    +0.004 C 
ENDBRANCH  42  43
ENDBRANCH  41  42
ENDBRANCH  40  41
ENDBRANCH  39  40
ENDBRANCH  38  39
ENDBRANCH  37  38
ENDBRANCH  36  37
ENDBRANCH  34  36
ENDBRANCH  33  34
ENDBRANCH   3  33
TORSDOF 19
ENDMDL
MODEL 6
REMARK VINA RESULT:      -7.1      2.228      4.641
REMARK  Name = NuBBE_224
REMARK  25 active torsions:
REMARK  status: ('A' for Active; 'I' for Inactive)
REMARK    1  A    between atoms: C_1  and  C_2
REMARK    2  A    between atoms: C_4  and  O_6
REMARK    3  A    between atoms: O_6  and  C_7
REMARK    4  A    between atoms: C_7  and  C_8
REMARK    5  A    between atoms: C_8  and  C_9
REMARK    6  A    between atoms: C_9  and  C_10
REMARK    7  A    between atoms: C_10  and  C_11
REMARK    8  A    between atoms: C_11  and  C_12
REMARK    9  A    between atoms: C_12  and  C_13
REMARK   10  A    between atoms: C_13  and  C_14
REMARK   11  A    between atoms: C_14  and  C_15
REMARK   12  A    between atoms: C_15  and  C_16
REMARK   13  A    between atoms: C_18  and  O_20
REMARK   14  A    between atoms: C_23  and  O_25
REMARK   15  A    between atoms: O_25  and  C_26
REMARK   16  A    between atoms: C_26  and  C_27
REMARK   17  A    between atoms: C_29  and  O_31
REMARK   18  A    between atoms: O_31  and  C_32
REMARK   19  A    between atoms: C_32  and  C_33
REMARK   20  A    between atoms: C_36  and  O_38
REMARK   21  A    between atoms: C_42  and  C_43
REMARK   22  A    between atoms: C_42  and  C_44
REMARK   23  A    between atoms: C_44  and  C_45
REMARK   24  A    between atoms: C_46  and  C_47
REMARK   25  A    between atoms: C_46  and  C_49
REMARK                            x       y       z     vdW  Elec       q    Type
REMARK                         _______ _______ _______ _____ _____    ______ ____
ROOT
ATOM      1  C   LIG A   1      -5.162   2.204 125.814  0.00  0.00    +0.012 C 
ATOM      2  C   LIG A   1      -6.232   1.936 126.871  0.00  0.00    +0.036 C 
ATOM      3  C   LIG A   1      -7.330   3.011 126.779  0.00  0.00    +0.209 C 
ATOM      4  C   LIG A   1      -7.259   4.107 127.805  0.00  0.00    +0.172 C 
ATOM      5  C   LIG A   1      -7.486   3.656 129.268  0.00  0.00    +0.091 C 
ATOM      6  C   LIG A   1      -8.941   3.697 129.744  0.00  0.00    -0.001 C 
ATOM      7  C   LIG A   1      -9.453   5.128 129.597  0.00  0.00    +0.282 C 
ATOM      8  O   LIG A   1      -8.277   5.898 129.870  0.00  0.00    -0.308 OA
ATOM      9  C   LIG A   1      -7.187   4.973 130.129  0.00  0.00    +0.326 C 
ATOM     10  C   LIG A   1      -9.487   2.793 130.579  0.00  0.00    +0.009 C 
ATOM     11  C   LIG A   1      -8.907   1.455 130.879  0.00  0.00    +0.138 C 
ATOM     12  C   LIG A   1      -7.390   1.268 130.548  0.00  0.00    +0.040 C 
ATOM     13  C   LIG A   1      -6.648   2.295 129.582  0.00  0.00    +0.017 C 
ATOM     14  C   LIG A   1      -5.656   1.640 128.313  0.00  0.00    -0.019 C 
ATOM     15  C   LIG A   1      -5.488   0.075 128.284  0.00  0.00    +0.012 C 
ENDROOT
BRANCH  11  16
ATOM     16  O   LIG A   1      -9.147   1.109 132.252  0.00  0.00    -0.388 OA
ATOM     17  H   LIG A   1      -8.339   0.729 132.649  0.00  0.00    +0.210 HD
ENDBRANCH  11  16
BRANCH   4  18
ATOM     18  O   LIG A   1      -5.990   4.777 127.690  0.00  0.00    -0.387 OA
ATOM     19  H   LIG A   1      -5.332   4.128 127.382  0.00  0.00    +0.210 HD
ENDBRANCH   4  18
BRANCH   7  20
ATOM     20  O   LIG A   1     -10.534   5.383 130.482  0.00  0.00    -0.348 OA
BRANCH  20  21
ATOM     21  C   LIG A   1     -10.875   6.742 130.733  0.00  0.00    +0.160 C 
ATOM     22  C   LIG A   1     -12.260   6.965 131.317  0.00  0.00    +0.034 C 
ENDBRANCH  20  21
ENDBRANCH   7  20
BRANCH   9  23
ATOM     23  O   LIG A   1      -6.921   4.693 131.525  0.00  0.00    -0.434 OA
BRANCH  23  24
ATOM     24  C   LIG A   1      -7.101   5.653 132.486  0.00  0.00    +0.306 C 
ATOM     25  C   LIG A   1      -5.758   6.071 132.983  0.00  0.00    +0.136 C 
ATOM     26  O   LIG A   1      -8.143   6.084 132.974  0.00  0.00    -0.251 OA
ENDBRANCH  23  24
ENDBRANCH   9  23
BRANCH  14  27
ATOM     27  C   LIG A   1      -4.126   2.191 128.557  0.00  0.00    +0.034 C 
BRANCH  27  28
ATOM     28  C   LIG A   1      -3.707   3.210 129.656  0.00  0.00    -0.023 C 
ATOM     29  C   LIG A   1      -3.102   4.432 129.618  0.00  0.00    -0.055 C 
ATOM     30  C   LIG A   1      -2.869   5.218 130.904  0.00  0.00    +0.043 C 
BRANCH  29  31
ATOM     31  C   LIG A   1      -2.618   5.092 128.406  0.00  0.00    -0.005 C 
ATOM     32  C   LIG A   1      -2.453   6.420 128.265  0.00  0.00    +0.008 C 
ENDBRANCH  29  31
ENDBRANCH  27  28
ENDBRANCH  14  27
BRANCH   3  33
ATOM     33  O   LIG A   1      -8.606   2.406 126.548  0.00  0.00    -0.458 OA
BRANCH  33  34
ATOM     34  C   LIG A   1      -8.788   1.994 125.307  0.00  0.00    +0.307 C 
ATOM     35  O   LIG A   1      -8.518   2.742 124.246  0.00  0.00    -0.251 OA
BRANCH  34  36
ATOM     36  C   LIG A   1      -9.378   0.616 125.165  0.00  0.00    +0.120 C 
BRANCH  36  37
ATOM     37  C   LIG A   1      -8.753  -0.458 126.118  0.00  0.00    +0.011 C 
BRANCH  37  38
ATOM     38  C   LIG A   1      -7.636  -1.301 125.502  0.00  0.00    +0.000 C 
BRANCH  38  39
ATOM     39  C   LIG A   1      -7.615  -2.753 126.058  0.00  0.00    +0.000 C 
BRANCH  39  40
ATOM     40  C   LIG A   1      -9.004  -3.344 126.431  0.00  0.00    -0.000 C 
BRANCH  40  41
ATOM     41  C   LIG A   1      -8.933  -3.848 127.884  0.00  0.00    -0.000 C 
BRANCH  41  42
ATOM     42  C   LIG A   1      -7.809  -3.443 128.856  0.00  0.00    -0.000 C 
BRANCH  42  43
ATOM     43  C   LIG A   1      -8.009  -2.296 129.848  0.00  0.00    -0.003 C 
ATOM     44  C   LIG A   1      -7.374  -2.555 131.196  0.00  0.00    +0.004 C 
ENDBRANCH  42  43
ENDBRANCH  41  42
ENDBRANCH  40  41
ENDBRANCH  39  40
ENDBRANCH  38  39
ENDBRANCH  37  38
ENDBRANCH  36  37
ENDBRANCH  34  36
ENDBRANCH  33  34
ENDBRANCH   3  33
TORSDOF 19
ENDMDL
MODEL 7
REMARK VINA RESULT:      -7.1      2.344      4.158
REMARK  Name = NuBBE_224
REMARK  25 active torsions:
REMARK  status: ('A' for Active; 'I' for Inactive)
REMARK    1  A    between atoms: C_1  and  C_2
REMARK    2  A    between atoms: C_4  and  O_6
REMARK    3  A    between atoms: O_6  and  C_7
REMARK    4  A    between atoms: C_7  and  C_8
REMARK    5  A    between atoms: C_8  and  C_9
REMARK    6  A    between atoms: C_9  and  C_10
REMARK    7  A    between atoms: C_10  and  C_11
REMARK    8  A    between atoms: C_11  and  C_12
REMARK    9  A    between atoms: C_12  and  C_13
REMARK   10  A    between atoms: C_13  and  C_14
REMARK   11  A    between atoms: C_14  and  C_15
REMARK   12  A    between atoms: C_15  and  C_16
REMARK   13  A    between atoms: C_18  and  O_20
REMARK   14  A    between atoms: C_23  and  O_25
REMARK   15  A    between atoms: O_25  and  C_26
REMARK   16  A    between atoms: C_26  and  C_27
REMARK   17  A    between atoms: C_29  and  O_31
REMARK   18  A    between atoms: O_31  and  C_32
REMARK   19  A    between atoms: C_32  and  C_33
REMARK   20  A    between atoms: C_36  and  O_38
REMARK   21  A    between atoms: C_42  and  C_43
REMARK   22  A    between atoms: C_42  and  C_44
REMARK   23  A    between atoms: C_44  and  C_45
REMARK   24  A    between atoms: C_46  and  C_47
REMARK   25  A    between atoms: C_46  and  C_49
REMARK                            x       y       z     vdW  Elec       q    Type
REMARK                         _______ _______ _______ _____ _____    ______ ____
ROOT
ATOM      1  C   LIG A   1      -5.675   1.047 125.959  0.00  0.00    +0.012 C 
ATOM      2  C   LIG A   1      -6.618   1.058 127.159  0.00  0.00    +0.036 C 
ATOM      3  C   LIG A   1      -7.705   2.130 126.955  0.00  0.00    +0.209 C 
ATOM      4  C   LIG A   1      -7.498   3.419 127.700  0.00  0.00    +0.172 C 
ATOM      5  C   LIG A   1      -7.559   3.306 129.243  0.00  0.00    +0.091 C 
ATOM      6  C   LIG A   1      -8.949   3.507 129.855  0.00  0.00    -0.001 C 
ATOM      7  C   LIG A   1      -9.453   4.891 129.455  0.00  0.00    +0.282 C 
ATOM      8  O   LIG A   1      -8.243   5.655 129.420  0.00  0.00    -0.308 OA
ATOM      9  C   LIG A   1      -7.143   4.765 129.754  0.00  0.00    +0.326 C 
ATOM     10  C   LIG A   1      -9.407   2.828 130.924  0.00  0.00    +0.009 C 
ATOM     11  C   LIG A   1      -8.816   1.565 131.445  0.00  0.00    +0.138 C 
ATOM     12  C   LIG A   1      -7.351   1.250 130.999  0.00  0.00    +0.040 C 
ATOM     13  C   LIG A   1      -6.711   2.012 129.754  0.00  0.00    +0.017 C 
ATOM     14  C   LIG A   1      -5.883   1.059 128.559  0.00  0.00    -0.019 C 
ATOM     15  C   LIG A   1      -5.743  -0.480 128.857  0.00  0.00    +0.012 C 
ENDROOT
BRANCH  11  16
ATOM     16  O   LIG A   1      -8.900   1.536 132.879  0.00  0.00    -0.388 OA
ATOM     17  H   LIG A   1      -8.003   1.541 133.268  0.00  0.00    +0.210 HD
ENDBRANCH  11  16
BRANCH   4  18
ATOM     18  O   LIG A   1      -6.241   3.997 127.302  0.00  0.00    -0.387 OA
ATOM     19  H   LIG A   1      -5.900   3.487 126.545  0.00  0.00    +0.210 HD
ENDBRANCH   4  18
BRANCH   7  20
ATOM     20  O   LIG A   1     -10.420   5.375 130.375  0.00  0.00    -0.348 OA
BRANCH  20  21
ATOM     21  C   LIG A   1     -11.360   6.334 129.902  0.00  0.00    +0.160 C 
ATOM     22  C   LIG A   1     -12.307   6.886 130.955  0.00  0.00    +0.034 C 
ENDBRANCH  20  21
ENDBRANCH   7  20
BRANCH   9  23
ATOM     23  O   LIG A   1      -6.721   4.784 131.140  0.00  0.00    -0.434 OA
BRANCH  23  24
ATOM     24  C   LIG A   1      -5.503   5.296 131.501  0.00  0.00    +0.306 C 
ATOM     25  C   LIG A   1      -5.488   6.748 131.159  0.00  0.00    +0.136 C 
ATOM     26  O   LIG A   1      -4.514   4.719 131.946  0.00  0.00    -0.251 OA
ENDBRANCH  23  24
ENDBRANCH   9  23
BRANCH  14  27
ATOM     27  C   LIG A   1      -4.327   1.589 128.505  0.00  0.00    +0.034 C 
BRANCH  27  28
ATOM     28  C   LIG A   1      -3.855   3.019 128.896  0.00  0.00    -0.023 C 
ATOM     29  C   LIG A   1      -3.119   3.971 128.253  0.00  0.00    -0.055 C 
ATOM     30  C   LIG A   1      -2.867   5.324 128.908  0.00  0.00    +0.043 C 
BRANCH  29  31
ATOM     31  C   LIG A   1      -2.505   3.809 126.935  0.00  0.00    -0.005 C 
ATOM     32  C   LIG A   1      -1.507   2.953 126.650  0.00  0.00    +0.008 C 
ENDBRANCH  29  31
ENDBRANCH  27  28
ENDBRANCH  14  27
BRANCH   3  33
ATOM     33  O   LIG A   1      -9.007   1.540 127.005  0.00  0.00    -0.458 OA
BRANCH  33  34
ATOM     34  C   LIG A   1      -9.393   0.992 125.868  0.00  0.00    +0.307 C 
ATOM     35  O   LIG A   1     -10.034  -0.166 125.799  0.00  0.00    -0.251 OA
BRANCH  34  36
ATOM     36  C   LIG A   1      -9.011   1.752 124.625  0.00  0.00    +0.120 C 
BRANCH  36  37
ATOM     37  C   LIG A   1      -8.978   0.888 123.320  0.00  0.00    +0.011 C 
BRANCH  37  38
ATOM     38  C   LIG A   1      -7.900  -0.196 123.287  0.00  0.00    +0.000 C 
BRANCH  38  39
ATOM     39  C   LIG A   1      -8.471  -1.587 122.890  0.00  0.00    +0.000 C 
BRANCH  39  40
ATOM     40  C   LIG A   1      -7.988  -2.781 123.762  0.00  0.00    -0.000 C 
BRANCH  40  41
ATOM     41  C   LIG A   1      -6.898  -2.263 124.718  0.00  0.00    -0.000 C 
BRANCH  41  42
ATOM     42  C   LIG A   1      -5.468  -2.835 124.744  0.00  0.00    -0.000 C 
BRANCH  42  43
ATOM     43  C   LIG A   1      -4.781  -3.280 123.452  0.00  0.00    -0.003 C 
ATOM     44  C   LIG A   1      -4.277  -4.705 123.504  0.00  0.00    +0.004 C 
ENDBRANCH  42  43
ENDBRANCH  41  42
ENDBRANCH  40  41
ENDBRANCH  39  40
ENDBRANCH  38  39
ENDBRANCH  37  38
ENDBRANCH  36  37
ENDBRANCH  34  36
ENDBRANCH  33  34
ENDBRANCH   3  33
TORSDOF 19
ENDMDL
MODEL 8
REMARK VINA RESULT:      -7.0      2.314      5.394
REMARK  Name = NuBBE_224
REMARK  25 active torsions:
REMARK  status: ('A' for Active; 'I' for Inactive)
REMARK    1  A    between atoms: C_1  and  C_2
REMARK    2  A    between atoms: C_4  and  O_6
REMARK    3  A    between atoms: O_6  and  C_7
REMARK    4  A    between atoms: C_7  and  C_8
REMARK    5  A    between atoms: C_8  and  C_9
REMARK    6  A    between atoms: C_9  and  C_10
REMARK    7  A    between atoms: C_10  and  C_11
REMARK    8  A    between atoms: C_11  and  C_12
REMARK    9  A    between atoms: C_12  and  C_13
REMARK   10  A    between atoms: C_13  and  C_14
REMARK   11  A    between atoms: C_14  and  C_15
REMARK   12  A    between atoms: C_15  and  C_16
REMARK   13  A    between atoms: C_18  and  O_20
REMARK   14  A    between atoms: C_23  and  O_25
REMARK   15  A    between atoms: O_25  and  C_26
REMARK   16  A    between atoms: C_26  and  C_27
REMARK   17  A    between atoms: C_29  and  O_31
REMARK   18  A    between atoms: O_31  and  C_32
REMARK   19  A    between atoms: C_32  and  C_33
REMARK   20  A    between atoms: C_36  and  O_38
REMARK   21  A    between atoms: C_42  and  C_43
REMARK   22  A    between atoms: C_42  and  C_44
REMARK   23  A    between atoms: C_44  and  C_45
REMARK   24  A    between atoms: C_46  and  C_47
REMARK   25  A    between atoms: C_46  and  C_49
REMARK                            x       y       z     vdW  Elec       q    Type
REMARK                         _______ _______ _______ _____ _____    ______ ____
ROOT
ATOM      1  C   LIG A   1      -6.007  -0.495 126.757  0.00  0.00    +0.012 C 
ATOM      2  C   LIG A   1      -7.075   0.033 127.712  0.00  0.00    +0.036 C 
ATOM      3  C   LIG A   1      -7.627   1.370 127.184  0.00  0.00    +0.209 C 
ATOM      4  C   LIG A   1      -7.089   2.606 127.848  0.00  0.00    +0.172 C 
ATOM      5  C   LIG A   1      -7.461   2.767 129.342  0.00  0.00    +0.091 C 
ATOM      6  C   LIG A   1      -8.759   3.535 129.610  0.00  0.00    -0.001 C 
ATOM      7  C   LIG A   1      -8.630   4.926 128.995  0.00  0.00    +0.282 C 
ATOM      8  O   LIG A   1      -7.236   5.203 129.169  0.00  0.00    -0.308 OA
ATOM      9  C   LIG A   1      -6.628   4.051 129.812  0.00  0.00    +0.326 C 
ATOM     10  C   LIG A   1      -9.620   3.236 130.602  0.00  0.00    +0.009 C 
ATOM     11  C   LIG A   1      -9.646   1.945 131.344  0.00  0.00    +0.138 C 
ATOM     12  C   LIG A   1      -8.351   1.073 131.263  0.00  0.00    +0.040 C 
ATOM     13  C   LIG A   1      -7.263   1.357 130.134  0.00  0.00    +0.017 C 
ATOM     14  C   LIG A   1      -6.654  -0.002 129.235  0.00  0.00    -0.019 C 
ATOM     15  C   LIG A   1      -7.155  -1.425 129.682  0.00  0.00    +0.012 C 
ENDROOT
BRANCH  11  16
ATOM     16  O   LIG A   1      -9.989   2.173 132.720  0.00  0.00    -0.388 OA
ATOM     17  H   LIG A   1      -9.204   2.038 133.288  0.00  0.00    +0.210 HD
ENDBRANCH  11  16
BRANCH   4  18
ATOM     18  O   LIG A   1      -5.658   2.640 127.694  0.00  0.00    -0.387 OA
ATOM     19  H   LIG A   1      -5.450   2.437 126.763  0.00  0.00    +0.210 HD
ENDBRANCH   4  18
BRANCH   7  20
ATOM     20  O   LIG A   1      -9.493   5.855 129.635  0.00  0.00    -0.348 OA
BRANCH  20  21
ATOM     21  C   LIG A   1      -8.905   6.793 130.530  0.00  0.00    +0.160 C 
ATOM     22  C   LIG A   1      -8.943   6.398 131.997  0.00  0.00    +0.034 C 
ENDBRANCH  20  21
ENDBRANCH   7  20
BRANCH   9  23
ATOM     23  O   LIG A   1      -6.482   4.140 131.250  0.00  0.00    -0.434 OA
BRANCH  23  24
ATOM     24  C   LIG A   1      -5.270   3.930 131.853  0.00  0.00    +0.306 C 
ATOM     25  C   LIG A   1      -5.425   4.183 133.315  0.00  0.00    +0.136 C 
ATOM     26  O   LIG A   1      -4.180   3.669 131.347  0.00  0.00    -0.251 OA
ENDBRANCH  23  24
ENDBRANCH   9  23
BRANCH  14  27
ATOM     27  C   LIG A   1      -5.030  -0.063 129.487  0.00  0.00    +0.034 C 
BRANCH  27  28
ATOM     28  C   LIG A   1      -4.327  -0.900 130.595  0.00  0.00    -0.023 C 
ATOM     29  C   LIG A   1      -4.173  -0.731 131.940  0.00  0.00    -0.055 C 
ATOM     30  C   LIG A   1      -3.453  -1.786 132.772  0.00  0.00    +0.043 C 
BRANCH  29  31
ATOM     31  C   LIG A   1      -4.643   0.427 132.700  0.00  0.00    -0.005 C 
ATOM     32  C   LIG A   1      -5.569   0.385 133.675  0.00  0.00    +0.008 C 
ENDBRANCH  29  31
ENDBRANCH  27  28
ENDBRANCH  14  27
BRANCH   3  33
ATOM     33  O   LIG A   1      -9.042   1.288 126.990  0.00  0.00    -0.458 OA
BRANCH  33  34
ATOM     34  C   LIG A   1      -9.398   0.960 125.762  0.00  0.00    +0.307 C 
ATOM     35  O   LIG A   1     -10.479   0.244 125.484  0.00  0.00    -0.251 OA
BRANCH  34  36
ATOM     36  C   LIG A   1      -8.459   1.416 124.677  0.00  0.00    +0.120 C 
BRANCH  36  37
ATOM     37  C   LIG A   1      -8.366   0.447 123.450  0.00  0.00    +0.011 C 
BRANCH  37  38
ATOM     38  C   LIG A   1      -7.063  -0.345 123.345  0.00  0.00    +0.000 C 
BRANCH  38  39
ATOM     39  C   LIG A   1      -7.306  -1.880 123.298  0.00  0.00    +0.000 C 
BRANCH  39  40
ATOM     40  C   LIG A   1      -8.782  -2.315 123.072  0.00  0.00    -0.000 C 
BRANCH  40  41
ATOM     41  C   LIG A   1      -9.148  -3.343 124.158  0.00  0.00    -0.000 C 
BRANCH  41  42
ATOM     42  C   LIG A   1      -9.428  -2.952 125.621  0.00  0.00    -0.000 C 
BRANCH  42  43
ATOM     43  C   LIG A   1      -8.431  -3.301 126.727  0.00  0.00    -0.003 C 
ATOM     44  C   LIG A   1      -9.063  -4.029 127.893  0.00  0.00    +0.004 C 
ENDBRANCH  42  43
ENDBRANCH  41  42
ENDBRANCH  40  41
ENDBRANCH  39  40
ENDBRANCH  38  39
ENDBRANCH  37  38
ENDBRANCH  36  37
ENDBRANCH  34  36
ENDBRANCH  33  34
ENDBRANCH   3  33
TORSDOF 19
ENDMDL
MODEL 9
REMARK VINA RESULT:      -7.0      2.632      5.269
REMARK  Name = NuBBE_224
REMARK  25 active torsions:
REMARK  status: ('A' for Active; 'I' for Inactive)
REMARK    1  A    between atoms: C_1  and  C_2
REMARK    2  A    between atoms: C_4  and  O_6
REMARK    3  A    between atoms: O_6  and  C_7
REMARK    4  A    between atoms: C_7  and  C_8
REMARK    5  A    between atoms: C_8  and  C_9
REMARK    6  A    between atoms: C_9  and  C_10
REMARK    7  A    between atoms: C_10  and  C_11
REMARK    8  A    between atoms: C_11  and  C_12
REMARK    9  A    between atoms: C_12  and  C_13
REMARK   10  A    between atoms: C_13  and  C_14
REMARK   11  A    between atoms: C_14  and  C_15
REMARK   12  A    between atoms: C_15  and  C_16
REMARK   13  A    between atoms: C_18  and  O_20
REMARK   14  A    between atoms: C_23  and  O_25
REMARK   15  A    between atoms: O_25  and  C_26
REMARK   16  A    between atoms: C_26  and  C_27
REMARK   17  A    between atoms: C_29  and  O_31
REMARK   18  A    between atoms: O_31  and  C_32
REMARK   19  A    between atoms: C_32  and  C_33
REMARK   20  A    between atoms: C_36  and  O_38
REMARK   21  A    between atoms: C_42  and  C_43
REMARK   22  A    between atoms: C_42  and  C_44
REMARK   23  A    between atoms: C_44  and  C_45
REMARK   24  A    between atoms: C_46  and  C_47
REMARK   25  A    between atoms: C_46  and  C_49
REMARK                            x       y       z     vdW  Elec       q    Type
REMARK                         _______ _______ _______ _____ _____    ______ ____
ROOT
ATOM      1  C   LIG A   1      -7.697  -1.206 129.580  0.00  0.00    +0.012 C 
ATOM      2  C   LIG A   1      -6.570  -0.255 129.182  0.00  0.00    +0.036 C 
ATOM      3  C   LIG A   1      -6.512   0.923 130.172  0.00  0.00    +0.209 C 
ATOM      4  C   LIG A   1      -7.129   2.207 129.696  0.00  0.00    +0.172 C 
ATOM      5  C   LIG A   1      -6.422   2.872 128.490  0.00  0.00    +0.091 C 
ATOM      6  C   LIG A   1      -5.319   3.871 128.853  0.00  0.00    -0.001 C 
ATOM      7  C   LIG A   1      -5.933   4.970 129.716  0.00  0.00    +0.282 C 
ATOM      8  O   LIG A   1      -7.254   5.075 129.175  0.00  0.00    -0.308 OA
ATOM      9  C   LIG A   1      -7.379   4.097 128.108  0.00  0.00    +0.326 C 
ATOM     10  C   LIG A   1      -4.180   4.023 128.152  0.00  0.00    +0.009 C 
ATOM     11  C   LIG A   1      -3.652   3.041 127.164  0.00  0.00    +0.138 C 
ATOM     12  C   LIG A   1      -4.678   2.002 126.606  0.00  0.00    +0.040 C 
ATOM     13  C   LIG A   1      -6.063   1.759 127.356  0.00  0.00    +0.017 C 
ATOM     14  C   LIG A   1      -6.550   0.115 127.645  0.00  0.00    -0.019 C 
ATOM     15  C   LIG A   1      -5.626  -1.010 127.049  0.00  0.00    +0.012 C 
ENDROOT
BRANCH  11  16
ATOM     16  O   LIG A   1      -3.020   3.729 126.073  0.00  0.00    -0.388 OA
ATOM     17  H   LIG A   1      -2.047   3.669 126.157  0.00  0.00    +0.210 HD
ENDBRANCH  11  16
BRANCH   4  18
ATOM     18  O   LIG A   1      -8.516   1.976 129.383  0.00  0.00    -0.387 OA
ATOM     19  H   LIG A   1      -8.865   1.325 130.020  0.00  0.00    +0.210 HD
ENDBRANCH   4  18
BRANCH   7  20
ATOM     20  O   LIG A   1      -5.176   6.170 129.639  0.00  0.00    -0.348 OA
BRANCH  20  21
ATOM     21  C   LIG A   1      -5.008   6.921 130.837  0.00  0.00    +0.160 C 
ATOM     22  C   LIG A   1      -3.801   7.845 130.857  0.00  0.00    +0.034 C 
ENDBRANCH  20  21
ENDBRANCH   7  20
BRANCH   9  23
ATOM     23  O   LIG A   1      -7.153   4.600 126.768  0.00  0.00    -0.434 OA
BRANCH  23  24
ATOM     24  C   LIG A   1      -8.194   4.785 125.898  0.00  0.00    +0.306 C 
ATOM     25  C   LIG A   1      -8.151   3.696 124.879  0.00  0.00    +0.136 C 
ATOM     26  O   LIG A   1      -9.008   5.704 125.838  0.00  0.00    -0.251 OA
ENDBRANCH  23  24
ENDBRANCH   9  23
BRANCH  14  27
ATOM     27  C   LIG A   1      -7.985  -0.110 126.876  0.00  0.00    +0.034 C 
BRANCH  27  28
ATOM     28  C   LIG A   1      -8.163  -0.813 125.499  0.00  0.00    -0.023 C 
ATOM     29  C   LIG A   1      -8.314  -2.116 125.126  0.00  0.00    -0.055 C 
ATOM     30  C   LIG A   1      -8.519  -2.480 123.660  0.00  0.00    +0.043 C 
BRANCH  29  31
ATOM     31  C   LIG A   1      -8.284  -3.260 126.038  0.00  0.00    -0.005 C 
ATOM     32  C   LIG A   1      -9.195  -3.505 126.997  0.00  0.00    +0.008 C 
ENDBRANCH  29  31
ENDBRANCH  27  28
ENDBRANCH  14  27
BRANCH   3  33
ATOM     33  O   LIG A   1      -5.221   0.999 130.786  0.00  0.00    -0.458 OA
BRANCH  33  34
ATOM     34  C   LIG A   1      -5.251   0.964 132.105  0.00  0.00    +0.307 C 
ATOM     35  O   LIG A   1      -5.392   2.047 132.858  0.00  0.00    -0.251 OA
BRANCH  34  36
ATOM     36  C   LIG A   1      -5.063  -0.398 132.718  0.00  0.00    +0.120 C 
BRANCH  36  37
ATOM     37  C   LIG A   1      -3.571  -0.793 132.978  0.00  0.00    +0.011 C 
BRANCH  37  38
ATOM     38  C   LIG A   1      -3.061  -1.980 132.160  0.00  0.00    +0.000 C 
BRANCH  38  39
ATOM     39  C   LIG A   1      -3.433  -1.864 130.655  0.00  0.00    +0.000 C 
BRANCH  39  40
ATOM     40  C   LIG A   1      -3.357  -3.189 129.844  0.00  0.00    -0.000 C 
BRANCH  40  41
ATOM     41  C   LIG A   1      -4.789  -3.584 129.440  0.00  0.00    -0.000 C 
BRANCH  41  42
ATOM     42  C   LIG A   1      -5.809  -4.169 130.436  0.00  0.00    -0.000 C 
BRANCH  42  43
ATOM     43  C   LIG A   1      -5.365  -5.150 131.521  0.00  0.00    -0.003 C 
ATOM     44  C   LIG A   1      -5.609  -4.639 132.924  0.00  0.00    +0.004 C 
ENDBRANCH  42  43
ENDBRANCH  41  42
ENDBRANCH  40  41
ENDBRANCH  39  40
ENDBRANCH  38  39
ENDBRANCH  37  38
ENDBRANCH  36  37
ENDBRANCH  34  36
ENDBRANCH  33  34
ENDBRANCH   3  33
TORSDOF 19
ENDMDL
