MODEL 1
REMARK VINA RESULT:      -8.4      0.000      0.000
REMARK  Name = NuBBE_1696
REMARK  15 active torsions:
REMARK  status: ('A' for Active; 'I' for Inactive)
REMARK    1  A    between atoms: C_1  and  O_2
REMARK    2  A    between atoms: O_2  and  C_3
REMARK    3  A    between atoms: C_6  and  C_7
REMARK    4  A    between atoms: C_6  and  C_8
REMARK    5  A    between atoms: C_12  and  O_13
REMARK    6  A    between atoms: O_13  and  C_14
REMARK    7  A    between atoms: C_14  and  C_15
REMARK    8  A    between atoms: C_20  and  C_21
REMARK    9  A    between atoms: C_23  and  O_24
REMARK   10  A    between atoms: O_24  and  C_25
REMARK   11  A    between atoms: C_26  and  O_27
REMARK   12  A    between atoms: O_27  and  C_28
REMARK   13  A    between atoms: C_28  and  C_29
REMARK   14  A    between atoms: C_31  and  O_32
REMARK   15  A    between atoms: O_32  and  C_33
REMARK                            x       y       z     vdW  Elec       q    Type
REMARK                         _______ _______ _______ _____ _____    ______ ____
ROOT
ATOM      1  C   LIG A   1      -8.981   0.466 126.097  0.00  0.00    +0.206 A 
ATOM      2  C   LIG A   1      -8.808  -0.909 125.876  0.00  0.00    +0.177 A 
ATOM      3  O   LIG A   1      -9.360  -1.478 124.757  0.00  0.00    -0.478 OA
ATOM      4  C   LIG A   1      -8.726  -2.682 124.277  0.00  0.00    +0.124 C 
ATOM      5  C   LIG A   1      -7.411  -2.346 123.549  0.00  0.00    +0.060 C 
ATOM      6  C   LIG A   1      -9.726  -3.255 123.274  0.00  0.00    +0.060 C 
ATOM      7  C   LIG A   1      -8.501  -3.642 125.412  0.00  0.00    +0.020 C 
ATOM      8  C   LIG A   1      -8.248  -3.175 126.639  0.00  0.00    +0.015 C 
ATOM      9  C   LIG A   1      -8.116  -1.721 126.792  0.00  0.00    +0.064 A 
ATOM     10  C   LIG A   1      -7.356  -1.106 127.790  0.00  0.00    +0.157 A 
ATOM     11  C   LIG A   1      -7.495   0.277 127.997  0.00  0.00    +0.111 A 
ATOM     12  C   LIG A   1      -8.390   1.034 127.232  0.00  0.00    +0.188 A 
ATOM     13  O   LIG A   1      -8.687   2.347 127.548  0.00  0.00    -0.451 OA
ATOM     14  C   LIG A   1      -8.289   2.832 128.798  0.00  0.00    +0.140 A 
ATOM     15  C   LIG A   1      -7.320   2.242 129.510  0.00  0.00    +0.098 A 
ATOM     16  C   LIG A   1      -6.684   1.034 128.947  0.00  0.00    +0.197 A 
ATOM     17  O   LIG A   1      -5.528   0.754 129.214  0.00  0.00    -0.287 OA
ENDROOT
BRANCH  14  18
ATOM     18  C   LIG A   1      -9.000   4.063 129.259  0.00  0.00    +0.025 A 
ATOM     19  C   LIG A   1      -9.230   5.139 128.388  0.00  0.00    +0.061 A 
ATOM     20  C   LIG A   1      -9.929   6.294 128.793  0.00  0.00    +0.167 A 
ATOM     21  C   LIG A   1     -10.417   6.395 130.108  0.00  0.00    +0.214 A 
ATOM     22  C   LIG A   1     -10.193   5.337 131.001  0.00  0.00    +0.167 A 
ATOM     23  C   LIG A   1      -9.487   4.200 130.568  0.00  0.00    +0.061 A 
BRANCH  20  24
ATOM     24  O   LIG A   1     -10.060   7.390 127.977  0.00  0.00    -0.491 OA
ATOM     25  C   LIG A   1     -11.054   7.271 126.963  0.00  0.00    +0.277 C 
ENDBRANCH  20  24
BRANCH  22  26
ATOM     26  O   LIG A   1     -10.537   5.236 132.324  0.00  0.00    -0.491 OA
ATOM     27  C   LIG A   1      -9.505   4.882 133.226  0.00  0.00    +0.277 C 
ENDBRANCH  22  26
BRANCH  21  28
ATOM     28  O   LIG A   1     -10.957   7.627 130.579  0.00  0.00    -0.418 OA
BRANCH  28  29
ATOM     29  C   LIG A   1     -12.330   7.846 130.704  0.00  0.00    +0.309 C 
ATOM     30  C   LIG A   1     -12.708   9.026 129.811  0.00  0.00    +0.136 C 
ATOM     31  O   LIG A   1     -13.107   7.270 131.451  0.00  0.00    -0.251 OA
ENDBRANCH  28  29
ENDBRANCH  21  28
ENDBRANCH  14  18
BRANCH   1  33
ATOM     32  C   LIG A   1      -9.024   1.897 124.199  0.00  0.00    +0.277 C 
ATOM     33  O   LIG A   1      -9.719   1.307 125.298  0.00  0.00    -0.488 OA
ENDBRANCH   1  33
BRANCH  10  34
ATOM     34  O   LIG A   1      -6.549  -1.869 128.664  0.00  0.00    -0.424 OA
BRANCH  34  35
ATOM     35  C   LIG A   1      -7.126  -2.432 129.825  0.00  0.00    +0.309 C 
ATOM     36  C   LIG A   1      -6.552  -3.811 130.018  0.00  0.00    +0.136 C 
ATOM     37  O   LIG A   1      -7.921  -1.917 130.576  0.00  0.00    -0.251 OA
ENDBRANCH  34  35
ENDBRANCH  10  34
TORSDOF 8
ENDMDL
MODEL 2
REMARK VINA RESULT:      -8.4      0.268      2.118
REMARK  Name = NuBBE_1696
REMARK  15 active torsions:
REMARK  status: ('A' for Active; 'I' for Inactive)
REMARK    1  A    between atoms: C_1  and  O_2
REMARK    2  A    between atoms: O_2  and  C_3
REMARK    3  A    between atoms: C_6  and  C_7
REMARK    4  A    between atoms: C_6  and  C_8
REMARK    5  A    between atoms: C_12  and  O_13
REMARK    6  A    between atoms: O_13  and  C_14
REMARK    7  A    between atoms: C_14  and  C_15
REMARK    8  A    between atoms: C_20  and  C_21
REMARK    9  A    between atoms: C_23  and  O_24
REMARK   10  A    between atoms: O_24  and  C_25
REMARK   11  A    between atoms: C_26  and  O_27
REMARK   12  A    between atoms: O_27  and  C_28
REMARK   13  A    between atoms: C_28  and  C_29
REMARK   14  A    between atoms: C_31  and  O_32
REMARK   15  A    between atoms: O_32  and  C_33
REMARK                            x       y       z     vdW  Elec       q    Type
REMARK                         _______ _______ _______ _____ _____    ______ ____
ROOT
ATOM      1  C   LIG A   1      -8.909   0.642 126.122  0.00  0.00    +0.206 A 
ATOM      2  C   LIG A   1      -8.757  -0.736 125.904  0.00  0.00    +0.177 A 
ATOM      3  O   LIG A   1      -9.302  -1.294 124.777  0.00  0.00    -0.478 OA
ATOM      4  C   LIG A   1      -8.682  -2.509 124.306  0.00  0.00    +0.124 C 
ATOM      5  C   LIG A   1      -7.351  -2.197 123.598  0.00  0.00    +0.060 C 
ATOM      6  C   LIG A   1      -9.677  -3.065 123.287  0.00  0.00    +0.060 C 
ATOM      7  C   LIG A   1      -8.491  -3.474 125.443  0.00  0.00    +0.020 C 
ATOM      8  C   LIG A   1      -8.248  -3.011 126.674  0.00  0.00    +0.015 C 
ATOM      9  C   LIG A   1      -8.093  -1.559 126.830  0.00  0.00    +0.064 A 
ATOM     10  C   LIG A   1      -7.337  -0.958 127.839  0.00  0.00    +0.157 A 
ATOM     11  C   LIG A   1      -7.455   0.427 128.045  0.00  0.00    +0.111 A 
ATOM     12  C   LIG A   1      -8.325   1.200 127.266  0.00  0.00    +0.188 A 
ATOM     13  O   LIG A   1      -8.603   2.518 127.579  0.00  0.00    -0.451 OA
ATOM     14  C   LIG A   1      -8.216   2.996 128.834  0.00  0.00    +0.140 A 
ATOM     15  C   LIG A   1      -7.267   2.388 129.561  0.00  0.00    +0.098 A 
ATOM     16  C   LIG A   1      -6.645   1.169 129.007  0.00  0.00    +0.197 A 
ATOM     17  O   LIG A   1      -5.498   0.869 129.291  0.00  0.00    -0.287 OA
ENDROOT
BRANCH  14  18
ATOM     18  C   LIG A   1      -8.912   4.239 129.286  0.00  0.00    +0.025 A 
ATOM     19  C   LIG A   1      -9.277   4.420 130.628  0.00  0.00    +0.061 A 
ATOM     20  C   LIG A   1      -9.902   5.599 131.081  0.00  0.00    +0.167 A 
ATOM     21  C   LIG A   1     -10.182   6.639 130.176  0.00  0.00    +0.214 A 
ATOM     22  C   LIG A   1      -9.834   6.480 128.827  0.00  0.00    +0.167 A 
ATOM     23  C   LIG A   1      -9.216   5.288 128.406  0.00  0.00    +0.061 A 
BRANCH  20  24
ATOM     24  O   LIG A   1     -10.358   5.733 132.369  0.00  0.00    -0.491 OA
ATOM     25  C   LIG A   1      -9.350   5.680 133.374  0.00  0.00    +0.277 C 
ENDBRANCH  20  24
BRANCH  22  26
ATOM     26  O   LIG A   1     -10.044   7.332 127.775  0.00  0.00    -0.491 OA
ATOM     27  C   LIG A   1     -11.069   6.979 126.863  0.00  0.00    +0.277 C 
ENDBRANCH  22  26
BRANCH  21  28
ATOM     28  O   LIG A   1     -10.977   7.750 130.584  0.00  0.00    -0.418 OA
BRANCH  28  29
ATOM     29  C   LIG A   1     -12.368   7.756 130.476  0.00  0.00    +0.309 C 
ATOM     30  C   LIG A   1     -12.767   8.884 129.527  0.00  0.00    +0.136 C 
ATOM     31  O   LIG A   1     -13.162   7.054 131.085  0.00  0.00    -0.251 OA
ENDBRANCH  28  29
ENDBRANCH  21  28
ENDBRANCH  14  18
BRANCH   1  33
ATOM     32  C   LIG A   1      -8.898   2.074 124.224  0.00  0.00    +0.277 C 
ATOM     33  O   LIG A   1      -9.620   1.496 125.313  0.00  0.00    -0.488 OA
ENDBRANCH   1  33
BRANCH  10  34
ATOM     34  O   LIG A   1      -6.557  -1.735 128.725  0.00  0.00    -0.424 OA
BRANCH  34  35
ATOM     35  C   LIG A   1      -7.163  -2.297 129.871  0.00  0.00    +0.309 C 
ATOM     36  C   LIG A   1      -6.696  -3.723 130.004  0.00  0.00    +0.136 C 
ATOM     37  O   LIG A   1      -7.909  -1.754 130.651  0.00  0.00    -0.251 OA
ENDBRANCH  34  35
ENDBRANCH  10  34
TORSDOF 8
ENDMDL
MODEL 3
REMARK VINA RESULT:      -7.8      4.609      9.383
REMARK  Name = NuBBE_1696
REMARK  15 active torsions:
REMARK  status: ('A' for Active; 'I' for Inactive)
REMARK    1  A    between atoms: C_1  and  O_2
REMARK    2  A    between atoms: O_2  and  C_3
REMARK    3  A    between atoms: C_6  and  C_7
REMARK    4  A    between atoms: C_6  and  C_8
REMARK    5  A    between atoms: C_12  and  O_13
REMARK    6  A    between atoms: O_13  and  C_14
REMARK    7  A    between atoms: C_14  and  C_15
REMARK    8  A    between atoms: C_20  and  C_21
REMARK    9  A    between atoms: C_23  and  O_24
REMARK   10  A    between atoms: O_24  and  C_25
REMARK   11  A    between atoms: C_26  and  O_27
REMARK   12  A    between atoms: O_27  and  C_28
REMARK   13  A    between atoms: C_28  and  C_29
REMARK   14  A    between atoms: C_31  and  O_32
REMARK   15  A    between atoms: O_32  and  C_33
REMARK                            x       y       z     vdW  Elec       q    Type
REMARK                         _______ _______ _______ _____ _____    ______ ____
ROOT
ATOM      1  C   LIG A   1      -5.213   1.972 130.493  0.00  0.00    +0.206 A 
ATOM      2  C   LIG A   1      -4.948   2.970 131.444  0.00  0.00    +0.177 A 
ATOM      3  O   LIG A   1      -5.405   2.806 132.726  0.00  0.00    -0.478 OA
ATOM      4  C   LIG A   1      -4.676   3.506 133.755  0.00  0.00    +0.124 C 
ATOM      5  C   LIG A   1      -3.348   2.789 134.059  0.00  0.00    +0.060 C 
ATOM      6  C   LIG A   1      -5.586   3.420 134.980  0.00  0.00    +0.060 C 
ATOM      7  C   LIG A   1      -4.454   4.939 133.357  0.00  0.00    +0.020 C 
ATOM      8  C   LIG A   1      -4.294   5.253 132.067  0.00  0.00    +0.015 C 
ATOM      9  C   LIG A   1      -4.257   4.147 131.103  0.00  0.00    +0.064 A 
ATOM     10  C   LIG A   1      -3.588   4.199 129.878  0.00  0.00    +0.157 A 
ATOM     11  C   LIG A   1      -3.820   3.187 128.931  0.00  0.00    +0.111 A 
ATOM     12  C   LIG A   1      -4.717   2.146 129.195  0.00  0.00    +0.188 A 
ATOM     13  O   LIG A   1      -5.108   1.256 128.211  0.00  0.00    -0.451 OA
ATOM     14  C   LIG A   1      -4.806   1.566 126.881  0.00  0.00    +0.140 A 
ATOM     15  C   LIG A   1      -3.841   2.440 126.560  0.00  0.00    +0.098 A 
ATOM     16  C   LIG A   1      -3.106   3.096 127.660  0.00  0.00    +0.197 A 
ATOM     17  O   LIG A   1      -1.952   3.456 127.512  0.00  0.00    -0.287 OA
ENDROOT
BRANCH  14  18
ATOM     18  C   LIG A   1      -5.612   0.835 125.857  0.00  0.00    +0.025 A 
ATOM     19  C   LIG A   1      -5.520  -0.558 125.720  0.00  0.00    +0.061 A 
ATOM     20  C   LIG A   1      -6.297  -1.271 124.785  0.00  0.00    +0.167 A 
ATOM     21  C   LIG A   1      -7.197  -0.584 123.950  0.00  0.00    +0.214 A 
ATOM     22  C   LIG A   1      -7.302   0.810 124.061  0.00  0.00    +0.167 A 
ATOM     23  C   LIG A   1      -6.508   1.492 125.001  0.00  0.00    +0.061 A 
BRANCH  20  24
ATOM     24  O   LIG A   1      -6.130  -2.617 124.574  0.00  0.00    -0.491 OA
ATOM     25  C   LIG A   1      -4.996  -2.968 123.786  0.00  0.00    +0.277 C 
ENDBRANCH  20  24
BRANCH  22  26
ATOM     26  O   LIG A   1      -8.071   1.679 123.333  0.00  0.00    -0.491 OA
ATOM     27  C   LIG A   1      -7.494   2.933 123.020  0.00  0.00    +0.277 C 
ENDBRANCH  22  26
BRANCH  21  28
ATOM     28  O   LIG A   1      -7.845  -1.268 122.880  0.00  0.00    -0.418 OA
BRANCH  28  29
ATOM     29  C   LIG A   1      -9.205  -1.584 122.906  0.00  0.00    +0.309 C 
ATOM     30  C   LIG A   1      -9.345  -3.049 123.312  0.00  0.00    +0.136 C 
ATOM     31  O   LIG A   1     -10.138  -0.865 122.583  0.00  0.00    -0.251 OA
ENDBRANCH  28  29
ENDBRANCH  21  28
ENDBRANCH  14  18
BRANCH   1  33
ATOM     32  C   LIG A   1      -5.249  -0.275 131.270  0.00  0.00    +0.277 C 
ATOM     33  O   LIG A   1      -5.957   0.840 130.724  0.00  0.00    -0.488 OA
ENDBRANCH   1  33
BRANCH  10  34
ATOM     34  O   LIG A   1      -2.784   5.310 129.535  0.00  0.00    -0.424 OA
BRANCH  34  35
ATOM     35  C   LIG A   1      -3.353   6.378 128.805  0.00  0.00    +0.309 C 
ATOM     36  C   LIG A   1      -2.259   7.049 128.018  0.00  0.00    +0.136 C 
ATOM     37  O   LIG A   1      -4.515   6.709 128.769  0.00  0.00    -0.251 OA
ENDBRANCH  34  35
ENDBRANCH  10  34
TORSDOF 8
ENDMDL
MODEL 4
REMARK VINA RESULT:      -7.7      3.218      8.804
REMARK  Name = NuBBE_1696
REMARK  15 active torsions:
REMARK  status: ('A' for Active; 'I' for Inactive)
REMARK    1  A    between atoms: C_1  and  O_2
REMARK    2  A    between atoms: O_2  and  C_3
REMARK    3  A    between atoms: C_6  and  C_7
REMARK    4  A    between atoms: C_6  and  C_8
REMARK    5  A    between atoms: C_12  and  O_13
REMARK    6  A    between atoms: O_13  and  C_14
REMARK    7  A    between atoms: C_14  and  C_15
REMARK    8  A    between atoms: C_20  and  C_21
REMARK    9  A    between atoms: C_23  and  O_24
REMARK   10  A    between atoms: O_24  and  C_25
REMARK   11  A    between atoms: C_26  and  O_27
REMARK   12  A    between atoms: O_27  and  C_28
REMARK   13  A    between atoms: C_28  and  C_29
REMARK   14  A    between atoms: C_31  and  O_32
REMARK   15  A    between atoms: O_32  and  C_33
REMARK                            x       y       z     vdW  Elec       q    Type
REMARK                         _______ _______ _______ _____ _____    ______ ____
ROOT
ATOM      1  C   LIG A   1      -5.106   4.115 129.299  0.00  0.00    +0.206 A 
ATOM      2  C   LIG A   1      -4.590   4.786 130.419  0.00  0.00    +0.177 A 
ATOM      3  O   LIG A   1      -3.314   5.285 130.366  0.00  0.00    -0.478 OA
ATOM      4  C   LIG A   1      -3.030   6.397 131.240  0.00  0.00    +0.124 C 
ATOM      5  C   LIG A   1      -3.640   7.694 130.679  0.00  0.00    +0.060 C 
ATOM      6  C   LIG A   1      -1.506   6.507 131.220  0.00  0.00    +0.060 C 
ATOM      7  C   LIG A   1      -3.524   6.109 132.631  0.00  0.00    +0.020 C 
ATOM      8  C   LIG A   1      -4.617   5.359 132.806  0.00  0.00    +0.015 C 
ATOM      9  C   LIG A   1      -5.336   4.924 131.602  0.00  0.00    +0.064 A 
ATOM     10  C   LIG A   1      -6.703   4.636 131.570  0.00  0.00    +0.157 A 
ATOM     11  C   LIG A   1      -7.237   3.996 130.439  0.00  0.00    +0.111 A 
ATOM     12  C   LIG A   1      -6.419   3.633 129.362  0.00  0.00    +0.188 A 
ATOM     13  O   LIG A   1      -6.882   2.832 128.335  0.00  0.00    -0.451 OA
ATOM     14  C   LIG A   1      -8.098   2.165 128.513  0.00  0.00    +0.140 A 
ATOM     15  C   LIG A   1      -8.998   2.565 129.422  0.00  0.00    +0.098 A 
ATOM     16  C   LIG A   1      -8.663   3.733 130.262  0.00  0.00    +0.197 A 
ATOM     17  O   LIG A   1      -9.538   4.459 130.699  0.00  0.00    -0.287 OA
ENDROOT
BRANCH  14  18
ATOM     18  C   LIG A   1      -8.327   1.002 127.602  0.00  0.00    +0.025 A 
ATOM     19  C   LIG A   1      -9.057   1.145 126.412  0.00  0.00    +0.061 A 
ATOM     20  C   LIG A   1      -9.254   0.071 125.522  0.00  0.00    +0.167 A 
ATOM     21  C   LIG A   1      -8.715  -1.195 125.817  0.00  0.00    +0.214 A 
ATOM     22  C   LIG A   1      -7.988  -1.366 127.004  0.00  0.00    +0.167 A 
ATOM     23  C   LIG A   1      -7.813  -0.274 127.874  0.00  0.00    +0.061 A 
BRANCH  20  24
ATOM     24  O   LIG A   1     -10.058   0.180 124.415  0.00  0.00    -0.491 OA
ATOM     25  C   LIG A   1     -10.023   1.448 123.767  0.00  0.00    +0.277 C 
ENDBRANCH  20  24
BRANCH  22  26
ATOM     26  O   LIG A   1      -7.415  -2.503 127.509  0.00  0.00    -0.491 OA
ATOM     27  C   LIG A   1      -8.234  -3.325 128.321  0.00  0.00    +0.277 C 
ENDBRANCH  22  26
BRANCH  21  28
ATOM     28  O   LIG A   1      -9.065  -2.326 125.023  0.00  0.00    -0.418 OA
BRANCH  28  29
ATOM     29  C   LIG A   1      -8.165  -2.934 124.146  0.00  0.00    +0.309 C 
ATOM     30  C   LIG A   1      -8.329  -2.289 122.772  0.00  0.00    +0.136 C 
ATOM     31  O   LIG A   1      -7.424  -3.876 124.382  0.00  0.00    -0.251 OA
ENDBRANCH  28  29
ENDBRANCH  21  28
ENDBRANCH  14  18
BRANCH   1  33
ATOM     32  C   LIG A   1      -4.413   4.903 127.165  0.00  0.00    +0.277 C 
ATOM     33  O   LIG A   1      -4.409   3.860 128.141  0.00  0.00    -0.488 OA
ENDBRANCH   1  33
BRANCH  10  34
ATOM     34  O   LIG A   1      -7.522   4.868 132.697  0.00  0.00    -0.424 OA
BRANCH  34  35
ATOM     35  C   LIG A   1      -7.746   3.819 133.619  0.00  0.00    +0.309 C 
ATOM     36  C   LIG A   1      -9.191   3.857 134.038  0.00  0.00    +0.136 C 
ATOM     37  O   LIG A   1      -6.949   2.997 134.005  0.00  0.00    -0.251 OA
ENDBRANCH  34  35
ENDBRANCH  10  34
TORSDOF 8
ENDMDL
MODEL 5
REMARK VINA RESULT:      -7.5      4.174      9.237
REMARK  Name = NuBBE_1696
REMARK  15 active torsions:
REMARK  status: ('A' for Active; 'I' for Inactive)
REMARK    1  A    between atoms: C_1  and  O_2
REMARK    2  A    between atoms: O_2  and  C_3
REMARK    3  A    between atoms: C_6  and  C_7
REMARK    4  A    between atoms: C_6  and  C_8
REMARK    5  A    between atoms: C_12  and  O_13
REMARK    6  A    between atoms: O_13  and  C_14
REMARK    7  A    between atoms: C_14  and  C_15
REMARK    8  A    between atoms: C_20  and  C_21
REMARK    9  A    between atoms: C_23  and  O_24
REMARK   10  A    between atoms: O_24  and  C_25
REMARK   11  A    between atoms: C_26  and  O_27
REMARK   12  A    between atoms: O_27  and  C_28
REMARK   13  A    between atoms: C_28  and  C_29
REMARK   14  A    between atoms: C_31  and  O_32
REMARK   15  A    between atoms: O_32  and  C_33
REMARK                            x       y       z     vdW  Elec       q    Type
REMARK                         _______ _______ _______ _____ _____    ______ ____
ROOT
ATOM      1  C   LIG A   1      -5.944   2.384 130.428  0.00  0.00    +0.206 A 
ATOM      2  C   LIG A   1      -5.798   3.441 131.339  0.00  0.00    +0.177 A 
ATOM      3  O   LIG A   1      -6.432   3.366 132.553  0.00  0.00    -0.478 OA
ATOM      4  C   LIG A   1      -5.843   4.129 133.626  0.00  0.00    +0.124 C 
ATOM      5  C   LIG A   1      -4.580   3.426 134.158  0.00  0.00    +0.060 C 
ATOM      6  C   LIG A   1      -6.915   4.130 134.715  0.00  0.00    +0.060 C 
ATOM      7  C   LIG A   1      -5.545   5.530 133.170  0.00  0.00    +0.020 C 
ATOM      8  C   LIG A   1      -5.203   5.757 131.897  0.00  0.00    +0.015 C 
ATOM      9  C   LIG A   1      -5.049   4.588 131.022  0.00  0.00    +0.064 A 
ATOM     10  C   LIG A   1      -4.215   4.555 129.901  0.00  0.00    +0.157 A 
ATOM     11  C   LIG A   1      -4.329   3.483 129.000  0.00  0.00    +0.111 A 
ATOM     12  C   LIG A   1      -5.271   2.467 129.204  0.00  0.00    +0.188 A 
ATOM     13  O   LIG A   1      -5.534   1.516 128.235  0.00  0.00    -0.451 OA
ATOM     14  C   LIG A   1      -5.045   1.734 126.943  0.00  0.00    +0.140 A 
ATOM     15  C   LIG A   1      -4.032   2.578 126.704  0.00  0.00    +0.098 A 
ATOM     16  C   LIG A   1      -3.447   3.303 127.850  0.00  0.00    +0.197 A 
ATOM     17  O   LIG A   1      -2.278   3.645 127.842  0.00  0.00    -0.287 OA
ENDROOT
BRANCH  14  18
ATOM     18  C   LIG A   1      -5.713   0.941 125.866  0.00  0.00    +0.025 A 
ATOM     19  C   LIG A   1      -6.574   1.552 124.943  0.00  0.00    +0.061 A 
ATOM     20  C   LIG A   1      -7.185   0.830 123.898  0.00  0.00    +0.167 A 
ATOM     21  C   LIG A   1      -6.942  -0.549 123.761  0.00  0.00    +0.214 A 
ATOM     22  C   LIG A   1      -6.091  -1.186 124.677  0.00  0.00    +0.167 A 
ATOM     23  C   LIG A   1      -5.501  -0.437 125.711  0.00  0.00    +0.061 A 
BRANCH  20  24
ATOM     24  O   LIG A   1      -8.111   1.401 123.061  0.00  0.00    -0.491 OA
ATOM     25  C   LIG A   1      -7.889   2.777 122.766  0.00  0.00    +0.277 C 
ENDBRANCH  20  24
BRANCH  22  26
ATOM     26  O   LIG A   1      -5.748  -2.509 124.761  0.00  0.00    -0.491 OA
ATOM     27  C   LIG A   1      -4.952  -3.030 123.712  0.00  0.00    +0.277 C 
ENDBRANCH  22  26
BRANCH  21  28
ATOM     28  O   LIG A   1      -7.697  -1.321 122.830  0.00  0.00    -0.418 OA
BRANCH  28  29
ATOM     29  C   LIG A   1      -9.003  -1.740 123.087  0.00  0.00    +0.309 C 
ATOM     30  C   LIG A   1      -8.947  -3.162 123.641  0.00  0.00    +0.136 C 
ATOM     31  O   LIG A   1     -10.036  -1.135 122.844  0.00  0.00    -0.251 OA
ENDBRANCH  28  29
ENDBRANCH  21  28
ENDBRANCH  14  18
BRANCH   1  33
ATOM     32  C   LIG A   1      -6.123   0.194 131.339  0.00  0.00    +0.277 C 
ATOM     33  O   LIG A   1      -6.730   1.274 130.627  0.00  0.00    -0.488 OA
ENDBRANCH   1  33
BRANCH  10  34
ATOM     34  O   LIG A   1      -3.355   5.635 129.603  0.00  0.00    -0.424 OA
BRANCH  34  35
ATOM     35  C   LIG A   1      -3.825   6.690 128.787  0.00  0.00    +0.309 C 
ATOM     36  C   LIG A   1      -3.737   7.971 129.573  0.00  0.00    +0.136 C 
ATOM     37  O   LIG A   1      -4.209   6.621 127.644  0.00  0.00    -0.251 OA
ENDBRANCH  34  35
ENDBRANCH  10  34
TORSDOF 8
ENDMDL
MODEL 6
REMARK VINA RESULT:      -7.5      3.205      9.012
REMARK  Name = NuBBE_1696
REMARK  15 active torsions:
REMARK  status: ('A' for Active; 'I' for Inactive)
REMARK    1  A    between atoms: C_1  and  O_2
REMARK    2  A    between atoms: O_2  and  C_3
REMARK    3  A    between atoms: C_6  and  C_7
REMARK    4  A    between atoms: C_6  and  C_8
REMARK    5  A    between atoms: C_12  and  O_13
REMARK    6  A    between atoms: O_13  and  C_14
REMARK    7  A    between atoms: C_14  and  C_15
REMARK    8  A    between atoms: C_20  and  C_21
REMARK    9  A    between atoms: C_23  and  O_24
REMARK   10  A    between atoms: O_24  and  C_25
REMARK   11  A    between atoms: C_26  and  O_27
REMARK   12  A    between atoms: O_27  and  C_28
REMARK   13  A    between atoms: C_28  and  C_29
REMARK   14  A    between atoms: C_31  and  O_32
REMARK   15  A    between atoms: O_32  and  C_33
REMARK                            x       y       z     vdW  Elec       q    Type
REMARK                         _______ _______ _______ _____ _____    ______ ____
ROOT
ATOM      1  C   LIG A   1      -5.101   4.127 129.251  0.00  0.00    +0.206 A 
ATOM      2  C   LIG A   1      -4.590   4.813 130.363  0.00  0.00    +0.177 A 
ATOM      3  O   LIG A   1      -3.319   5.323 130.303  0.00  0.00    -0.478 OA
ATOM      4  C   LIG A   1      -3.043   6.447 131.165  0.00  0.00    +0.124 C 
ATOM      5  C   LIG A   1      -3.665   7.733 130.591  0.00  0.00    +0.060 C 
ATOM      6  C   LIG A   1      -1.520   6.570 131.141  0.00  0.00    +0.060 C 
ATOM      7  C   LIG A   1      -3.533   6.170 132.559  0.00  0.00    +0.020 C 
ATOM      8  C   LIG A   1      -4.619   5.412 132.744  0.00  0.00    +0.015 C 
ATOM      9  C   LIG A   1      -5.335   4.958 131.546  0.00  0.00    +0.064 A 
ATOM     10  C   LIG A   1      -6.700   4.658 131.519  0.00  0.00    +0.157 A 
ATOM     11  C   LIG A   1      -7.230   4.001 130.396  0.00  0.00    +0.111 A 
ATOM     12  C   LIG A   1      -6.410   3.634 129.322  0.00  0.00    +0.188 A 
ATOM     13  O   LIG A   1      -6.868   2.818 128.304  0.00  0.00    -0.451 OA
ATOM     14  C   LIG A   1      -8.077   2.142 128.491  0.00  0.00    +0.140 A 
ATOM     15  C   LIG A   1      -8.979   2.544 129.397  0.00  0.00    +0.098 A 
ATOM     16  C   LIG A   1      -8.653   3.723 130.224  0.00  0.00    +0.197 A 
ATOM     17  O   LIG A   1      -9.534   4.447 130.654  0.00  0.00    -0.287 OA
ENDROOT
BRANCH  14  18
ATOM     18  C   LIG A   1      -8.297   0.967 127.593  0.00  0.00    +0.025 A 
ATOM     19  C   LIG A   1      -7.815  -0.306 127.932  0.00  0.00    +0.061 A 
ATOM     20  C   LIG A   1      -8.041  -1.433 127.117  0.00  0.00    +0.167 A 
ATOM     21  C   LIG A   1      -8.768  -1.300 125.920  0.00  0.00    +0.214 A 
ATOM     22  C   LIG A   1      -9.254  -0.036 125.554  0.00  0.00    +0.167 A 
ATOM     23  C   LIG A   1      -9.006   1.070 126.387  0.00  0.00    +0.061 A 
BRANCH  20  24
ATOM     24  O   LIG A   1      -7.479  -2.655 127.391  0.00  0.00    -0.491 OA
ATOM     25  C   LIG A   1      -8.132  -3.404 128.410  0.00  0.00    +0.277 C 
ENDBRANCH  20  24
BRANCH  22  26
ATOM     26  O   LIG A   1      -9.941   0.331 124.427  0.00  0.00    -0.491 OA
ATOM     27  C   LIG A   1      -9.770   1.664 123.982  0.00  0.00    +0.277 C 
ENDBRANCH  22  26
BRANCH  21  28
ATOM     28  O   LIG A   1      -8.841  -2.388 125.001  0.00  0.00    -0.418 OA
BRANCH  28  29
ATOM     29  C   LIG A   1      -7.986  -2.503 123.904  0.00  0.00    +0.309 C 
ATOM     30  C   LIG A   1      -6.926  -3.550 124.233  0.00  0.00    +0.136 C 
ATOM     31  O   LIG A   1      -8.004  -1.837 122.880  0.00  0.00    -0.251 OA
ENDBRANCH  28  29
ENDBRANCH  21  28
ENDBRANCH  14  18
BRANCH   1  33
ATOM     32  C   LIG A   1      -4.422   4.896 127.106  0.00  0.00    +0.277 C 
ATOM     33  O   LIG A   1      -4.404   3.865 128.096  0.00  0.00    -0.488 OA
ENDBRANCH   1  33
BRANCH  10  34
ATOM     34  O   LIG A   1      -7.520   4.894 132.645  0.00  0.00    -0.424 OA
BRANCH  34  35
ATOM     35  C   LIG A   1      -7.733   3.854 133.578  0.00  0.00    +0.309 C 
ATOM     36  C   LIG A   1      -9.159   3.930 134.054  0.00  0.00    +0.136 C 
ATOM     37  O   LIG A   1      -6.943   3.012 133.935  0.00  0.00    -0.251 OA
ENDBRANCH  34  35
ENDBRANCH  10  34
TORSDOF 8
ENDMDL
MODEL 7
REMARK VINA RESULT:      -7.5      3.350      5.582
REMARK  Name = NuBBE_1696
REMARK  15 active torsions:
REMARK  status: ('A' for Active; 'I' for Inactive)
REMARK    1  A    between atoms: C_1  and  O_2
REMARK    2  A    between atoms: O_2  and  C_3
REMARK    3  A    between atoms: C_6  and  C_7
REMARK    4  A    between atoms: C_6  and  C_8
REMARK    5  A    between atoms: C_12  and  O_13
REMARK    6  A    between atoms: O_13  and  C_14
REMARK    7  A    between atoms: C_14  and  C_15
REMARK    8  A    between atoms: C_20  and  C_21
REMARK    9  A    between atoms: C_23  and  O_24
REMARK   10  A    between atoms: O_24  and  C_25
REMARK   11  A    between atoms: C_26  and  O_27
REMARK   12  A    between atoms: O_27  and  C_28
REMARK   13  A    between atoms: C_28  and  C_29
REMARK   14  A    between atoms: C_31  and  O_32
REMARK   15  A    between atoms: O_32  and  C_33
REMARK                            x       y       z     vdW  Elec       q    Type
REMARK                         _______ _______ _______ _____ _____    ______ ____
ROOT
ATOM      1  C   LIG A   1      -5.693  -0.654 126.289  0.00  0.00    +0.206 A 
ATOM      2  C   LIG A   1      -5.785  -1.359 125.079  0.00  0.00    +0.177 A 
ATOM      3  O   LIG A   1      -5.097  -2.537 124.942  0.00  0.00    -0.478 OA
ATOM      4  C   LIG A   1      -5.627  -3.475 123.982  0.00  0.00    +0.124 C 
ATOM      5  C   LIG A   1      -6.872  -4.182 124.549  0.00  0.00    +0.060 C 
ATOM      6  C   LIG A   1      -4.506  -4.497 123.801  0.00  0.00    +0.060 C 
ATOM      7  C   LIG A   1      -5.929  -2.780 122.684  0.00  0.00    +0.020 C 
ATOM      8  C   LIG A   1      -6.327  -1.503 122.689  0.00  0.00    +0.015 C 
ATOM      9  C   LIG A   1      -6.534  -0.867 123.996  0.00  0.00    +0.064 A 
ATOM     10  C   LIG A   1      -7.419   0.191 124.219  0.00  0.00    +0.157 A 
ATOM     11  C   LIG A   1      -7.359   0.882 125.440  0.00  0.00    +0.111 A 
ATOM     12  C   LIG A   1      -6.422   0.535 126.420  0.00  0.00    +0.188 A 
ATOM     13  O   LIG A   1      -6.214   1.321 127.539  0.00  0.00    -0.451 OA
ATOM     14  C   LIG A   1      -6.759   2.608 127.553  0.00  0.00    +0.140 A 
ATOM     15  C   LIG A   1      -7.772   2.956 126.747  0.00  0.00    +0.098 A 
ATOM     16  C   LIG A   1      -8.295   1.940 125.812  0.00  0.00    +0.197 A 
ATOM     17  O   LIG A   1      -9.460   1.961 125.454  0.00  0.00    -0.287 OA
ENDROOT
BRANCH  14  18
ATOM     18  C   LIG A   1      -6.152   3.547 128.544  0.00  0.00    +0.025 A 
ATOM     19  C   LIG A   1      -6.940   4.198 129.505  0.00  0.00    +0.061 A 
ATOM     20  C   LIG A   1      -6.383   5.060 130.471  0.00  0.00    +0.167 A 
ATOM     21  C   LIG A   1      -4.996   5.292 130.489  0.00  0.00    +0.214 A 
ATOM     22  C   LIG A   1      -4.186   4.660 129.534  0.00  0.00    +0.167 A 
ATOM     23  C   LIG A   1      -4.774   3.810 128.580  0.00  0.00    +0.061 A 
BRANCH  20  24
ATOM     24  O   LIG A   1      -7.163   5.781 131.341  0.00  0.00    -0.491 OA
ATOM     25  C   LIG A   1      -8.313   6.387 130.759  0.00  0.00    +0.277 C 
ENDBRANCH  20  24
BRANCH  22  26
ATOM     26  O   LIG A   1      -2.835   4.770 129.338  0.00  0.00    -0.491 OA
ATOM     27  C   LIG A   1      -2.405   5.700 128.362  0.00  0.00    +0.277 C 
ENDBRANCH  22  26
BRANCH  21  28
ATOM     28  O   LIG A   1      -4.449   6.300 131.336  0.00  0.00    -0.418 OA
BRANCH  28  29
ATOM     29  C   LIG A   1      -4.162   7.588 130.881  0.00  0.00    +0.309 C 
ATOM     30  C   LIG A   1      -3.044   8.162 131.749  0.00  0.00    +0.136 C 
ATOM     31  O   LIG A   1      -4.741   8.209 130.003  0.00  0.00    -0.251 OA
ENDBRANCH  28  29
ENDBRANCH  21  28
ENDBRANCH  14  18
BRANCH   1  33
ATOM     32  C   LIG A   1      -5.483  -1.977 128.254  0.00  0.00    +0.277 C 
ATOM     33  O   LIG A   1      -4.912  -1.021 127.359  0.00  0.00    -0.488 OA
ENDBRANCH   1  33
BRANCH  10  34
ATOM     34  O   LIG A   1      -8.280   0.647 123.195  0.00  0.00    -0.424 OA
BRANCH  34  35
ATOM     35  C   LIG A   1      -9.491  -0.039 122.950  0.00  0.00    +0.309 C 
ATOM     36  C   LIG A   1     -10.502   0.952 122.439  0.00  0.00    +0.136 C 
ATOM     37  O   LIG A   1      -9.708  -1.220 123.086  0.00  0.00    -0.251 OA
ENDBRANCH  34  35
ENDBRANCH  10  34
TORSDOF 8
ENDMDL
MODEL 8
REMARK VINA RESULT:      -7.4      3.803      5.894
REMARK  Name = NuBBE_1696
REMARK  15 active torsions:
REMARK  status: ('A' for Active; 'I' for Inactive)
REMARK    1  A    between atoms: C_1  and  O_2
REMARK    2  A    between atoms: O_2  and  C_3
REMARK    3  A    between atoms: C_6  and  C_7
REMARK    4  A    between atoms: C_6  and  C_8
REMARK    5  A    between atoms: C_12  and  O_13
REMARK    6  A    between atoms: O_13  and  C_14
REMARK    7  A    between atoms: C_14  and  C_15
REMARK    8  A    between atoms: C_20  and  C_21
REMARK    9  A    between atoms: C_23  and  O_24
REMARK   10  A    between atoms: O_24  and  C_25
REMARK   11  A    between atoms: C_26  and  O_27
REMARK   12  A    between atoms: O_27  and  C_28
REMARK   13  A    between atoms: C_28  and  C_29
REMARK   14  A    between atoms: C_31  and  O_32
REMARK   15  A    between atoms: O_32  and  C_33
REMARK                            x       y       z     vdW  Elec       q    Type
REMARK                         _______ _______ _______ _____ _____    ______ ____
ROOT
ATOM      1  C   LIG A   1      -5.682  -0.558 126.517  0.00  0.00    +0.206 A 
ATOM      2  C   LIG A   1      -5.909  -1.168 125.274  0.00  0.00    +0.177 A 
ATOM      3  O   LIG A   1      -5.434  -2.436 125.058  0.00  0.00    -0.478 OA
ATOM      4  C   LIG A   1      -6.129  -3.215 124.063  0.00  0.00    +0.124 C 
ATOM      5  C   LIG A   1      -7.469  -3.732 124.621  0.00  0.00    +0.060 C 
ATOM      6  C   LIG A   1      -5.201  -4.401 123.802  0.00  0.00    +0.060 C 
ATOM      7  C   LIG A   1      -6.327  -2.407 122.810  0.00  0.00    +0.020 C 
ATOM      8  C   LIG A   1      -6.501  -1.084 122.892  0.00  0.00    +0.015 C 
ATOM      9  C   LIG A   1      -6.579  -0.497 124.235  0.00  0.00    +0.064 A 
ATOM     10  C   LIG A   1      -7.267   0.682 124.534  0.00  0.00    +0.157 A 
ATOM     11  C   LIG A   1      -7.074   1.283 125.789  0.00  0.00    +0.111 A 
ATOM     12  C   LIG A   1      -6.195   0.728 126.727  0.00  0.00    +0.188 A 
ATOM     13  O   LIG A   1      -5.841   1.404 127.881  0.00  0.00    -0.451 OA
ATOM     14  C   LIG A   1      -6.159   2.762 127.975  0.00  0.00    +0.140 A 
ATOM     15  C   LIG A   1      -7.109   3.321 127.213  0.00  0.00    +0.098 A 
ATOM     16  C   LIG A   1      -7.810   2.462 126.238  0.00  0.00    +0.197 A 
ATOM     17  O   LIG A   1      -8.959   2.700 125.909  0.00  0.00    -0.287 OA
ENDROOT
BRANCH  14  18
ATOM     18  C   LIG A   1      -5.386   3.527 129.001  0.00  0.00    +0.025 A 
ATOM     19  C   LIG A   1      -4.213   4.217 128.660  0.00  0.00    +0.061 A 
ATOM     20  C   LIG A   1      -3.489   4.973 129.603  0.00  0.00    +0.167 A 
ATOM     21  C   LIG A   1      -3.936   5.050 130.935  0.00  0.00    +0.214 A 
ATOM     22  C   LIG A   1      -5.102   4.363 131.303  0.00  0.00    +0.167 A 
ATOM     23  C   LIG A   1      -5.798   3.612 130.339  0.00  0.00    +0.061 A 
BRANCH  20  24
ATOM     24  O   LIG A   1      -2.285   5.558 129.299  0.00  0.00    -0.491 OA
ATOM     25  C   LIG A   1      -2.358   6.645 128.381  0.00  0.00    +0.277 C 
ENDBRANCH  20  24
BRANCH  22  26
ATOM     26  O   LIG A   1      -5.692   4.262 132.536  0.00  0.00    -0.491 OA
ATOM     27  C   LIG A   1      -6.859   3.466 132.621  0.00  0.00    +0.277 C 
ENDBRANCH  22  26
BRANCH  21  28
ATOM     28  O   LIG A   1      -3.116   5.653 131.933  0.00  0.00    -0.418 OA
BRANCH  28  29
ATOM     29  C   LIG A   1      -3.317   6.960 132.380  0.00  0.00    +0.309 C 
ATOM     30  C   LIG A   1      -3.553   6.916 133.888  0.00  0.00    +0.136 C 
ATOM     31  O   LIG A   1      -3.385   7.973 131.701  0.00  0.00    -0.251 OA
ENDBRANCH  28  29
ENDBRANCH  21  28
ENDBRANCH  14  18
BRANCH   1  33
ATOM     32  C   LIG A   1      -5.670  -2.014 128.396  0.00  0.00    +0.277 C 
ATOM     33  O   LIG A   1      -4.959  -1.111 127.547  0.00  0.00    -0.488 OA
ENDBRANCH   1  33
BRANCH  10  34
ATOM     34  O   LIG A   1      -8.051   1.334 123.557  0.00  0.00    -0.424 OA
BRANCH  34  35
ATOM     35  C   LIG A   1      -7.478   2.371 122.786  0.00  0.00    +0.309 C 
ATOM     36  C   LIG A   1      -8.584   3.090 122.061  0.00  0.00    +0.136 C 
ATOM     37  O   LIG A   1      -6.311   2.678 122.718  0.00  0.00    -0.251 OA
ENDBRANCH  34  35
ENDBRANCH  10  34
TORSDOF 8
ENDMDL
MODEL 9
REMARK VINA RESULT:      -7.3      3.861      6.474
REMARK  Name = NuBBE_1696
REMARK  15 active torsions:
REMARK  status: ('A' for Active; 'I' for Inactive)
REMARK    1  A    between atoms: C_1  and  O_2
REMARK    2  A    between atoms: O_2  and  C_3
REMARK    3  A    between atoms: C_6  and  C_7
REMARK    4  A    between atoms: C_6  and  C_8
REMARK    5  A    between atoms: C_12  and  O_13
REMARK    6  A    between atoms: O_13  and  C_14
REMARK    7  A    between atoms: C_14  and  C_15
REMARK    8  A    between atoms: C_20  and  C_21
REMARK    9  A    between atoms: C_23  and  O_24
REMARK   10  A    between atoms: O_24  and  C_25
REMARK   11  A    between atoms: C_26  and  O_27
REMARK   12  A    between atoms: O_27  and  C_28
REMARK   13  A    between atoms: C_28  and  C_29
REMARK   14  A    between atoms: C_31  and  O_32
REMARK   15  A    between atoms: O_32  and  C_33
REMARK                            x       y       z     vdW  Elec       q    Type
REMARK                         _______ _______ _______ _____ _____    ______ ____
ROOT
ATOM      1  C   LIG A   1      -6.756   0.105 126.750  0.00  0.00    +0.206 A 
ATOM      2  C   LIG A   1      -7.078  -0.569 125.562  0.00  0.00    +0.177 A 
ATOM      3  O   LIG A   1      -6.987  -1.936 125.527  0.00  0.00    -0.478 OA
ATOM      4  C   LIG A   1      -7.820  -2.605 124.558  0.00  0.00    +0.124 C 
ATOM      5  C   LIG A   1      -9.283  -2.641 125.037  0.00  0.00    +0.060 C 
ATOM      6  C   LIG A   1      -7.270  -4.030 124.512  0.00  0.00    +0.060 C 
ATOM      7  C   LIG A   1      -7.695  -1.943 123.214  0.00  0.00    +0.020 C 
ATOM      8  C   LIG A   1      -7.476  -0.625 123.140  0.00  0.00    +0.015 C 
ATOM      9  C   LIG A   1      -7.456   0.127 124.400  0.00  0.00    +0.064 A 
ATOM     10  C   LIG A   1      -7.783   1.481 124.507  0.00  0.00    +0.157 A 
ATOM     11  C   LIG A   1      -7.496   2.158 125.704  0.00  0.00    +0.111 A 
ATOM     12  C   LIG A   1      -6.879   1.500 126.774  0.00  0.00    +0.188 A 
ATOM     13  O   LIG A   1      -6.411   2.188 127.878  0.00  0.00    -0.451 OA
ATOM     14  C   LIG A   1      -6.318   3.581 127.799  0.00  0.00    +0.140 A 
ATOM     15  C   LIG A   1      -7.013   4.286 126.896  0.00  0.00    +0.098 A 
ATOM     16  C   LIG A   1      -7.877   3.545 125.955  0.00  0.00    +0.197 A 
ATOM     17  O   LIG A   1      -8.883   4.058 125.495  0.00  0.00    -0.287 OA
ENDROOT
BRANCH  14  18
ATOM     18  C   LIG A   1      -5.417   4.219 128.807  0.00  0.00    +0.025 A 
ATOM     19  C   LIG A   1      -5.773   4.279 130.163  0.00  0.00    +0.061 A 
ATOM     20  C   LIG A   1      -4.923   4.844 131.135  0.00  0.00    +0.167 A 
ATOM     21  C   LIG A   1      -3.676   5.373 130.755  0.00  0.00    +0.214 A 
ATOM     22  C   LIG A   1      -3.300   5.332 129.405  0.00  0.00    +0.167 A 
ATOM     23  C   LIG A   1      -4.174   4.766 128.459  0.00  0.00    +0.061 A 
BRANCH  20  24
ATOM     24  O   LIG A   1      -5.313   5.003 132.441  0.00  0.00    -0.491 OA
ATOM     25  C   LIG A   1      -5.241   3.825 133.239  0.00  0.00    +0.277 C 
ENDBRANCH  20  24
BRANCH  22  26
ATOM     26  O   LIG A   1      -2.166   5.818 128.809  0.00  0.00    -0.491 OA
ATOM     27  C   LIG A   1      -2.272   7.075 128.165  0.00  0.00    +0.277 C 
ENDBRANCH  22  26
BRANCH  21  28
ATOM     28  O   LIG A   1      -2.895   6.110 131.693  0.00  0.00    -0.418 OA
BRANCH  28  29
ATOM     29  C   LIG A   1      -1.748   5.586 132.291  0.00  0.00    +0.309 C 
ATOM     30  C   LIG A   1      -0.640   6.633 132.196  0.00  0.00    +0.136 C 
ATOM     31  O   LIG A   1      -1.596   4.461 132.742  0.00  0.00    -0.251 OA
ENDBRANCH  28  29
ENDBRANCH  21  28
ENDBRANCH  14  18
BRANCH   1  33
ATOM     32  C   LIG A   1      -7.289  -0.995 128.789  0.00  0.00    +0.277 C 
ATOM     33  O   LIG A   1      -6.292  -0.495 127.897  0.00  0.00    -0.488 OA
ENDBRANCH   1  33
BRANCH  10  34
ATOM     34  O   LIG A   1      -8.280   2.199 123.396  0.00  0.00    -0.424 OA
BRANCH  34  35
ATOM     35  C   LIG A   1      -7.377   2.895 122.560  0.00  0.00    +0.309 C 
ATOM     36  C   LIG A   1      -8.161   3.541 121.449  0.00  0.00    +0.136 C 
ATOM     37  O   LIG A   1      -6.181   3.002 122.697  0.00  0.00    -0.251 OA
ENDBRANCH  34  35
ENDBRANCH  10  34
TORSDOF 8
ENDMDL
