MODEL 1
REMARK VINA RESULT:      -4.7      0.000      0.000
REMARK  Name = NuBBE_1747
REMARK  6 active torsions:
REMARK  status: ('A' for Active; 'I' for Inactive)
REMARK    1  A    between atoms: C_1  and  C_3
REMARK    2  A    between atoms: C_1  and  C_9
REMARK    3  A    between atoms: C_3  and  C_4
REMARK    4  A    between atoms: C_4  and  C_5
REMARK    5  A    between atoms: C_6  and  C_7
REMARK    6  A    between atoms: C_6  and  C_8
REMARK                            x       y       z     vdW  Elec       q    Type
REMARK                         _______ _______ _______ _____ _____    ______ ____
ROOT
ATOM      1  C   LIG A   1     -11.099   8.497 128.081  0.00  0.00    +0.038 C 
ENDROOT
BRANCH   1   2
ATOM      2  C   LIG A   1     -12.531   8.727 128.519  0.00  0.00    -0.055 C 
ATOM      3  C   LIG A   1     -12.802   9.604 129.500  0.00  0.00    +0.012 C 
BRANCH   2   4
ATOM      4  C   LIG A   1     -13.622   7.990 127.894  0.00  0.00    -0.005 C 
ATOM      5  C   LIG A   1     -13.887   6.687 128.034  0.00  0.00    +0.008 C 
ENDBRANCH   2   4
ENDBRANCH   1   2
BRANCH   1   6
ATOM      6  C   LIG A   1     -10.230   7.978 129.233  0.00  0.00    +0.032 C 
BRANCH   6   7
ATOM      7  C   LIG A   1     -10.382   6.491 129.410  0.00  0.00    -0.028 C 
ATOM      8  C   LIG A   1     -11.079   5.841 130.362  0.00  0.00    -0.080 C 
ATOM      9  C   LIG A   1     -11.845   6.497 131.478  0.00  0.00    +0.038 C 
ATOM     10  C   LIG A   1     -11.141   4.335 130.373  0.00  0.00    +0.038 C 
ENDBRANCH   6   7
ENDBRANCH   1   6
TORSDOF 4
ENDMDL
MODEL 2
REMARK VINA RESULT:      -4.7     11.039     12.549
REMARK  Name = NuBBE_1747
REMARK  6 active torsions:
REMARK  status: ('A' for Active; 'I' for Inactive)
REMARK    1  A    between atoms: C_1  and  C_3
REMARK    2  A    between atoms: C_1  and  C_9
REMARK    3  A    between atoms: C_3  and  C_4
REMARK    4  A    between atoms: C_4  and  C_5
REMARK    5  A    between atoms: C_6  and  C_7
REMARK    6  A    between atoms: C_6  and  C_8
REMARK                            x       y       z     vdW  Elec       q    Type
REMARK                         _______ _______ _______ _____ _____    ______ ____
ROOT
ATOM      1  C   LIG A   1      -7.466  -3.795 124.347  0.00  0.00    +0.038 C 
ENDROOT
BRANCH   1   2
ATOM      2  C   LIG A   1      -6.248  -3.017 123.890  0.00  0.00    -0.055 C 
ATOM      3  C   LIG A   1      -6.397  -1.832 123.277  0.00  0.00    +0.012 C 
BRANCH   2   4
ATOM      4  C   LIG A   1      -4.909  -3.555 124.096  0.00  0.00    -0.005 C 
ATOM      5  C   LIG A   1      -4.421  -4.695 123.595  0.00  0.00    +0.008 C 
ENDBRANCH   2   4
ENDBRANCH   1   2
BRANCH   1   6
ATOM      6  C   LIG A   1      -8.515  -2.878 124.989  0.00  0.00    +0.032 C 
BRANCH   6   7
ATOM      7  C   LIG A   1      -8.786  -3.268 126.417  0.00  0.00    -0.028 C 
ATOM      8  C   LIG A   1      -8.068  -2.947 127.511  0.00  0.00    -0.080 C 
ATOM      9  C   LIG A   1      -6.806  -2.129 127.510  0.00  0.00    +0.038 C 
ATOM     10  C   LIG A   1      -8.503  -3.409 128.878  0.00  0.00    +0.038 C 
ENDBRANCH   6   7
ENDBRANCH   1   6
TORSDOF 4
ENDMDL
MODEL 3
REMARK VINA RESULT:      -4.7      1.665      2.871
REMARK  Name = NuBBE_1747
REMARK  6 active torsions:
REMARK  status: ('A' for Active; 'I' for Inactive)
REMARK    1  A    between atoms: C_1  and  C_3
REMARK    2  A    between atoms: C_1  and  C_9
REMARK    3  A    between atoms: C_3  and  C_4
REMARK    4  A    between atoms: C_4  and  C_5
REMARK    5  A    between atoms: C_6  and  C_7
REMARK    6  A    between atoms: C_6  and  C_8
REMARK                            x       y       z     vdW  Elec       q    Type
REMARK                         _______ _______ _______ _____ _____    ______ ____
ROOT
ATOM      1  C   LIG A   1     -12.822   8.214 130.696  0.00  0.00    +0.038 C 
ENDROOT
BRANCH   1   2
ATOM      2  C   LIG A   1     -12.687   9.061 129.446  0.00  0.00    -0.055 C 
ATOM      3  C   LIG A   1     -11.822   8.704 128.483  0.00  0.00    +0.012 C 
BRANCH   2   4
ATOM      4  C   LIG A   1     -13.480  10.273 129.288  0.00  0.00    -0.005 C 
ATOM      5  C   LIG A   1     -13.560  11.293 130.150  0.00  0.00    +0.008 C 
ENDBRANCH   2   4
ENDBRANCH   1   2
BRANCH   1   6
ATOM      6  C   LIG A   1     -12.348   6.775 130.460  0.00  0.00    +0.032 C 
BRANCH   6   7
ATOM      7  C   LIG A   1     -11.426   6.313 131.557  0.00  0.00    -0.028 C 
ATOM      8  C   LIG A   1     -10.083   6.405 131.601  0.00  0.00    -0.080 C 
ATOM      9  C   LIG A   1      -9.218   6.988 130.517  0.00  0.00    +0.038 C 
ATOM     10  C   LIG A   1      -9.318   5.906 132.800  0.00  0.00    +0.038 C 
ENDBRANCH   6   7
ENDBRANCH   1   6
TORSDOF 4
ENDMDL
MODEL 4
REMARK VINA RESULT:      -4.7      0.425      1.741
REMARK  Name = NuBBE_1747
REMARK  6 active torsions:
REMARK  status: ('A' for Active; 'I' for Inactive)
REMARK    1  A    between atoms: C_1  and  C_3
REMARK    2  A    between atoms: C_1  and  C_9
REMARK    3  A    between atoms: C_3  and  C_4
REMARK    4  A    between atoms: C_4  and  C_5
REMARK    5  A    between atoms: C_6  and  C_7
REMARK    6  A    between atoms: C_6  and  C_8
REMARK                            x       y       z     vdW  Elec       q    Type
REMARK                         _______ _______ _______ _____ _____    ______ ____
ROOT
ATOM      1  C   LIG A   1     -11.171   8.425 128.029  0.00  0.00    +0.038 C 
ENDROOT
BRANCH   1   2
ATOM      2  C   LIG A   1     -12.591   8.596 128.530  0.00  0.00    -0.055 C 
ATOM      3  C   LIG A   1     -13.595   7.916 127.953  0.00  0.00    +0.012 C 
BRANCH   2   4
ATOM      4  C   LIG A   1     -12.881   9.510 129.628  0.00  0.00    -0.005 C 
ATOM      5  C   LIG A   1     -13.494  10.695 129.540  0.00  0.00    +0.008 C 
ENDBRANCH   2   4
ENDBRANCH   1   2
BRANCH   1   6
ATOM      6  C   LIG A   1     -10.236   7.923 129.135  0.00  0.00    +0.032 C 
BRANCH   6   7
ATOM      7  C   LIG A   1     -10.390   6.441 129.355  0.00  0.00    -0.028 C 
ATOM      8  C   LIG A   1     -11.010   5.819 130.377  0.00  0.00    -0.080 C 
ATOM      9  C   LIG A   1     -11.670   6.507 131.540  0.00  0.00    +0.038 C 
ATOM     10  C   LIG A   1     -11.089   4.315 130.424  0.00  0.00    +0.038 C 
ENDBRANCH   6   7
ENDBRANCH   1   6
TORSDOF 4
ENDMDL
MODEL 5
REMARK VINA RESULT:      -4.6      1.208      2.522
REMARK  Name = NuBBE_1747
REMARK  6 active torsions:
REMARK  status: ('A' for Active; 'I' for Inactive)
REMARK    1  A    between atoms: C_1  and  C_3
REMARK    2  A    between atoms: C_1  and  C_9
REMARK    3  A    between atoms: C_3  and  C_4
REMARK    4  A    between atoms: C_4  and  C_5
REMARK    5  A    between atoms: C_6  and  C_7
REMARK    6  A    between atoms: C_6  and  C_8
REMARK                            x       y       z     vdW  Elec       q    Type
REMARK                         _______ _______ _______ _____ _____    ______ ____
ROOT
ATOM      1  C   LIG A   1     -12.671   8.516 129.920  0.00  0.00    +0.038 C 
ENDROOT
BRANCH   1   2
ATOM      2  C   LIG A   1     -12.566   8.166 128.449  0.00  0.00    -0.055 C 
ATOM      3  C   LIG A   1     -13.643   7.715 127.786  0.00  0.00    +0.012 C 
BRANCH   2   4
ATOM      4  C   LIG A   1     -11.296   8.300 127.748  0.00  0.00    -0.005 C 
ATOM      5  C   LIG A   1     -10.865   7.552 126.727  0.00  0.00    +0.008 C 
ENDBRANCH   2   4
ENDBRANCH   1   2
BRANCH   1   6
ATOM      6  C   LIG A   1     -13.049   7.295 130.767  0.00  0.00    +0.032 C 
BRANCH   6   7
ATOM      7  C   LIG A   1     -11.941   6.916 131.713  0.00  0.00    -0.028 C 
ATOM      8  C   LIG A   1     -10.886   6.116 131.468  0.00  0.00    -0.080 C 
ATOM      9  C   LIG A   1     -10.616   5.408 130.169  0.00  0.00    +0.038 C 
ATOM     10  C   LIG A   1      -9.851   5.863 132.535  0.00  0.00    +0.038 C 
ENDBRANCH   6   7
ENDBRANCH   1   6
TORSDOF 4
ENDMDL
MODEL 6
REMARK VINA RESULT:      -4.6      9.625     12.020
REMARK  Name = NuBBE_1747
REMARK  6 active torsions:
REMARK  status: ('A' for Active; 'I' for Inactive)
REMARK    1  A    between atoms: C_1  and  C_3
REMARK    2  A    between atoms: C_1  and  C_9
REMARK    3  A    between atoms: C_3  and  C_4
REMARK    4  A    between atoms: C_4  and  C_5
REMARK    5  A    between atoms: C_6  and  C_7
REMARK    6  A    between atoms: C_6  and  C_8
REMARK                            x       y       z     vdW  Elec       q    Type
REMARK                         _______ _______ _______ _____ _____    ______ ____
ROOT
ATOM      1  C   LIG A   1      -9.448  -3.080 125.643  0.00  0.00    +0.038 C 
ENDROOT
BRANCH   1   2
ATOM      2  C   LIG A   1      -8.680  -2.088 126.494  0.00  0.00    -0.055 C 
ATOM      3  C   LIG A   1      -8.579  -0.806 126.106  0.00  0.00    +0.012 C 
BRANCH   2   4
ATOM      4  C   LIG A   1      -8.035  -2.518 127.727  0.00  0.00    -0.005 C 
ATOM      5  C   LIG A   1      -8.384  -3.560 128.489  0.00  0.00    +0.008 C 
ENDBRANCH   2   4
ENDBRANCH   1   2
BRANCH   1   6
ATOM      6  C   LIG A   1      -8.829  -3.229 124.248  0.00  0.00    +0.032 C 
BRANCH   6   7
ATOM      7  C   LIG A   1      -7.406  -3.716 124.327  0.00  0.00    -0.028 C 
ATOM      8  C   LIG A   1      -6.302  -3.118 123.840  0.00  0.00    -0.080 C 
ATOM      9  C   LIG A   1      -6.281  -1.820 123.081  0.00  0.00    +0.038 C 
ATOM     10  C   LIG A   1      -4.943  -3.742 124.032  0.00  0.00    +0.038 C 
ENDBRANCH   6   7
ENDBRANCH   1   6
TORSDOF 4
ENDMDL
MODEL 7
REMARK VINA RESULT:      -4.5      1.425      4.359
REMARK  Name = NuBBE_1747
REMARK  6 active torsions:
REMARK  status: ('A' for Active; 'I' for Inactive)
REMARK    1  A    between atoms: C_1  and  C_3
REMARK    2  A    between atoms: C_1  and  C_9
REMARK    3  A    between atoms: C_3  and  C_4
REMARK    4  A    between atoms: C_4  and  C_5
REMARK    5  A    between atoms: C_6  and  C_7
REMARK    6  A    between atoms: C_6  and  C_8
REMARK                            x       y       z     vdW  Elec       q    Type
REMARK                         _______ _______ _______ _____ _____    ______ ____
ROOT
ATOM      1  C   LIG A   1     -12.257   6.663 131.397  0.00  0.00    +0.038 C 
ENDROOT
BRANCH   1   2
ATOM      2  C   LIG A   1     -10.965   5.921 131.118  0.00  0.00    -0.055 C 
ATOM      3  C   LIG A   1     -10.993   4.737 130.484  0.00  0.00    +0.012 C 
BRANCH   2   4
ATOM      4  C   LIG A   1      -9.688   6.475 131.548  0.00  0.00    -0.005 C 
ATOM      5  C   LIG A   1      -8.709   6.929 130.759  0.00  0.00    +0.008 C 
ENDBRANCH   2   4
ENDBRANCH   1   2
BRANCH   1   6
ATOM      6  C   LIG A   1     -12.426   7.874 130.471  0.00  0.00    +0.032 C 
BRANCH   6   7
ATOM      7  C   LIG A   1     -12.730   7.448 129.059  0.00  0.00    -0.028 C 
ATOM      8  C   LIG A   1     -11.979   7.647 127.959  0.00  0.00    -0.080 C 
ATOM      9  C   LIG A   1     -10.663   8.373 127.925  0.00  0.00    +0.038 C 
ATOM     10  C   LIG A   1     -12.432   7.127 126.618  0.00  0.00    +0.038 C 
ENDBRANCH   6   7
ENDBRANCH   1   6
TORSDOF 4
ENDMDL
MODEL 8
REMARK VINA RESULT:      -4.3     10.151     11.562
REMARK  Name = NuBBE_1747
REMARK  6 active torsions:
REMARK  status: ('A' for Active; 'I' for Inactive)
REMARK    1  A    between atoms: C_1  and  C_3
REMARK    2  A    between atoms: C_1  and  C_9
REMARK    3  A    between atoms: C_3  and  C_4
REMARK    4  A    between atoms: C_4  and  C_5
REMARK    5  A    between atoms: C_6  and  C_7
REMARK    6  A    between atoms: C_6  and  C_8
REMARK                            x       y       z     vdW  Elec       q    Type
REMARK                         _______ _______ _______ _____ _____    ______ ____
ROOT
ATOM      1  C   LIG A   1      -6.943  -1.663 125.509  0.00  0.00    +0.038 C 
ENDROOT
BRANCH   1   2
ATOM      2  C   LIG A   1      -7.096  -2.911 124.662  0.00  0.00    -0.055 C 
ATOM      3  C   LIG A   1      -6.014  -3.492 124.119  0.00  0.00    +0.012 C 
BRANCH   2   4
ATOM      4  C   LIG A   1      -8.415  -3.479 124.418  0.00  0.00    -0.005 C 
ATOM      5  C   LIG A   1      -9.268  -3.129 123.449  0.00  0.00    +0.008 C 
ENDBRANCH   2   4
ENDBRANCH   1   2
BRANCH   1   6
ATOM      6  C   LIG A   1      -8.121  -1.485 126.474  0.00  0.00    +0.032 C 
BRANCH   6   7
ATOM      7  C   LIG A   1      -7.752  -1.897 127.874  0.00  0.00    -0.028 C 
ATOM      8  C   LIG A   1      -8.131  -3.009 128.534  0.00  0.00    -0.080 C 
ATOM      9  C   LIG A   1      -9.040  -4.075 127.988  0.00  0.00    +0.038 C 
ATOM     10  C   LIG A   1      -7.642  -3.273 129.936  0.00  0.00    +0.038 C 
ENDBRANCH   6   7
ENDBRANCH   1   6
TORSDOF 4
ENDMDL
MODEL 9
REMARK VINA RESULT:      -4.2      9.876     11.736
REMARK  Name = NuBBE_1747
REMARK  6 active torsions:
REMARK  status: ('A' for Active; 'I' for Inactive)
REMARK    1  A    between atoms: C_1  and  C_3
REMARK    2  A    between atoms: C_1  and  C_9
REMARK    3  A    between atoms: C_3  and  C_4
REMARK    4  A    between atoms: C_4  and  C_5
REMARK    5  A    between atoms: C_6  and  C_7
REMARK    6  A    between atoms: C_6  and  C_8
REMARK                            x       y       z     vdW  Elec       q    Type
REMARK                         _______ _______ _______ _____ _____    ______ ____
ROOT
ATOM      1  C   LIG A   1      -7.462  -0.950 125.929  0.00  0.00    +0.038 C 
ENDROOT
BRANCH   1   2
ATOM      2  C   LIG A   1      -8.577  -1.256 124.949  0.00  0.00    -0.055 C 
ATOM      3  C   LIG A   1      -9.070  -0.283 124.165  0.00  0.00    +0.012 C 
BRANCH   2   4
ATOM      4  C   LIG A   1      -9.132  -2.601 124.860  0.00  0.00    -0.005 C 
ATOM      5  C   LIG A   1      -9.347  -3.303 123.742  0.00  0.00    +0.008 C 
ENDBRANCH   2   4
ENDBRANCH   1   2
BRANCH   1   6
ATOM      6  C   LIG A   1      -6.130  -0.697 125.212  0.00  0.00    +0.032 C 
BRANCH   6   7
ATOM      7  C   LIG A   1      -5.425  -1.988 124.890  0.00  0.00    -0.028 C 
ATOM      8  C   LIG A   1      -5.359  -2.617 123.701  0.00  0.00    -0.080 C 
ATOM      9  C   LIG A   1      -6.016  -2.146 122.432  0.00  0.00    +0.038 C 
ATOM     10  C   LIG A   1      -4.583  -3.900 123.553  0.00  0.00    +0.038 C 
ENDBRANCH   6   7
ENDBRANCH   1   6
TORSDOF 4
ENDMDL
