MODEL 1
REMARK VINA RESULT:      -7.5      0.000      0.000
REMARK  Name = NuBBE_411
REMARK  3 active torsions:
REMARK  status: ('A' for Active; 'I' for Inactive)
REMARK    1  A    between atoms: C_1  and  C_2
REMARK    2  A    between atoms: C_4  and  O_5
REMARK    3  A    between atoms: C_15  and  O_16
REMARK                            x       y       z     vdW  Elec       q    Type
REMARK                         _______ _______ _______ _____ _____    ______ ____
ROOT
ATOM      1  C   LIG A   1     -13.279   9.594 128.726  0.00  0.00    +0.044 C 
ATOM      2  C   LIG A   1     -12.223   8.530 128.777  0.00  0.00    -0.046 A 
ATOM      3  C   LIG A   1     -11.573   8.090 127.621  0.00  0.00    +0.049 A 
ATOM      4  C   LIG A   1     -10.589   7.095 127.694  0.00  0.00    +0.129 A 
ATOM      5  C   LIG A   1     -11.875   7.960 130.004  0.00  0.00    +0.016 A 
ATOM      6  C   LIG A   1     -10.889   6.962 130.076  0.00  0.00    +0.037 A 
ATOM      7  C   LIG A   1     -10.234   6.517 128.925  0.00  0.00    +0.074 A 
ATOM      8  C   LIG A   1      -9.194   5.458 129.044  0.00  0.00    +0.198 C 
ATOM      9  C   LIG A   1      -8.878   4.900 130.378  0.00  0.00    +0.033 A 
ATOM     10  C   LIG A   1      -9.541   5.354 131.514  0.00  0.00    +0.036 A 
ATOM     11  C   LIG A   1     -10.567   6.400 131.402  0.00  0.00    +0.195 C 
ATOM     12  O   LIG A   1     -11.148   6.799 132.406  0.00  0.00    -0.287 OA
ATOM     13  C   LIG A   1      -9.239   4.823 132.776  0.00  0.00    +0.057 A 
ATOM     14  C   LIG A   1      -8.269   3.834 132.884  0.00  0.00    +0.118 A 
ATOM     15  C   LIG A   1      -7.598   3.370 131.758  0.00  0.00    +0.046 A 
ATOM     16  C   LIG A   1      -7.901   3.901 130.503  0.00  0.00    +0.016 A 
ATOM     17  O   LIG A   1      -8.580   5.021 128.078  0.00  0.00    -0.286 OA
ENDROOT
BRANCH   4  18
ATOM     18  O   LIG A   1      -9.985   6.700 126.535  0.00  0.00    -0.506 OA
ATOM     19  H   LIG A   1      -9.055   6.975 126.520  0.00  0.00    +0.292 HD
ENDBRANCH   4  18
BRANCH  14  20
ATOM     20  O   LIG A   1      -7.943   3.289 134.089  0.00  0.00    -0.507 OA
ATOM     21  H   LIG A   1      -7.256   3.834 134.509  0.00  0.00    +0.292 HD
ENDBRANCH  14  20
TORSDOF 2
ENDMDL
MODEL 2
REMARK VINA RESULT:      -7.4      9.494     10.833
REMARK  Name = NuBBE_411
REMARK  3 active torsions:
REMARK  status: ('A' for Active; 'I' for Inactive)
REMARK    1  A    between atoms: C_1  and  C_2
REMARK    2  A    between atoms: C_4  and  O_5
REMARK    3  A    between atoms: C_15  and  O_16
REMARK                            x       y       z     vdW  Elec       q    Type
REMARK                         _______ _______ _______ _____ _____    ______ ____
ROOT
ATOM      1  C   LIG A   1      -6.767  -3.389 132.492  0.00  0.00    +0.044 C 
ATOM      2  C   LIG A   1      -6.593  -2.978 131.060  0.00  0.00    -0.046 A 
ATOM      3  C   LIG A   1      -5.487  -2.232 130.644  0.00  0.00    +0.049 A 
ATOM      4  C   LIG A   1      -5.346  -1.860 129.301  0.00  0.00    +0.129 A 
ATOM      5  C   LIG A   1      -7.553  -3.344 130.114  0.00  0.00    +0.016 A 
ATOM      6  C   LIG A   1      -7.411  -2.970 128.768  0.00  0.00    +0.037 A 
ATOM      7  C   LIG A   1      -6.308  -2.225 128.344  0.00  0.00    +0.074 A 
ATOM      8  C   LIG A   1      -6.194  -1.849 126.907  0.00  0.00    +0.198 C 
ATOM      9  C   LIG A   1      -7.251  -2.272 125.962  0.00  0.00    +0.033 A 
ATOM     10  C   LIG A   1      -8.344  -3.013 126.402  0.00  0.00    +0.036 A 
ATOM     11  C   LIG A   1      -8.460  -3.388 127.818  0.00  0.00    +0.195 C 
ATOM     12  O   LIG A   1      -9.424  -4.043 128.201  0.00  0.00    -0.287 OA
ATOM     13  C   LIG A   1      -9.343  -3.412 125.503  0.00  0.00    +0.057 A 
ATOM     14  C   LIG A   1      -9.235  -3.059 124.163  0.00  0.00    +0.118 A 
ATOM     15  C   LIG A   1      -8.149  -2.319 123.709  0.00  0.00    +0.046 A 
ATOM     16  C   LIG A   1      -7.156  -1.924 124.607  0.00  0.00    +0.016 A 
ATOM     17  O   LIG A   1      -5.254  -1.198 126.466  0.00  0.00    -0.286 OA
ENDROOT
BRANCH   4  18
ATOM     18  O   LIG A   1      -4.247  -1.130 128.946  0.00  0.00    -0.506 OA
ATOM     19  H   LIG A   1      -4.244  -0.272 129.398  0.00  0.00    +0.292 HD
ENDBRANCH   4  18
BRANCH  14  20
ATOM     20  O   LIG A   1     -10.182  -3.425 123.255  0.00  0.00    -0.507 OA
ATOM     21  H   LIG A   1     -10.906  -3.880 123.717  0.00  0.00    +0.292 HD
ENDBRANCH  14  20
TORSDOF 2
ENDMDL
MODEL 3
REMARK VINA RESULT:      -7.2      7.979      9.762
REMARK  Name = NuBBE_411
REMARK  3 active torsions:
REMARK  status: ('A' for Active; 'I' for Inactive)
REMARK    1  A    between atoms: C_1  and  C_2
REMARK    2  A    between atoms: C_4  and  O_5
REMARK    3  A    between atoms: C_15  and  O_16
REMARK                            x       y       z     vdW  Elec       q    Type
REMARK                         _______ _______ _______ _____ _____    ______ ____
ROOT
ATOM      1  C   LIG A   1      -8.867  -3.923 127.783  0.00  0.00    +0.044 C 
ATOM      2  C   LIG A   1      -8.148  -2.711 127.268  0.00  0.00    -0.046 A 
ATOM      3  C   LIG A   1      -6.900  -2.334 127.770  0.00  0.00    +0.049 A 
ATOM      4  C   LIG A   1      -6.248  -1.197 127.273  0.00  0.00    +0.129 A 
ATOM      5  C   LIG A   1      -8.732  -1.936 126.264  0.00  0.00    +0.016 A 
ATOM      6  C   LIG A   1      -8.079  -0.797 125.766  0.00  0.00    +0.037 A 
ATOM      7  C   LIG A   1      -6.831  -0.413 126.263  0.00  0.00    +0.074 A 
ATOM      8  C   LIG A   1      -6.169   0.801 125.708  0.00  0.00    +0.198 C 
ATOM      9  C   LIG A   1      -6.850   1.574 124.645  0.00  0.00    +0.033 A 
ATOM     10  C   LIG A   1      -8.093   1.178 124.163  0.00  0.00    +0.036 A 
ATOM     11  C   LIG A   1      -8.749  -0.020 124.706  0.00  0.00    +0.195 C 
ATOM     12  O   LIG A   1      -9.845  -0.366 124.277  0.00  0.00    -0.287 OA
ATOM     13  C   LIG A   1      -8.735   1.913 123.156  0.00  0.00    +0.057 A 
ATOM     14  C   LIG A   1      -8.116   3.046 122.641  0.00  0.00    +0.118 A 
ATOM     15  C   LIG A   1      -6.874   3.454 123.112  0.00  0.00    +0.046 A 
ATOM     16  C   LIG A   1      -6.238   2.719 124.115  0.00  0.00    +0.016 A 
ATOM     17  O   LIG A   1      -5.076   1.194 126.095  0.00  0.00    -0.286 OA
ENDROOT
BRANCH   4  18
ATOM     18  O   LIG A   1      -5.030  -0.872 127.799  0.00  0.00    -0.506 OA
ATOM     19  H   LIG A   1      -5.128  -0.506 128.691  0.00  0.00    +0.292 HD
ENDBRANCH   4  18
BRANCH  14  20
ATOM     20  O   LIG A   1      -8.702   3.790 121.662  0.00  0.00    -0.507 OA
ATOM     21  H   LIG A   1      -9.596   3.447 121.493  0.00  0.00    +0.292 HD
ENDBRANCH  14  20
TORSDOF 2
ENDMDL
MODEL 4
REMARK VINA RESULT:      -7.1      7.161      9.527
REMARK  Name = NuBBE_411
REMARK  3 active torsions:
REMARK  status: ('A' for Active; 'I' for Inactive)
REMARK    1  A    between atoms: C_1  and  C_2
REMARK    2  A    between atoms: C_4  and  O_5
REMARK    3  A    between atoms: C_15  and  O_16
REMARK                            x       y       z     vdW  Elec       q    Type
REMARK                         _______ _______ _______ _____ _____    ______ ____
ROOT
ATOM      1  C   LIG A   1      -7.908  -3.621 128.944  0.00  0.00    +0.044 C 
ATOM      2  C   LIG A   1      -8.176  -2.806 127.714  0.00  0.00    -0.046 A 
ATOM      3  C   LIG A   1      -8.964  -3.297 126.670  0.00  0.00    +0.049 A 
ATOM      4  C   LIG A   1      -9.199  -2.517 125.530  0.00  0.00    +0.129 A 
ATOM      5  C   LIG A   1      -7.629  -1.525 127.600  0.00  0.00    +0.016 A 
ATOM      6  C   LIG A   1      -7.866  -0.744 126.458  0.00  0.00    +0.037 A 
ATOM      7  C   LIG A   1      -8.653  -1.228 125.410  0.00  0.00    +0.074 A 
ATOM      8  C   LIG A   1      -8.881  -0.368 124.215  0.00  0.00    +0.198 C 
ATOM      9  C   LIG A   1      -8.268   0.979 124.165  0.00  0.00    +0.033 A 
ATOM     10  C   LIG A   1      -7.487   1.445 125.218  0.00  0.00    +0.036 A 
ATOM     11  C   LIG A   1      -7.260   0.600 126.399  0.00  0.00    +0.195 C 
ATOM     12  O   LIG A   1      -6.571   1.015 127.326  0.00  0.00    -0.287 OA
ATOM     13  C   LIG A   1      -6.908   2.720 125.166  0.00  0.00    +0.057 A 
ATOM     14  C   LIG A   1      -7.122   3.520 124.050  0.00  0.00    +0.118 A 
ATOM     15  C   LIG A   1      -7.901   3.069 122.990  0.00  0.00    +0.046 A 
ATOM     16  C   LIG A   1      -8.475   1.798 123.045  0.00  0.00    +0.016 A 
ATOM     17  O   LIG A   1      -9.560  -0.727 123.261  0.00  0.00    -0.286 OA
ENDROOT
BRANCH   4  18
ATOM     18  O   LIG A   1      -9.975  -3.044 124.537  0.00  0.00    -0.506 OA
ATOM     19  H   LIG A   1     -10.867  -2.662 124.558  0.00  0.00    +0.292 HD
ENDBRANCH   4  18
BRANCH  14  20
ATOM     20  O   LIG A   1      -6.580   4.767 123.957  0.00  0.00    -0.507 OA
ATOM     21  H   LIG A   1      -5.625   4.712 124.135  0.00  0.00    +0.292 HD
ENDBRANCH  14  20
TORSDOF 2
ENDMDL
MODEL 5
REMARK VINA RESULT:      -6.8      7.346      8.475
REMARK  Name = NuBBE_411
REMARK  3 active torsions:
REMARK  status: ('A' for Active; 'I' for Inactive)
REMARK    1  A    between atoms: C_1  and  C_2
REMARK    2  A    between atoms: C_4  and  O_5
REMARK    3  A    between atoms: C_15  and  O_16
REMARK                            x       y       z     vdW  Elec       q    Type
REMARK                         _______ _______ _______ _____ _____    ______ ____
ROOT
ATOM      1  C   LIG A   1      -7.728   3.316 123.417  0.00  0.00    +0.044 C 
ATOM      2  C   LIG A   1      -8.093   1.946 123.905  0.00  0.00    -0.046 A 
ATOM      3  C   LIG A   1      -8.832   1.062 123.115  0.00  0.00    +0.049 A 
ATOM      4  C   LIG A   1      -9.160  -0.214 123.593  0.00  0.00    +0.129 A 
ATOM      5  C   LIG A   1      -7.689   1.535 125.178  0.00  0.00    +0.016 A 
ATOM      6  C   LIG A   1      -8.019   0.257 125.656  0.00  0.00    +0.037 A 
ATOM      7  C   LIG A   1      -8.757  -0.633 124.872  0.00  0.00    +0.074 A 
ATOM      8  C   LIG A   1      -9.086  -1.981 125.415  0.00  0.00    +0.198 C 
ATOM      9  C   LIG A   1      -8.625  -2.346 126.773  0.00  0.00    +0.033 A 
ATOM     10  C   LIG A   1      -7.891  -1.447 127.541  0.00  0.00    +0.036 A 
ATOM     11  C   LIG A   1      -7.562  -0.117 127.009  0.00  0.00    +0.195 C 
ATOM     12  O   LIG A   1      -6.914   0.673 127.689  0.00  0.00    -0.287 OA
ATOM     13  C   LIG A   1      -7.456  -1.796 128.827  0.00  0.00    +0.057 A 
ATOM     14  C   LIG A   1      -7.764  -3.054 129.332  0.00  0.00    +0.118 A 
ATOM     15  C   LIG A   1      -8.497  -3.963 128.577  0.00  0.00    +0.046 A 
ATOM     16  C   LIG A   1      -8.928  -3.611 127.296  0.00  0.00    +0.016 A 
ATOM     17  O   LIG A   1      -9.728  -2.810 124.783  0.00  0.00    -0.286 OA
ENDROOT
BRANCH   4  18
ATOM     18  O   LIG A   1      -9.885  -1.039 122.781  0.00  0.00    -0.506 OA
ATOM     19  H   LIG A   1     -10.634  -1.424 123.262  0.00  0.00    +0.292 HD
ENDBRANCH   4  18
BRANCH  14  20
ATOM     20  O   LIG A   1      -7.363  -3.437 130.576  0.00  0.00    -0.507 OA
ATOM     21  H   LIG A   1      -8.073  -3.952 130.995  0.00  0.00    +0.292 HD
ENDBRANCH  14  20
TORSDOF 2
ENDMDL
MODEL 6
REMARK VINA RESULT:      -6.7      7.012      9.487
REMARK  Name = NuBBE_411
REMARK  3 active torsions:
REMARK  status: ('A' for Active; 'I' for Inactive)
REMARK    1  A    between atoms: C_1  and  C_2
REMARK    2  A    between atoms: C_4  and  O_5
REMARK    3  A    between atoms: C_15  and  O_16
REMARK                            x       y       z     vdW  Elec       q    Type
REMARK                         _______ _______ _______ _____ _____    ______ ____
ROOT
ATOM      1  C   LIG A   1      -9.735  -3.290 123.214  0.00  0.00    +0.044 C 
ATOM      2  C   LIG A   1      -8.724  -2.377 123.842  0.00  0.00    -0.046 A 
ATOM      3  C   LIG A   1      -7.645  -2.877 124.576  0.00  0.00    +0.049 A 
ATOM      4  C   LIG A   1      -6.714  -2.003 125.154  0.00  0.00    +0.129 A 
ATOM      5  C   LIG A   1      -8.856  -0.994 123.696  0.00  0.00    +0.016 A 
ATOM      6  C   LIG A   1      -7.923  -0.119 124.276  0.00  0.00    +0.037 A 
ATOM      7  C   LIG A   1      -6.841  -0.612 125.011  0.00  0.00    +0.074 A 
ATOM      8  C   LIG A   1      -5.872   0.348 125.609  0.00  0.00    +0.198 C 
ATOM      9  C   LIG A   1      -6.077   1.801 125.413  0.00  0.00    +0.033 A 
ATOM     10  C   LIG A   1      -7.161   2.274 124.678  0.00  0.00    +0.036 A 
ATOM     11  C   LIG A   1      -8.119   1.330 124.085  0.00  0.00    +0.195 C 
ATOM     12  O   LIG A   1      -9.072   1.751 123.437  0.00  0.00    -0.287 OA
ATOM     13  C   LIG A   1      -7.352   3.651 124.495  0.00  0.00    +0.057 A 
ATOM     14  C   LIG A   1      -6.447   4.544 125.055  0.00  0.00    +0.118 A 
ATOM     15  C   LIG A   1      -5.360   4.087 125.791  0.00  0.00    +0.046 A 
ATOM     16  C   LIG A   1      -5.173   2.715 125.972  0.00  0.00    +0.016 A 
ATOM     17  O   LIG A   1      -4.902  -0.012 126.264  0.00  0.00    -0.286 OA
ENDROOT
BRANCH   4  18
ATOM     18  O   LIG A   1      -5.679  -2.543 125.862  0.00  0.00    -0.506 OA
ATOM     19  H   LIG A   1      -6.007  -3.162 126.534  0.00  0.00    +0.292 HD
ENDBRANCH   4  18
BRANCH  14  20
ATOM     20  O   LIG A   1      -6.593   5.890 124.903  0.00  0.00    -0.507 OA
ATOM     21  H   LIG A   1      -7.535   6.118 124.976  0.00  0.00    +0.292 HD
ENDBRANCH  14  20
TORSDOF 2
ENDMDL
MODEL 7
REMARK VINA RESULT:      -6.6      7.361      9.060
REMARK  Name = NuBBE_411
REMARK  3 active torsions:
REMARK  status: ('A' for Active; 'I' for Inactive)
REMARK    1  A    between atoms: C_1  and  C_2
REMARK    2  A    between atoms: C_4  and  O_5
REMARK    3  A    between atoms: C_15  and  O_16
REMARK                            x       y       z     vdW  Elec       q    Type
REMARK                         _______ _______ _______ _____ _____    ______ ____
ROOT
ATOM      1  C   LIG A   1      -2.968   3.235 127.338  0.00  0.00    +0.044 C 
ATOM      2  C   LIG A   1      -4.184   3.116 126.469  0.00  0.00    -0.046 A 
ATOM      3  C   LIG A   1      -4.783   4.239 125.893  0.00  0.00    +0.049 A 
ATOM      4  C   LIG A   1      -5.919   4.102 125.084  0.00  0.00    +0.129 A 
ATOM      5  C   LIG A   1      -4.737   1.857 126.223  0.00  0.00    +0.016 A 
ATOM      6  C   LIG A   1      -5.876   1.720 125.412  0.00  0.00    +0.037 A 
ATOM      7  C   LIG A   1      -6.480   2.839 124.833  0.00  0.00    +0.074 A 
ATOM      8  C   LIG A   1      -7.686   2.652 123.978  0.00  0.00    +0.198 C 
ATOM      9  C   LIG A   1      -8.217   1.287 123.764  0.00  0.00    +0.033 A 
ATOM     10  C   LIG A   1      -7.602   0.184 124.349  0.00  0.00    +0.036 A 
ATOM     11  C   LIG A   1      -6.411   0.364 125.192  0.00  0.00    +0.195 C 
ATOM     12  O   LIG A   1      -5.872  -0.611 125.705  0.00  0.00    -0.287 OA
ATOM     13  C   LIG A   1      -8.108  -1.107 124.143  0.00  0.00    +0.057 A 
ATOM     14  C   LIG A   1      -9.234  -1.278 123.346  0.00  0.00    +0.118 A 
ATOM     15  C   LIG A   1      -9.859  -0.186 122.755  0.00  0.00    +0.046 A 
ATOM     16  C   LIG A   1      -9.352   1.098 122.962  0.00  0.00    +0.016 A 
ATOM     17  O   LIG A   1      -8.266   3.586 123.439  0.00  0.00    -0.286 OA
ENDROOT
BRANCH   4  18
ATOM     18  O   LIG A   1      -6.467   5.232 124.546  0.00  0.00    -0.506 OA
ATOM     19  H   LIG A   1      -6.010   6.024 124.871  0.00  0.00    +0.292 HD
ENDBRANCH   4  18
BRANCH  14  20
ATOM     20  O   LIG A   1      -9.760  -2.514 123.119  0.00  0.00    -0.507 OA
ATOM     21  H   LIG A   1     -10.730  -2.454 123.135  0.00  0.00    +0.292 HD
ENDBRANCH  14  20
TORSDOF 2
ENDMDL
MODEL 8
REMARK VINA RESULT:      -6.6      4.021      6.442
REMARK  Name = NuBBE_411
REMARK  3 active torsions:
REMARK  status: ('A' for Active; 'I' for Inactive)
REMARK    1  A    between atoms: C_1  and  C_2
REMARK    2  A    between atoms: C_4  and  O_5
REMARK    3  A    between atoms: C_15  and  O_16
REMARK                            x       y       z     vdW  Elec       q    Type
REMARK                         _______ _______ _______ _____ _____    ______ ____
ROOT
ATOM      1  C   LIG A   1      -0.824   6.220 132.155  0.00  0.00    +0.044 C 
ATOM      2  C   LIG A   1      -2.287   6.421 131.893  0.00  0.00    -0.046 A 
ATOM      3  C   LIG A   1      -2.739   7.354 130.957  0.00  0.00    +0.049 A 
ATOM      4  C   LIG A   1      -4.112   7.524 130.730  0.00  0.00    +0.129 A 
ATOM      5  C   LIG A   1      -3.226   5.663 132.597  0.00  0.00    +0.016 A 
ATOM      6  C   LIG A   1      -4.601   5.834 132.369  0.00  0.00    +0.037 A 
ATOM      7  C   LIG A   1      -5.061   6.765 131.434  0.00  0.00    +0.074 A 
ATOM      8  C   LIG A   1      -6.528   6.916 131.220  0.00  0.00    +0.198 C 
ATOM      9  C   LIG A   1      -7.464   6.078 132.003  0.00  0.00    +0.033 A 
ATOM     10  C   LIG A   1      -6.988   5.156 132.931  0.00  0.00    +0.036 A 
ATOM     11  C   LIG A   1      -5.542   5.003 133.144  0.00  0.00    +0.195 C 
ATOM     12  O   LIG A   1      -5.126   4.188 133.962  0.00  0.00    -0.287 OA
ATOM     13  C   LIG A   1      -7.877   4.365 133.671  0.00  0.00    +0.057 A 
ATOM     14  C   LIG A   1      -9.245   4.508 133.470  0.00  0.00    +0.118 A 
ATOM     15  C   LIG A   1      -9.736   5.425 132.547  0.00  0.00    +0.046 A 
ATOM     16  C   LIG A   1      -8.847   6.211 131.812  0.00  0.00    +0.016 A 
ATOM     17  O   LIG A   1      -7.001   7.710 130.417  0.00  0.00    -0.286 OA
ENDROOT
BRANCH   4  18
ATOM     18  O   LIG A   1      -4.501   8.450 129.804  0.00  0.00    -0.506 OA
ATOM     19  H   LIG A   1      -5.457   8.609 129.857  0.00  0.00    +0.292 HD
ENDBRANCH   4  18
BRANCH  14  20
ATOM     20  O   LIG A   1     -10.146   3.761 134.166  0.00  0.00    -0.507 OA
ATOM     21  H   LIG A   1     -10.526   4.304 134.878  0.00  0.00    +0.292 HD
ENDBRANCH  14  20
TORSDOF 2
ENDMDL
MODEL 9
REMARK VINA RESULT:      -6.3      6.274      7.934
REMARK  Name = NuBBE_411
REMARK  3 active torsions:
REMARK  status: ('A' for Active; 'I' for Inactive)
REMARK    1  A    between atoms: C_1  and  C_2
REMARK    2  A    between atoms: C_4  and  O_5
REMARK    3  A    between atoms: C_15  and  O_16
REMARK                            x       y       z     vdW  Elec       q    Type
REMARK                         _______ _______ _______ _____ _____    ______ ____
ROOT
ATOM      1  C   LIG A   1      -5.148   5.021 119.920  0.00  0.00    +0.044 C 
ATOM      2  C   LIG A   1      -6.014   4.358 120.949  0.00  0.00    -0.046 A 
ATOM      3  C   LIG A   1      -7.291   3.885 120.634  0.00  0.00    +0.049 A 
ATOM      4  C   LIG A   1      -8.081   3.268 121.613  0.00  0.00    +0.129 A 
ATOM      5  C   LIG A   1      -5.543   4.205 122.255  0.00  0.00    +0.016 A 
ATOM      6  C   LIG A   1      -6.336   3.587 123.235  0.00  0.00    +0.037 A 
ATOM      7  C   LIG A   1      -7.613   3.111 122.928  0.00  0.00    +0.074 A 
ATOM      8  C   LIG A   1      -8.423   2.461 123.996  0.00  0.00    +0.198 C 
ATOM      9  C   LIG A   1      -7.857   2.335 125.358  0.00  0.00    +0.033 A 
ATOM     10  C   LIG A   1      -6.584   2.815 125.647  0.00  0.00    +0.036 A 
ATOM     11  C   LIG A   1      -5.780   3.456 124.596  0.00  0.00    +0.195 C 
ATOM     12  O   LIG A   1      -4.657   3.877 124.854  0.00  0.00    -0.287 OA
ATOM     13  C   LIG A   1      -6.052   2.694 126.938  0.00  0.00    +0.057 A 
ATOM     14  C   LIG A   1      -6.810   2.087 127.932  0.00  0.00    +0.118 A 
ATOM     15  C   LIG A   1      -8.084   1.602 127.659  0.00  0.00    +0.046 A 
ATOM     16  C   LIG A   1      -8.610   1.725 126.372  0.00  0.00    +0.016 A 
ATOM     17  O   LIG A   1      -9.549   2.021 123.797  0.00  0.00    -0.286 OA
ENDROOT
BRANCH   4  18
ATOM     18  O   LIG A   1      -9.322   2.825 121.253  0.00  0.00    -0.506 OA
ATOM     19  H   LIG A   1      -9.426   2.840 120.288  0.00  0.00    +0.292 HD
ENDBRANCH   4  18
BRANCH  14  20
ATOM     20  O   LIG A   1      -6.334   1.948 129.201  0.00  0.00    -0.507 OA
ATOM     21  H   LIG A   1      -6.517   1.044 129.512  0.00  0.00    +0.292 HD
ENDBRANCH  14  20
TORSDOF 2
ENDMDL
