MODEL 1
REMARK VINA RESULT:      -6.5      0.000      0.000
REMARK  Name = NuBBE_1543
REMARK  7 active torsions:
REMARK  status: ('A' for Active; 'I' for Inactive)
REMARK    1  A    between atoms: C_1  and  C_2
REMARK    2  A    between atoms: C_2  and  C_3
REMARK    3  A    between atoms: C_4  and  C_5
REMARK    4  A    between atoms: C_5  and  C_6
REMARK    5  A    between atoms: C_7  and  C_8
REMARK    6  A    between atoms: C_7  and  C_15
REMARK    7  A    between atoms: C_11  and  C_12
REMARK                            x       y       z     vdW  Elec       q    Type
REMARK                         _______ _______ _______ _____ _____    ______ ____
ROOT
ATOM      1  C   LIG A   1      -8.182  -3.004 126.356  0.00  0.00    -0.024 C 
ATOM      2  C   LIG A   1      -8.236  -3.064 127.706  0.00  0.00    -0.073 C 
ATOM      3  C   LIG A   1      -9.123  -4.111 128.343  0.00  0.00    +0.039 C 
ENDROOT
BRANCH   2   4
ATOM      4  C   LIG A   1      -7.468  -2.109 128.629  0.00  0.00    +0.018 C 
ATOM      5  C   LIG A   1      -5.946  -2.319 128.584  0.00  0.00    +0.012 C 
ATOM      6  C   LIG A   1      -5.456  -3.527 129.387  0.00  0.00    +0.030 C 
ATOM      7  C   LIG A   1      -6.175  -3.726 130.700  0.00  0.00    -0.076 C 
ATOM      8  C   LIG A   1      -5.571  -4.739 131.632  0.00  0.00    +0.038 C 
ATOM      9  C   LIG A   1      -7.291  -3.050 131.013  0.00  0.00    -0.027 C 
ATOM     10  C   LIG A   1      -7.960  -2.064 130.095  0.00  0.00    +0.035 C 
ENDBRANCH   2   4
BRANCH   1  11
ATOM     11  C   LIG A   1      -7.389  -2.073 125.480  0.00  0.00    +0.054 C 
BRANCH  11  15
ATOM     12  C   LIG A   1      -4.388  -3.436 123.344  0.00  0.00    +0.038 C 
ATOM     13  C   LIG A   1      -5.653  -2.698 123.697  0.00  0.00    -0.079 C 
ATOM     14  C   LIG A   1      -6.286  -1.966 122.546  0.00  0.00    +0.038 C 
ATOM     15  C   LIG A   1      -6.149  -2.742 124.950  0.00  0.00    -0.024 C 
ENDBRANCH  11  15
ENDBRANCH   1  11
TORSDOF 3
ENDMDL
MODEL 2
REMARK VINA RESULT:      -6.4     10.376     12.418
REMARK  Name = NuBBE_1543
REMARK  7 active torsions:
REMARK  status: ('A' for Active; 'I' for Inactive)
REMARK    1  A    between atoms: C_1  and  C_2
REMARK    2  A    between atoms: C_2  and  C_3
REMARK    3  A    between atoms: C_4  and  C_5
REMARK    4  A    between atoms: C_5  and  C_6
REMARK    5  A    between atoms: C_7  and  C_8
REMARK    6  A    between atoms: C_7  and  C_15
REMARK    7  A    between atoms: C_11  and  C_12
REMARK                            x       y       z     vdW  Elec       q    Type
REMARK                         _______ _______ _______ _____ _____    ______ ____
ROOT
ATOM      1  C   LIG A   1      -9.915   7.159 129.216  0.00  0.00    -0.024 C 
ATOM      2  C   LIG A   1     -11.030   7.368 128.480  0.00  0.00    -0.073 C 
ATOM      3  C   LIG A   1     -10.869   7.779 127.034  0.00  0.00    +0.039 C 
ENDROOT
BRANCH   2   4
ATOM      4  C   LIG A   1     -12.452   7.239 129.041  0.00  0.00    +0.018 C 
ATOM      5  C   LIG A   1     -13.504   7.978 128.197  0.00  0.00    +0.012 C 
ATOM      6  C   LIG A   1     -13.528   9.494 128.413  0.00  0.00    +0.030 C 
ATOM      7  C   LIG A   1     -13.330   9.914 129.850  0.00  0.00    -0.076 C 
ATOM      8  C   LIG A   1     -13.592  11.362 130.152  0.00  0.00    +0.038 C 
ATOM      9  C   LIG A   1     -12.933   9.051 130.798  0.00  0.00    -0.027 C 
ATOM     10  C   LIG A   1     -12.612   7.605 130.536  0.00  0.00    +0.035 C 
ENDBRANCH   2   4
BRANCH   1  11
ATOM     11  C   LIG A   1      -9.793   6.746 130.658  0.00  0.00    +0.054 C 
BRANCH  11  15
ATOM     12  C   LIG A   1      -8.887   2.928 130.801  0.00  0.00    +0.038 C 
ATOM     13  C   LIG A   1      -9.703   4.183 130.631  0.00  0.00    -0.079 C 
ATOM     14  C   LIG A   1     -11.152   3.942 130.308  0.00  0.00    +0.038 C 
ATOM     15  C   LIG A   1      -9.139   5.398 130.789  0.00  0.00    -0.024 C 
ENDBRANCH  11  15
ENDBRANCH   1  11
TORSDOF 3
ENDMDL
MODEL 3
REMARK VINA RESULT:      -6.4      3.032      5.687
REMARK  Name = NuBBE_1543
REMARK  7 active torsions:
REMARK  status: ('A' for Active; 'I' for Inactive)
REMARK    1  A    between atoms: C_1  and  C_2
REMARK    2  A    between atoms: C_2  and  C_3
REMARK    3  A    between atoms: C_4  and  C_5
REMARK    4  A    between atoms: C_5  and  C_6
REMARK    5  A    between atoms: C_7  and  C_8
REMARK    6  A    between atoms: C_7  and  C_15
REMARK    7  A    between atoms: C_11  and  C_12
REMARK                            x       y       z     vdW  Elec       q    Type
REMARK                         _______ _______ _______ _____ _____    ______ ____
ROOT
ATOM      1  C   LIG A   1      -8.705  -0.105 126.250  0.00  0.00    -0.024 C 
ATOM      2  C   LIG A   1      -7.984  -1.137 125.758  0.00  0.00    -0.073 C 
ATOM      3  C   LIG A   1      -6.935  -1.768 126.646  0.00  0.00    +0.039 C 
ENDROOT
BRANCH   2   4
ATOM      4  C   LIG A   1      -8.150  -1.686 124.335  0.00  0.00    +0.018 C 
ATOM      5  C   LIG A   1      -8.248  -3.220 124.286  0.00  0.00    +0.012 C 
ATOM      6  C   LIG A   1      -6.903  -3.938 124.432  0.00  0.00    +0.030 C 
ATOM      7  C   LIG A   1      -5.763  -3.263 123.708  0.00  0.00    -0.076 C 
ATOM      8  C   LIG A   1      -4.488  -4.052 123.613  0.00  0.00    +0.038 C 
ATOM      9  C   LIG A   1      -5.876  -2.030 123.191  0.00  0.00    -0.027 C 
ATOM     10  C   LIG A   1      -7.113  -1.183 123.303  0.00  0.00    +0.035 C 
ENDBRANCH   2   4
BRANCH   1  11
ATOM     11  C   LIG A   1      -9.797   0.690 125.587  0.00  0.00    +0.054 C 
BRANCH  11  15
ATOM     12  C   LIG A   1      -8.771   2.794 122.434  0.00  0.00    +0.038 C 
ATOM     13  C   LIG A   1      -9.418   1.719 123.268  0.00  0.00    -0.079 C 
ATOM     14  C   LIG A   1     -10.229   0.726 122.481  0.00  0.00    +0.038 C 
ATOM     15  C   LIG A   1      -9.235   1.680 124.603  0.00  0.00    -0.024 C 
ENDBRANCH  11  15
ENDBRANCH   1  11
TORSDOF 3
ENDMDL
MODEL 4
REMARK VINA RESULT:      -6.3      1.377      2.264
REMARK  Name = NuBBE_1543
REMARK  7 active torsions:
REMARK  status: ('A' for Active; 'I' for Inactive)
REMARK    1  A    between atoms: C_1  and  C_2
REMARK    2  A    between atoms: C_2  and  C_3
REMARK    3  A    between atoms: C_4  and  C_5
REMARK    4  A    between atoms: C_5  and  C_6
REMARK    5  A    between atoms: C_7  and  C_8
REMARK    6  A    between atoms: C_7  and  C_15
REMARK    7  A    between atoms: C_11  and  C_12
REMARK                            x       y       z     vdW  Elec       q    Type
REMARK                         _______ _______ _______ _____ _____    ______ ____
ROOT
ATOM      1  C   LIG A   1      -8.965  -3.352 126.076  0.00  0.00    -0.024 C 
ATOM      2  C   LIG A   1      -8.533  -3.357 127.357  0.00  0.00    -0.073 C 
ATOM      3  C   LIG A   1      -9.366  -4.078 128.393  0.00  0.00    +0.039 C 
ENDROOT
BRANCH   2   4
ATOM      4  C   LIG A   1      -7.257  -2.645 127.824  0.00  0.00    +0.018 C 
ATOM      5  C   LIG A   1      -6.777  -3.111 129.209  0.00  0.00    +0.012 C 
ATOM      6  C   LIG A   1      -7.567  -2.517 130.378  0.00  0.00    +0.030 C 
ATOM      7  C   LIG A   1      -7.941  -1.066 130.194  0.00  0.00    -0.076 C 
ATOM      8  C   LIG A   1      -8.493  -0.371 131.407  0.00  0.00    +0.038 C 
ATOM      9  C   LIG A   1      -7.800  -0.436 129.018  0.00  0.00    -0.027 C 
ATOM     10  C   LIG A   1      -7.299  -1.100 127.765  0.00  0.00    +0.035 C 
ENDBRANCH   2   4
BRANCH   1  11
ATOM     11  C   LIG A   1      -8.334  -2.720 124.865  0.00  0.00    +0.054 C 
BRANCH  11  15
ATOM     12  C   LIG A   1      -4.828  -4.109 123.771  0.00  0.00    +0.038 C 
ATOM     13  C   LIG A   1      -5.872  -3.159 124.296  0.00  0.00    -0.079 C 
ATOM     14  C   LIG A   1      -5.340  -1.806 124.683  0.00  0.00    +0.038 C 
ATOM     15  C   LIG A   1      -7.166  -3.529 124.371  0.00  0.00    -0.024 C 
ENDBRANCH  11  15
ENDBRANCH   1  11
TORSDOF 3
ENDMDL
MODEL 5
REMARK VINA RESULT:      -6.1      1.019      5.357
REMARK  Name = NuBBE_1543
REMARK  7 active torsions:
REMARK  status: ('A' for Active; 'I' for Inactive)
REMARK    1  A    between atoms: C_1  and  C_2
REMARK    2  A    between atoms: C_2  and  C_3
REMARK    3  A    between atoms: C_4  and  C_5
REMARK    4  A    between atoms: C_5  and  C_6
REMARK    5  A    between atoms: C_7  and  C_8
REMARK    6  A    between atoms: C_7  and  C_15
REMARK    7  A    between atoms: C_11  and  C_12
REMARK                            x       y       z     vdW  Elec       q    Type
REMARK                         _______ _______ _______ _____ _____    ______ ____
ROOT
ATOM      1  C   LIG A   1      -8.568  -3.008 127.633  0.00  0.00    -0.024 C 
ATOM      2  C   LIG A   1      -8.502  -2.633 126.335  0.00  0.00    -0.073 C 
ATOM      3  C   LIG A   1      -9.407  -3.325 125.341  0.00  0.00    +0.039 C 
ENDROOT
BRANCH   2   4
ATOM      4  C   LIG A   1      -7.536  -1.563 125.809  0.00  0.00    +0.018 C 
ATOM      5  C   LIG A   1      -7.529  -1.456 124.275  0.00  0.00    +0.012 C 
ATOM      6  C   LIG A   1      -6.729  -2.558 123.575  0.00  0.00    +0.030 C 
ATOM      7  C   LIG A   1      -5.447  -2.930 124.279  0.00  0.00    -0.076 C 
ATOM      8  C   LIG A   1      -4.510  -3.820 123.511  0.00  0.00    +0.038 C 
ATOM      9  C   LIG A   1      -5.163  -2.503 125.519  0.00  0.00    -0.027 C 
ATOM     10  C   LIG A   1      -6.088  -1.654 126.346  0.00  0.00    +0.035 C 
ENDBRANCH   2   4
BRANCH   1  11
ATOM     11  C   LIG A   1      -7.790  -2.486 128.811  0.00  0.00    +0.054 C 
BRANCH  11  15
ATOM     12  C   LIG A   1      -5.581  -5.043 130.812  0.00  0.00    +0.038 C 
ATOM     13  C   LIG A   1      -5.951  -3.860 129.956  0.00  0.00    -0.079 C 
ATOM     14  C   LIG A   1      -4.779  -3.043 129.486  0.00  0.00    +0.038 C 
ATOM     15  C   LIG A   1      -7.239  -3.611 129.645  0.00  0.00    -0.024 C 
ENDBRANCH  11  15
ENDBRANCH   1  11
TORSDOF 3
ENDMDL
MODEL 6
REMARK VINA RESULT:      -6.0      4.290      6.678
REMARK  Name = NuBBE_1543
REMARK  7 active torsions:
REMARK  status: ('A' for Active; 'I' for Inactive)
REMARK    1  A    between atoms: C_1  and  C_2
REMARK    2  A    between atoms: C_2  and  C_3
REMARK    3  A    between atoms: C_4  and  C_5
REMARK    4  A    between atoms: C_5  and  C_6
REMARK    5  A    between atoms: C_7  and  C_8
REMARK    6  A    between atoms: C_7  and  C_15
REMARK    7  A    between atoms: C_11  and  C_12
REMARK                            x       y       z     vdW  Elec       q    Type
REMARK                         _______ _______ _______ _____ _____    ______ ____
ROOT
ATOM      1  C   LIG A   1      -7.791   2.507 123.869  0.00  0.00    -0.024 C 
ATOM      2  C   LIG A   1      -8.155   1.324 124.414  0.00  0.00    -0.073 C 
ATOM      3  C   LIG A   1      -9.580   1.162 124.892  0.00  0.00    +0.039 C 
ENDROOT
BRANCH   2   4
ATOM      4  C   LIG A   1      -7.191   0.145 124.601  0.00  0.00    +0.018 C 
ATOM      5  C   LIG A   1      -6.878  -0.594 123.290  0.00  0.00    +0.012 C 
ATOM      6  C   LIG A   1      -7.987  -1.542 122.825  0.00  0.00    +0.030 C 
ATOM      7  C   LIG A   1      -8.652  -2.307 123.944  0.00  0.00    -0.076 C 
ATOM      8  C   LIG A   1      -9.566  -3.423 123.524  0.00  0.00    +0.038 C 
ATOM      9  C   LIG A   1      -8.449  -2.002 125.235  0.00  0.00    -0.027 C 
ATOM     10  C   LIG A   1      -7.584  -0.865 125.704  0.00  0.00    +0.035 C 
ENDBRANCH   2   4
BRANCH   1  11
ATOM     11  C   LIG A   1      -6.455   2.927 123.318  0.00  0.00    +0.054 C 
BRANCH  11  15
ATOM     12  C   LIG A   1      -6.006   4.625 119.806  0.00  0.00    +0.038 C 
ATOM     13  C   LIG A   1      -5.717   4.215 121.227  0.00  0.00    -0.079 C 
ATOM     14  C   LIG A   1      -4.437   4.774 121.785  0.00  0.00    +0.038 C 
ATOM     15  C   LIG A   1      -6.579   3.432 121.906  0.00  0.00    -0.024 C 
ENDBRANCH  11  15
ENDBRANCH   1  11
TORSDOF 3
ENDMDL
MODEL 7
REMARK VINA RESULT:      -6.0      1.595      5.706
REMARK  Name = NuBBE_1543
REMARK  7 active torsions:
REMARK  status: ('A' for Active; 'I' for Inactive)
REMARK    1  A    between atoms: C_1  and  C_2
REMARK    2  A    between atoms: C_2  and  C_3
REMARK    3  A    between atoms: C_4  and  C_5
REMARK    4  A    between atoms: C_5  and  C_6
REMARK    5  A    between atoms: C_7  and  C_8
REMARK    6  A    between atoms: C_7  and  C_15
REMARK    7  A    between atoms: C_11  and  C_12
REMARK                            x       y       z     vdW  Elec       q    Type
REMARK                         _______ _______ _______ _____ _____    ______ ____
ROOT
ATOM      1  C   LIG A   1      -5.170  -1.535 127.622  0.00  0.00    -0.024 C 
ATOM      2  C   LIG A   1      -6.143  -1.519 126.683  0.00  0.00    -0.073 C 
ATOM      3  C   LIG A   1      -5.735  -1.469 125.228  0.00  0.00    +0.039 C 
ENDROOT
BRANCH   2   4
ATOM      4  C   LIG A   1      -7.641  -1.518 127.014  0.00  0.00    +0.018 C 
ATOM      5  C   LIG A   1      -8.231  -2.932 127.146  0.00  0.00    +0.012 C 
ATOM      6  C   LIG A   1      -8.502  -3.626 125.808  0.00  0.00    +0.030 C 
ATOM      7  C   LIG A   1      -9.051  -2.711 124.740  0.00  0.00    -0.076 C 
ATOM      8  C   LIG A   1      -9.563  -3.385 123.498  0.00  0.00    +0.038 C 
ATOM      9  C   LIG A   1      -9.071  -1.377 124.884  0.00  0.00    -0.027 C 
ATOM     10  C   LIG A   1      -8.526  -0.654 126.085  0.00  0.00    +0.035 C 
ENDBRANCH   2   4
BRANCH   1  11
ATOM     11  C   LIG A   1      -5.300  -1.584 129.120  0.00  0.00    +0.054 C 
BRANCH  11  15
ATOM     12  C   LIG A   1      -5.642  -5.129 130.776  0.00  0.00    +0.038 C 
ATOM     13  C   LIG A   1      -5.998  -3.733 130.334  0.00  0.00    -0.079 C 
ATOM     14  C   LIG A   1      -7.369  -3.280 130.756  0.00  0.00    +0.038 C 
ATOM     15  C   LIG A   1      -5.118  -2.985 129.640  0.00  0.00    -0.024 C 
ENDBRANCH  11  15
ENDBRANCH   1  11
TORSDOF 3
ENDMDL
MODEL 8
REMARK VINA RESULT:      -5.8      8.897     10.923
REMARK  Name = NuBBE_1543
REMARK  7 active torsions:
REMARK  status: ('A' for Active; 'I' for Inactive)
REMARK    1  A    between atoms: C_1  and  C_2
REMARK    2  A    between atoms: C_2  and  C_3
REMARK    3  A    between atoms: C_4  and  C_5
REMARK    4  A    between atoms: C_5  and  C_6
REMARK    5  A    between atoms: C_7  and  C_8
REMARK    6  A    between atoms: C_7  and  C_15
REMARK    7  A    between atoms: C_11  and  C_12
REMARK                            x       y       z     vdW  Elec       q    Type
REMARK                         _______ _______ _______ _____ _____    ______ ____
ROOT
ATOM      1  C   LIG A   1     -11.445   6.631 131.860  0.00  0.00    -0.024 C 
ATOM      2  C   LIG A   1     -10.346   5.863 131.684  0.00  0.00    -0.073 C 
ATOM      3  C   LIG A   1      -9.311   5.827 132.787  0.00  0.00    +0.039 C 
ENDROOT
BRANCH   2   4
ATOM      4  C   LIG A   1     -10.076   5.047 130.414  0.00  0.00    +0.018 C 
ATOM      5  C   LIG A   1     -10.709   3.646 130.449  0.00  0.00    +0.012 C 
ATOM      6  C   LIG A   1      -9.936   2.630 131.295  0.00  0.00    +0.030 C 
ATOM      7  C   LIG A   1      -8.436   2.742 131.173  0.00  0.00    -0.076 C 
ATOM      8  C   LIG A   1      -7.642   1.620 131.781  0.00  0.00    +0.038 C 
ATOM      9  C   LIG A   1      -7.845   3.784 130.568  0.00  0.00    -0.027 C 
ATOM     10  C   LIG A   1      -8.592   4.952 129.988  0.00  0.00    +0.035 C 
ENDBRANCH   2   4
BRANCH   1  11
ATOM     11  C   LIG A   1     -12.613   6.841 130.935  0.00  0.00    +0.054 C 
BRANCH  11  15
ATOM     12  C   LIG A   1     -13.238  10.543 129.782  0.00  0.00    +0.038 C 
ATOM     13  C   LIG A   1     -12.839   9.091 129.724  0.00  0.00    -0.079 C 
ATOM     14  C   LIG A   1     -12.295   8.650 128.393  0.00  0.00    +0.038 C 
ATOM     15  C   LIG A   1     -12.957   8.300 130.810  0.00  0.00    -0.024 C 
ENDBRANCH  11  15
ENDBRANCH   1  11
TORSDOF 3
ENDMDL
MODEL 9
REMARK VINA RESULT:      -5.7      1.573      2.221
REMARK  Name = NuBBE_1543
REMARK  7 active torsions:
REMARK  status: ('A' for Active; 'I' for Inactive)
REMARK    1  A    between atoms: C_1  and  C_2
REMARK    2  A    between atoms: C_2  and  C_3
REMARK    3  A    between atoms: C_4  and  C_5
REMARK    4  A    between atoms: C_5  and  C_6
REMARK    5  A    between atoms: C_7  and  C_8
REMARK    6  A    between atoms: C_7  and  C_15
REMARK    7  A    between atoms: C_11  and  C_12
REMARK                            x       y       z     vdW  Elec       q    Type
REMARK                         _______ _______ _______ _____ _____    ______ ____
ROOT
ATOM      1  C   LIG A   1      -8.329  -2.414 126.262  0.00  0.00    -0.024 C 
ATOM      2  C   LIG A   1      -8.244  -2.750 127.569  0.00  0.00    -0.073 C 
ATOM      3  C   LIG A   1      -8.936  -4.012 128.032  0.00  0.00    +0.039 C 
ENDROOT
BRANCH   2   4
ATOM      4  C   LIG A   1      -7.506  -1.905 128.615  0.00  0.00    +0.018 C 
ATOM      5  C   LIG A   1      -5.977  -2.035 128.528  0.00  0.00    +0.012 C 
ATOM      6  C   LIG A   1      -5.422  -3.324 129.142  0.00  0.00    +0.030 C 
ATOM      7  C   LIG A   1      -6.111  -3.746 130.417  0.00  0.00    -0.076 C 
ATOM      8  C   LIG A   1      -5.449  -4.855 131.185  0.00  0.00    +0.038 C 
ATOM      9  C   LIG A   1      -7.251  -3.175 130.834  0.00  0.00    -0.027 C 
ATOM     10  C   LIG A   1      -7.977  -2.098 130.076  0.00  0.00    +0.035 C 
ENDBRANCH   2   4
BRANCH   1  11
ATOM     11  C   LIG A   1      -7.740  -1.228 125.548  0.00  0.00    +0.054 C 
BRANCH  11  15
ATOM     12  C   LIG A   1     -10.011  -0.240 122.500  0.00  0.00    +0.038 C 
ATOM     13  C   LIG A   1      -8.975  -0.970 123.314  0.00  0.00    -0.079 C 
ATOM     14  C   LIG A   1      -8.261  -2.067 122.571  0.00  0.00    +0.038 C 
ATOM     15  C   LIG A   1      -8.728  -0.617 124.592  0.00  0.00    -0.024 C 
ENDBRANCH  11  15
ENDBRANCH   1  11
TORSDOF 3
ENDMDL
