MODEL 1
REMARK VINA RESULT:      -7.9      0.000      0.000
REMARK  Name = NuBBE_1370
REMARK  8 active torsions:
REMARK  status: ('A' for Active; 'I' for Inactive)
REMARK    1  A    between atoms: C_2  and  O_3
REMARK    2  A    between atoms: C_2  and  C_8
REMARK    3  A    between atoms: O_3  and  C_4
REMARK    4  A    between atoms: C_4  and  C_5
REMARK    5  A    between atoms: C_4  and  C_6
REMARK    6  A    between atoms: C_4  and  C_7
REMARK    7  A    between atoms: C_8  and  C_9
REMARK    8  A    between atoms: C_9  and  O_10
REMARK                            x       y       z     vdW  Elec       q    Type
REMARK                         _______ _______ _______ _____ _____    ______ ____
ROOT
ATOM      1  C   LIG A   1      -8.085   2.432 123.435  0.00  0.00    +0.164 C 
ATOM      2  C   LIG A   1      -7.086   3.221 122.603  0.00  0.00    -0.000 A 
ATOM      3  C   LIG A   1      -7.289   3.377 121.217  0.00  0.00    +0.007 A 
ATOM      4  C   LIG A   1      -6.360   4.048 120.428  0.00  0.00    +0.000 A 
ATOM      5  C   LIG A   1      -5.226   4.589 121.016  0.00  0.00    +0.001 A 
ATOM      6  C   LIG A   1      -5.024   4.459 122.393  0.00  0.00    +0.009 A 
ATOM      7  C   LIG A   1      -5.931   3.759 123.213  0.00  0.00    -0.011 A 
ATOM      8  C   LIG A   1      -5.705   3.567 124.665  0.00  0.00    -0.007 A 
ATOM      9  C   LIG A   1      -4.441   3.711 125.265  0.00  0.00    +0.009 A 
ATOM     10  C   LIG A   1      -4.246   3.480 126.632  0.00  0.00    +0.001 A 
ATOM     11  C   LIG A   1      -5.317   3.123 127.444  0.00  0.00    +0.001 A 
ATOM     12  C   LIG A   1      -6.581   2.973 126.887  0.00  0.00    +0.012 A 
ATOM     13  C   LIG A   1      -6.760   3.168 125.509  0.00  0.00    +0.028 A 
ATOM     14  C   LIG A   1      -8.066   2.818 124.918  0.00  0.00    +0.200 C 
ATOM     15  O   LIG A   1      -9.091   2.783 125.606  0.00  0.00    -0.289 OA
ENDROOT
BRANCH   1  16
ATOM     16  O   LIG A   1      -9.414   2.785 122.973  0.00  0.00    -0.375 OA
ATOM     17  H   LIG A   1      -9.779   3.394 123.650  0.00  0.00    +0.211 HD
ENDBRANCH   1  16
BRANCH   1  18
ATOM     18  C   LIG A   1      -7.955   0.915 123.259  0.00  0.00    +0.168 C 
BRANCH  18  20
ATOM     19  O   LIG A   1     -10.187   0.218 122.678  0.00  0.00    -0.251 OA
ATOM     20  C   LIG A   1      -9.246   0.161 123.454  0.00  0.00    +0.311 C 
BRANCH  20  21
ATOM     21  O   LIG A   1      -9.206  -0.569 124.596  0.00  0.00    -0.459 OA
BRANCH  21  22
ATOM     22  C   LIG A   1      -8.712  -1.935 124.607  0.00  0.00    +0.105 C 
ATOM     23  C   LIG A   1      -7.189  -2.014 124.771  0.00  0.00    +0.055 C 
ATOM     24  C   LIG A   1      -9.384  -2.569 125.833  0.00  0.00    +0.055 C 
ATOM     25  C   LIG A   1      -9.167  -2.694 123.357  0.00  0.00    +0.055 C 
ENDBRANCH  21  22
ENDBRANCH  20  21
ENDBRANCH  18  20
ENDBRANCH   1  18
TORSDOF 5
ENDMDL
MODEL 2
REMARK VINA RESULT:      -7.6      2.546      6.505
REMARK  Name = NuBBE_1370
REMARK  8 active torsions:
REMARK  status: ('A' for Active; 'I' for Inactive)
REMARK    1  A    between atoms: C_2  and  O_3
REMARK    2  A    between atoms: C_2  and  C_8
REMARK    3  A    between atoms: O_3  and  C_4
REMARK    4  A    between atoms: C_4  and  C_5
REMARK    5  A    between atoms: C_4  and  C_6
REMARK    6  A    between atoms: C_4  and  C_7
REMARK    7  A    between atoms: C_8  and  C_9
REMARK    8  A    between atoms: C_9  and  O_10
REMARK                            x       y       z     vdW  Elec       q    Type
REMARK                         _______ _______ _______ _____ _____    ______ ____
ROOT
ATOM      1  C   LIG A   1      -6.451  -0.805 125.787  0.00  0.00    +0.164 C 
ATOM      2  C   LIG A   1      -7.322  -1.616 124.840  0.00  0.00    -0.000 A 
ATOM      3  C   LIG A   1      -7.352  -1.303 123.466  0.00  0.00    +0.007 A 
ATOM      4  C   LIG A   1      -8.182  -1.997 122.591  0.00  0.00    +0.000 A 
ATOM      5  C   LIG A   1      -8.978  -3.026 123.075  0.00  0.00    +0.001 A 
ATOM      6  C   LIG A   1      -8.940  -3.360 124.431  0.00  0.00    +0.009 A 
ATOM      7  C   LIG A   1      -8.133  -2.655 125.346  0.00  0.00    -0.011 A 
ATOM      8  C   LIG A   1      -8.122  -2.962 126.796  0.00  0.00    -0.007 A 
ATOM      9  C   LIG A   1      -9.152  -3.680 127.430  0.00  0.00    +0.009 A 
ATOM     10  C   LIG A   1      -9.140  -3.917 128.811  0.00  0.00    +0.001 A 
ATOM     11  C   LIG A   1      -8.082  -3.465 129.592  0.00  0.00    +0.001 A 
ATOM     12  C   LIG A   1      -7.045  -2.754 128.999  0.00  0.00    +0.012 A 
ATOM     13  C   LIG A   1      -7.086  -2.486 127.623  0.00  0.00    +0.028 A 
ATOM     14  C   LIG A   1      -6.074  -1.572 127.059  0.00  0.00    +0.200 C 
ATOM     15  O   LIG A   1      -4.990  -1.391 127.623  0.00  0.00    -0.289 OA
ENDROOT
BRANCH   1  16
ATOM     16  O   LIG A   1      -5.191  -0.552 125.115  0.00  0.00    -0.375 OA
ATOM     17  H   LIG A   1      -5.277  -0.956 124.226  0.00  0.00    +0.211 HD
ENDBRANCH   1  16
BRANCH   1  18
ATOM     18  C   LIG A   1      -7.043   0.568 126.127  0.00  0.00    +0.168 C 
BRANCH  18  20
ATOM     19  O   LIG A   1      -5.415   2.328 126.361  0.00  0.00    -0.251 OA
ATOM     20  C   LIG A   1      -6.209   1.731 125.651  0.00  0.00    +0.311 C 
BRANCH  20  21
ATOM     21  O   LIG A   1      -6.473   2.010 124.351  0.00  0.00    -0.459 OA
BRANCH  21  22
ATOM     22  C   LIG A   1      -7.139   3.241 123.959  0.00  0.00    +0.105 C 
ATOM     23  C   LIG A   1      -7.907   3.894 125.115  0.00  0.00    +0.055 C 
ATOM     24  C   LIG A   1      -5.993   4.167 123.529  0.00  0.00    +0.055 C 
ATOM     25  C   LIG A   1      -8.055   3.010 122.755  0.00  0.00    +0.055 C 
ENDBRANCH  21  22
ENDBRANCH  20  21
ENDBRANCH  18  20
ENDBRANCH   1  18
TORSDOF 5
ENDMDL
MODEL 3
REMARK VINA RESULT:      -7.4      7.284      9.344
REMARK  Name = NuBBE_1370
REMARK  8 active torsions:
REMARK  status: ('A' for Active; 'I' for Inactive)
REMARK    1  A    between atoms: C_2  and  O_3
REMARK    2  A    between atoms: C_2  and  C_8
REMARK    3  A    between atoms: O_3  and  C_4
REMARK    4  A    between atoms: C_4  and  C_5
REMARK    5  A    between atoms: C_4  and  C_6
REMARK    6  A    between atoms: C_4  and  C_7
REMARK    7  A    between atoms: C_8  and  C_9
REMARK    8  A    between atoms: C_9  and  O_10
REMARK                            x       y       z     vdW  Elec       q    Type
REMARK                         _______ _______ _______ _____ _____    ______ ____
ROOT
ATOM      1  C   LIG A   1      -8.181   5.131 130.529  0.00  0.00    +0.164 C 
ATOM      2  C   LIG A   1      -8.117   4.825 132.017  0.00  0.00    -0.000 A 
ATOM      3  C   LIG A   1      -9.226   4.247 132.667  0.00  0.00    +0.007 A 
ATOM      4  C   LIG A   1      -9.209   4.008 134.037  0.00  0.00    +0.000 A 
ATOM      5  C   LIG A   1      -8.076   4.324 134.773  0.00  0.00    +0.001 A 
ATOM      6  C   LIG A   1      -6.962   4.877 134.136  0.00  0.00    +0.009 A 
ATOM      7  C   LIG A   1      -6.961   5.160 132.756  0.00  0.00    -0.011 A 
ATOM      8  C   LIG A   1      -5.807   5.794 132.075  0.00  0.00    -0.007 A 
ATOM      9  C   LIG A   1      -4.810   6.503 132.769  0.00  0.00    +0.009 A 
ATOM     10  C   LIG A   1      -3.754   7.133 132.097  0.00  0.00    +0.001 A 
ATOM     11  C   LIG A   1      -3.652   7.048 130.713  0.00  0.00    +0.001 A 
ATOM     12  C   LIG A   1      -4.618   6.354 129.994  0.00  0.00    +0.012 A 
ATOM     13  C   LIG A   1      -5.694   5.761 130.672  0.00  0.00    +0.028 A 
ATOM     14  C   LIG A   1      -6.798   5.197 129.871  0.00  0.00    +0.200 C 
ATOM     15  O   LIG A   1      -6.625   4.846 128.700  0.00  0.00    -0.289 OA
ENDROOT
BRANCH   1  16
ATOM     16  O   LIG A   1      -8.851   4.021 129.881  0.00  0.00    -0.375 OA
ATOM     17  H   LIG A   1      -9.811   4.200 129.970  0.00  0.00    +0.211 HD
ENDBRANCH   1  16
BRANCH   1  18
ATOM     18  C   LIG A   1      -9.005   6.383 130.204  0.00  0.00    +0.168 C 
BRANCH  18  20
ATOM     19  O   LIG A   1      -9.599   6.249 127.873  0.00  0.00    -0.251 OA
ATOM     20  C   LIG A   1      -9.950   6.211 129.042  0.00  0.00    +0.311 C 
BRANCH  20  21
ATOM     21  O   LIG A   1     -11.218   6.018 129.480  0.00  0.00    -0.459 OA
BRANCH  21  22
ATOM     22  C   LIG A   1     -12.173   7.111 129.547  0.00  0.00    +0.105 C 
ATOM     23  C   LIG A   1     -11.583   8.443 129.067  0.00  0.00    +0.055 C 
ATOM     24  C   LIG A   1     -13.299   6.686 128.595  0.00  0.00    +0.055 C 
ATOM     25  C   LIG A   1     -12.754   7.247 130.957  0.00  0.00    +0.055 C 
ENDBRANCH  21  22
ENDBRANCH  20  21
ENDBRANCH  18  20
ENDBRANCH   1  18
TORSDOF 5
ENDMDL
MODEL 4
REMARK VINA RESULT:      -7.3      2.502      7.400
REMARK  Name = NuBBE_1370
REMARK  8 active torsions:
REMARK  status: ('A' for Active; 'I' for Inactive)
REMARK    1  A    between atoms: C_2  and  O_3
REMARK    2  A    between atoms: C_2  and  C_8
REMARK    3  A    between atoms: O_3  and  C_4
REMARK    4  A    between atoms: C_4  and  C_5
REMARK    5  A    between atoms: C_4  and  C_6
REMARK    6  A    between atoms: C_4  and  C_7
REMARK    7  A    between atoms: C_8  and  C_9
REMARK    8  A    between atoms: C_9  and  O_10
REMARK                            x       y       z     vdW  Elec       q    Type
REMARK                         _______ _______ _______ _____ _____    ______ ____
ROOT
ATOM      1  C   LIG A   1      -7.650   0.099 127.135  0.00  0.00    +0.164 C 
ATOM      2  C   LIG A   1      -7.922  -1.244 127.793  0.00  0.00    -0.000 A 
ATOM      3  C   LIG A   1      -7.636  -1.432 129.160  0.00  0.00    +0.007 A 
ATOM      4  C   LIG A   1      -7.827  -2.668 129.770  0.00  0.00    +0.000 A 
ATOM      5  C   LIG A   1      -8.324  -3.728 129.025  0.00  0.00    +0.001 A 
ATOM      6  C   LIG A   1      -8.632  -3.549 127.674  0.00  0.00    +0.009 A 
ATOM      7  C   LIG A   1      -8.420  -2.318 127.022  0.00  0.00    -0.011 A 
ATOM      8  C   LIG A   1      -8.692  -2.126 125.577  0.00  0.00    -0.007 A 
ATOM      9  C   LIG A   1      -8.803  -3.199 124.675  0.00  0.00    +0.009 A 
ATOM     10  C   LIG A   1      -9.015  -2.989 123.307  0.00  0.00    +0.001 A 
ATOM     11  C   LIG A   1      -9.148  -1.699 122.806  0.00  0.00    +0.001 A 
ATOM     12  C   LIG A   1      -9.045  -0.614 123.668  0.00  0.00    +0.012 A 
ATOM     13  C   LIG A   1      -8.793  -0.832 125.031  0.00  0.00    +0.028 A 
ATOM     14  C   LIG A   1      -8.502   0.337 125.884  0.00  0.00    +0.200 C 
ATOM     15  O   LIG A   1      -8.883   1.469 125.569  0.00  0.00    -0.289 OA
ENDROOT
BRANCH   1  16
ATOM     16  O   LIG A   1      -8.056   1.133 128.067  0.00  0.00    -0.375 OA
ATOM     17  H   LIG A   1      -8.940   1.433 127.765  0.00  0.00    +0.211 HD
ENDBRANCH   1  16
BRANCH   1  18
ATOM     18  C   LIG A   1      -6.164   0.340 126.843  0.00  0.00    +0.168 C 
BRANCH  18  20
ATOM     19  O   LIG A   1      -5.002   1.378 128.681  0.00  0.00    -0.251 OA
ATOM     20  C   LIG A   1      -5.568   1.497 127.606  0.00  0.00    +0.311 C 
BRANCH  20  21
ATOM     21  O   LIG A   1      -5.755   2.659 126.935  0.00  0.00    -0.459 OA
BRANCH  21  22
ATOM     22  C   LIG A   1      -4.635   3.496 126.538  0.00  0.00    +0.105 C 
ATOM     23  C   LIG A   1      -3.313   2.721 126.466  0.00  0.00    +0.055 C 
ATOM     24  C   LIG A   1      -5.010   3.985 125.132  0.00  0.00    +0.055 C 
ATOM     25  C   LIG A   1      -4.506   4.713 127.457  0.00  0.00    +0.055 C 
ENDBRANCH  21  22
ENDBRANCH  20  21
ENDBRANCH  18  20
ENDBRANCH   1  18
TORSDOF 5
ENDMDL
MODEL 5
REMARK VINA RESULT:      -7.1      1.515      2.450
REMARK  Name = NuBBE_1370
REMARK  8 active torsions:
REMARK  status: ('A' for Active; 'I' for Inactive)
REMARK    1  A    between atoms: C_2  and  O_3
REMARK    2  A    between atoms: C_2  and  C_8
REMARK    3  A    between atoms: O_3  and  C_4
REMARK    4  A    between atoms: C_4  and  C_5
REMARK    5  A    between atoms: C_4  and  C_6
REMARK    6  A    between atoms: C_4  and  C_7
REMARK    7  A    between atoms: C_8  and  C_9
REMARK    8  A    between atoms: C_9  and  O_10
REMARK                            x       y       z     vdW  Elec       q    Type
REMARK                         _______ _______ _______ _____ _____    ______ ____
ROOT
ATOM      1  C   LIG A   1      -7.205   1.596 125.736  0.00  0.00    +0.164 C 
ATOM      2  C   LIG A   1      -6.764   2.481 124.580  0.00  0.00    -0.000 A 
ATOM      3  C   LIG A   1      -7.457   2.438 123.354  0.00  0.00    +0.007 A 
ATOM      4  C   LIG A   1      -7.039   3.199 122.267  0.00  0.00    +0.000 A 
ATOM      5  C   LIG A   1      -5.934   4.028 122.398  0.00  0.00    +0.001 A 
ATOM      6  C   LIG A   1      -5.251   4.096 123.615  0.00  0.00    +0.009 A 
ATOM      7  C   LIG A   1      -5.633   3.314 124.724  0.00  0.00    -0.011 A 
ATOM      8  C   LIG A   1      -4.888   3.335 126.005  0.00  0.00    -0.007 A 
ATOM      9  C   LIG A   1      -3.568   3.808 126.110  0.00  0.00    +0.009 A 
ATOM     10  C   LIG A   1      -2.870   3.774 127.324  0.00  0.00    +0.001 A 
ATOM     11  C   LIG A   1      -3.484   3.291 128.474  0.00  0.00    +0.001 A 
ATOM     12  C   LIG A   1      -4.789   2.817 128.409  0.00  0.00    +0.012 A 
ATOM     13  C   LIG A   1      -5.466   2.817 127.180  0.00  0.00    +0.028 A 
ATOM     14  C   LIG A   1      -6.774   2.137 127.103  0.00  0.00    +0.200 C 
ATOM     15  O   LIG A   1      -7.465   1.963 128.112  0.00  0.00    -0.289 OA
ENDROOT
BRANCH   1  16
ATOM     16  O   LIG A   1      -8.655   1.608 125.768  0.00  0.00    -0.375 OA
ATOM     17  H   LIG A   1      -8.944   1.320 124.876  0.00  0.00    +0.211 HD
ENDBRANCH   1  16
BRANCH   1  18
ATOM     18  C   LIG A   1      -6.788   0.130 125.567  0.00  0.00    +0.168 C 
BRANCH  18  20
ATOM     19  O   LIG A   1      -8.288  -1.317 126.775  0.00  0.00    -0.251 OA
ATOM     20  C   LIG A   1      -7.924  -0.852 125.707  0.00  0.00    +0.311 C 
BRANCH  20  21
ATOM     21  O   LIG A   1      -8.464  -1.135 124.496  0.00  0.00    -0.459 OA
BRANCH  21  22
ATOM     22  C   LIG A   1      -8.209  -2.401 123.830  0.00  0.00    +0.105 C 
ATOM     23  C   LIG A   1      -9.474  -3.256 123.678  0.00  0.00    +0.055 C 
ATOM     24  C   LIG A   1      -7.703  -1.999 122.438  0.00  0.00    +0.055 C 
ATOM     25  C   LIG A   1      -7.103  -3.184 124.541  0.00  0.00    +0.055 C 
ENDBRANCH  21  22
ENDBRANCH  20  21
ENDBRANCH  18  20
ENDBRANCH   1  18
TORSDOF 5
ENDMDL
MODEL 6
REMARK VINA RESULT:      -7.1      3.068      7.314
REMARK  Name = NuBBE_1370
REMARK  8 active torsions:
REMARK  status: ('A' for Active; 'I' for Inactive)
REMARK    1  A    between atoms: C_2  and  O_3
REMARK    2  A    between atoms: C_2  and  C_8
REMARK    3  A    between atoms: O_3  and  C_4
REMARK    4  A    between atoms: C_4  and  C_5
REMARK    5  A    between atoms: C_4  and  C_6
REMARK    6  A    between atoms: C_4  and  C_7
REMARK    7  A    between atoms: C_8  and  C_9
REMARK    8  A    between atoms: C_9  and  O_10
REMARK                            x       y       z     vdW  Elec       q    Type
REMARK                         _______ _______ _______ _____ _____    ______ ____
ROOT
ATOM      1  C   LIG A   1      -7.850   0.407 126.944  0.00  0.00    +0.164 C 
ATOM      2  C   LIG A   1      -7.889  -0.762 127.917  0.00  0.00    -0.000 A 
ATOM      3  C   LIG A   1      -7.588  -0.557 129.279  0.00  0.00    +0.007 A 
ATOM      4  C   LIG A   1      -7.566  -1.621 130.175  0.00  0.00    +0.000 A 
ATOM      5  C   LIG A   1      -7.862  -2.900 129.727  0.00  0.00    +0.001 A 
ATOM      6  C   LIG A   1      -8.183  -3.112 128.383  0.00  0.00    +0.009 A 
ATOM      7  C   LIG A   1      -8.184  -2.060 127.446  0.00  0.00    -0.011 A 
ATOM      8  C   LIG A   1      -8.470  -2.277 126.008  0.00  0.00    -0.007 A 
ATOM      9  C   LIG A   1      -8.382  -3.541 125.396  0.00  0.00    +0.009 A 
ATOM     10  C   LIG A   1      -8.613  -3.711 124.026  0.00  0.00    +0.001 A 
ATOM     11  C   LIG A   1      -8.965  -2.625 123.232  0.00  0.00    +0.001 A 
ATOM     12  C   LIG A   1      -9.063  -1.361 123.802  0.00  0.00    +0.012 A 
ATOM     13  C   LIG A   1      -8.791  -1.193 125.168  0.00  0.00    +0.028 A 
ATOM     14  C   LIG A   1      -8.718   0.181 125.702  0.00  0.00    +0.200 C 
ATOM     15  O   LIG A   1      -9.288   1.119 125.135  0.00  0.00    -0.289 OA
ENDROOT
BRANCH   1  16
ATOM     16  O   LIG A   1      -8.440   1.551 127.611  0.00  0.00    -0.375 OA
ATOM     17  H   LIG A   1      -7.930   1.670 128.440  0.00  0.00    +0.211 HD
ENDBRANCH   1  16
BRANCH   1  18
ATOM     18  C   LIG A   1      -6.426   0.821 126.554  0.00  0.00    +0.168 C 
BRANCH  18  20
ATOM     19  O   LIG A   1      -6.540   3.018 125.571  0.00  0.00    -0.251 OA
ATOM     20  C   LIG A   1      -6.210   2.313 126.512  0.00  0.00    +0.311 C 
BRANCH  20  21
ATOM     21  O   LIG A   1      -5.605   2.742 127.646  0.00  0.00    -0.459 OA
BRANCH  21  22
ATOM     22  C   LIG A   1      -4.333   3.444 127.609  0.00  0.00    +0.105 C 
ATOM     23  C   LIG A   1      -4.491   4.940 127.307  0.00  0.00    +0.055 C 
ATOM     24  C   LIG A   1      -3.768   3.273 129.026  0.00  0.00    +0.055 C 
ATOM     25  C   LIG A   1      -3.370   2.784 126.619  0.00  0.00    +0.055 C 
ENDBRANCH  21  22
ENDBRANCH  20  21
ENDBRANCH  18  20
ENDBRANCH   1  18
TORSDOF 5
ENDMDL
MODEL 7
REMARK VINA RESULT:      -7.0      3.758      6.831
REMARK  Name = NuBBE_1370
REMARK  8 active torsions:
REMARK  status: ('A' for Active; 'I' for Inactive)
REMARK    1  A    between atoms: C_2  and  O_3
REMARK    2  A    between atoms: C_2  and  C_8
REMARK    3  A    between atoms: O_3  and  C_4
REMARK    4  A    between atoms: C_4  and  C_5
REMARK    5  A    between atoms: C_4  and  C_6
REMARK    6  A    between atoms: C_4  and  C_7
REMARK    7  A    between atoms: C_8  and  C_9
REMARK    8  A    between atoms: C_9  and  O_10
REMARK                            x       y       z     vdW  Elec       q    Type
REMARK                         _______ _______ _______ _____ _____    ______ ____
ROOT
ATOM      1  C   LIG A   1      -7.343  -0.295 126.922  0.00  0.00    +0.164 C 
ATOM      2  C   LIG A   1      -7.877  -1.574 127.548  0.00  0.00    -0.000 A 
ATOM      3  C   LIG A   1      -7.562  -1.890 128.886  0.00  0.00    +0.007 A 
ATOM      4  C   LIG A   1      -7.995  -3.080 129.462  0.00  0.00    +0.000 A 
ATOM      5  C   LIG A   1      -8.763  -3.962 128.715  0.00  0.00    +0.001 A 
ATOM      6  C   LIG A   1      -9.100  -3.650 127.395  0.00  0.00    +0.009 A 
ATOM      7  C   LIG A   1      -8.651  -2.467 126.775  0.00  0.00    -0.011 A 
ATOM      8  C   LIG A   1      -8.954  -2.147 125.360  0.00  0.00    -0.007 A 
ATOM      9  C   LIG A   1      -9.359  -3.121 124.429  0.00  0.00    +0.009 A 
ATOM     10  C   LIG A   1      -9.596  -2.800 123.087  0.00  0.00    +0.001 A 
ATOM     11  C   LIG A   1      -9.459  -1.490 122.643  0.00  0.00    +0.001 A 
ATOM     12  C   LIG A   1      -9.062  -0.500 123.534  0.00  0.00    +0.012 A 
ATOM     13  C   LIG A   1      -8.788  -0.838 124.868  0.00  0.00    +0.028 A 
ATOM     14  C   LIG A   1      -8.189   0.191 125.741  0.00  0.00    +0.200 C 
ATOM     15  O   LIG A   1      -8.319   1.394 125.493  0.00  0.00    -0.289 OA
ENDROOT
BRANCH   1  16
ATOM     16  O   LIG A   1      -7.448   0.755 127.916  0.00  0.00    -0.375 OA
ATOM     17  H   LIG A   1      -8.259   1.257 127.689  0.00  0.00    +0.211 HD
ENDBRANCH   1  16
BRANCH   1  18
ATOM     18  C   LIG A   1      -5.861  -0.382 126.539  0.00  0.00    +0.168 C 
BRANCH  18  20
ATOM     19  O   LIG A   1      -5.288  -2.722 126.496  0.00  0.00    -0.251 OA
ATOM     20  C   LIG A   1      -5.471  -1.683 125.882  0.00  0.00    +0.311 C 
BRANCH  20  21
ATOM     21  O   LIG A   1      -5.354  -1.525 124.541  0.00  0.00    -0.459 OA
BRANCH  21  22
ATOM     22  C   LIG A   1      -5.450  -2.655 123.633  0.00  0.00    +0.105 C 
ATOM     23  C   LIG A   1      -6.043  -2.272 122.271  0.00  0.00    +0.055 C 
ATOM     24  C   LIG A   1      -3.996  -3.107 123.440  0.00  0.00    +0.055 C 
ATOM     25  C   LIG A   1      -6.236  -3.805 124.267  0.00  0.00    +0.055 C 
ENDBRANCH  21  22
ENDBRANCH  20  21
ENDBRANCH  18  20
ENDBRANCH   1  18
TORSDOF 5
ENDMDL
MODEL 8
REMARK VINA RESULT:      -7.0      3.323      5.854
REMARK  Name = NuBBE_1370
REMARK  8 active torsions:
REMARK  status: ('A' for Active; 'I' for Inactive)
REMARK    1  A    between atoms: C_2  and  O_3
REMARK    2  A    between atoms: C_2  and  C_8
REMARK    3  A    between atoms: O_3  and  C_4
REMARK    4  A    between atoms: C_4  and  C_5
REMARK    5  A    between atoms: C_4  and  C_6
REMARK    6  A    between atoms: C_4  and  C_7
REMARK    7  A    between atoms: C_8  and  C_9
REMARK    8  A    between atoms: C_9  and  O_10
REMARK                            x       y       z     vdW  Elec       q    Type
REMARK                         _______ _______ _______ _____ _____    ______ ____
ROOT
ATOM      1  C   LIG A   1      -6.197  -0.166 126.516  0.00  0.00    +0.164 C 
ATOM      2  C   LIG A   1      -6.381   0.813 125.366  0.00  0.00    -0.000 A 
ATOM      3  C   LIG A   1      -5.878   2.126 125.469  0.00  0.00    +0.007 A 
ATOM      4  C   LIG A   1      -6.082   3.053 124.452  0.00  0.00    +0.000 A 
ATOM      5  C   LIG A   1      -6.774   2.675 123.310  0.00  0.00    +0.001 A 
ATOM      6  C   LIG A   1      -7.259   1.370 123.187  0.00  0.00    +0.009 A 
ATOM      7  C   LIG A   1      -7.095   0.418 124.213  0.00  0.00    -0.011 A 
ATOM      8  C   LIG A   1      -7.649  -0.954 124.120  0.00  0.00    -0.007 A 
ATOM      9  C   LIG A   1      -8.676  -1.301 123.225  0.00  0.00    +0.009 A 
ATOM     10  C   LIG A   1      -9.213  -2.594 123.190  0.00  0.00    +0.001 A 
ATOM     11  C   LIG A   1      -8.719  -3.584 124.031  0.00  0.00    +0.001 A 
ATOM     12  C   LIG A   1      -7.702  -3.278 124.928  0.00  0.00    +0.012 A 
ATOM     13  C   LIG A   1      -7.197  -1.970 124.985  0.00  0.00    +0.028 A 
ATOM     14  C   LIG A   1      -6.257  -1.630 126.071  0.00  0.00    +0.200 C 
ATOM     15  O   LIG A   1      -5.589  -2.503 126.634  0.00  0.00    -0.289 OA
ENDROOT
BRANCH   1  16
ATOM     16  O   LIG A   1      -4.855   0.014 127.033  0.00  0.00    -0.375 OA
ATOM     17  H   LIG A   1      -4.844   0.905 127.445  0.00  0.00    +0.211 HD
ENDBRANCH   1  16
BRANCH   1  18
ATOM     18  C   LIG A   1      -7.151   0.094 127.688  0.00  0.00    +0.168 C 
BRANCH  18  20
ATOM     19  O   LIG A   1      -6.144   1.192 129.582  0.00  0.00    -0.251 OA
ATOM     20  C   LIG A   1      -6.469   0.151 129.033  0.00  0.00    +0.311 C 
BRANCH  20  21
ATOM     21  O   LIG A   1      -6.274  -1.097 129.524  0.00  0.00    -0.459 OA
BRANCH  21  22
ATOM     22  C   LIG A   1      -7.315  -1.795 130.259  0.00  0.00    +0.105 C 
ATOM     23  C   LIG A   1      -8.088  -2.793 129.388  0.00  0.00    +0.055 C 
ATOM     24  C   LIG A   1      -6.555  -2.562 131.351  0.00  0.00    +0.055 C 
ATOM     25  C   LIG A   1      -8.268  -0.806 130.935  0.00  0.00    +0.055 C 
ENDBRANCH  21  22
ENDBRANCH  20  21
ENDBRANCH  18  20
ENDBRANCH   1  18
TORSDOF 5
ENDMDL
MODEL 9
REMARK VINA RESULT:      -7.0      7.381      9.080
REMARK  Name = NuBBE_1370
REMARK  8 active torsions:
REMARK  status: ('A' for Active; 'I' for Inactive)
REMARK    1  A    between atoms: C_2  and  O_3
REMARK    2  A    between atoms: C_2  and  C_8
REMARK    3  A    between atoms: O_3  and  C_4
REMARK    4  A    between atoms: C_4  and  C_5
REMARK    5  A    between atoms: C_4  and  C_6
REMARK    6  A    between atoms: C_4  and  C_7
REMARK    7  A    between atoms: C_8  and  C_9
REMARK    8  A    between atoms: C_9  and  O_10
REMARK                            x       y       z     vdW  Elec       q    Type
REMARK                         _______ _______ _______ _____ _____    ______ ____
ROOT
ATOM      1  C   LIG A   1      -9.042   5.761 130.879  0.00  0.00    +0.164 C 
ATOM      2  C   LIG A   1      -7.541   5.740 131.125  0.00  0.00    -0.000 A 
ATOM      3  C   LIG A   1      -6.784   6.918 130.963  0.00  0.00    +0.007 A 
ATOM      4  C   LIG A   1      -5.402   6.910 131.129  0.00  0.00    +0.000 A 
ATOM      5  C   LIG A   1      -4.762   5.729 131.479  0.00  0.00    +0.001 A 
ATOM      6  C   LIG A   1      -5.505   4.560 131.663  0.00  0.00    +0.009 A 
ATOM      7  C   LIG A   1      -6.901   4.530 131.472  0.00  0.00    -0.011 A 
ATOM      8  C   LIG A   1      -7.697   3.287 131.612  0.00  0.00    -0.007 A 
ATOM      9  C   LIG A   1      -7.120   2.005 131.561  0.00  0.00    +0.009 A 
ATOM     10  C   LIG A   1      -7.900   0.846 131.650  0.00  0.00    +0.001 A 
ATOM     11  C   LIG A   1      -9.277   0.936 131.819  0.00  0.00    +0.001 A 
ATOM     12  C   LIG A   1      -9.882   2.186 131.875  0.00  0.00    +0.012 A 
ATOM     13  C   LIG A   1      -9.097   3.342 131.745  0.00  0.00    +0.028 A 
ATOM     14  C   LIG A   1      -9.785   4.643 131.618  0.00  0.00    +0.200 C 
ATOM     15  O   LIG A   1     -10.934   4.802 132.041  0.00  0.00    -0.289 OA
ENDROOT
BRANCH   1  16
ATOM     16  O   LIG A   1      -9.561   6.991 131.444  0.00  0.00    -0.375 OA
ATOM     17  H   LIG A   1     -10.456   6.774 131.782  0.00  0.00    +0.211 HD
ENDBRANCH   1  16
BRANCH   1  18
ATOM     18  C   LIG A   1      -9.411   5.778 129.392  0.00  0.00    +0.168 C 
BRANCH  18  20
ATOM     19  O   LIG A   1      -9.681   8.142 129.009  0.00  0.00    -0.251 OA
ATOM     20  C   LIG A   1     -10.153   7.017 128.957  0.00  0.00    +0.311 C 
BRANCH  20  21
ATOM     21  O   LIG A   1     -11.396   6.701 128.516  0.00  0.00    -0.459 OA
BRANCH  21  22
ATOM     22  C   LIG A   1     -12.567   7.443 128.951  0.00  0.00    +0.105 C 
ATOM     23  C   LIG A   1     -12.469   8.942 128.638  0.00  0.00    +0.055 C 
ATOM     24  C   LIG A   1     -13.720   6.833 128.142  0.00  0.00    +0.055 C 
ATOM     25  C   LIG A   1     -12.842   7.212 130.439  0.00  0.00    +0.055 C 
ENDBRANCH  21  22
ENDBRANCH  20  21
ENDBRANCH  18  20
ENDBRANCH   1  18
TORSDOF 5
ENDMDL
