MODEL 1
REMARK VINA RESULT:      -8.4      0.000      0.000
REMARK  Name = NuBBE_1473
REMARK  13 active torsions:
REMARK  status: ('A' for Active; 'I' for Inactive)
REMARK    1  A    between atoms: O_1  and  C_2
REMARK    2  A    between atoms: C_3  and  C_4
REMARK    3  A    between atoms: C_4  and  C_5
REMARK    4  A    between atoms: C_6  and  C_7
REMARK    5  A    between atoms: C_6  and  C_8
REMARK    6  A    between atoms: C_9  and  O_10
REMARK    7  A    between atoms: C_11  and  O_30
REMARK    8  A    between atoms: C_16  and  C_24
REMARK    9  A    between atoms: C_19  and  O_20
REMARK   10  A    between atoms: C_24  and  C_25
REMARK   11  A    between atoms: C_26  and  C_27
REMARK   12  A    between atoms: C_26  and  C_28
REMARK   13  A    between atoms: O_30  and  C_31
REMARK                            x       y       z     vdW  Elec       q    Type
REMARK                         _______ _______ _______ _____ _____    ______ ____
ROOT
ATOM      1  C   LIG A   1      -8.316   3.433 124.828  0.00  0.00    +0.168 A 
ATOM      2  C   LIG A   1      -8.500   2.697 123.636  0.00  0.00    +0.044 A 
ATOM      3  C   LIG A   1      -8.714   1.318 123.751  0.00  0.00    +0.137 A 
ATOM      4  C   LIG A   1      -8.270   2.814 126.095  0.00  0.00    +0.186 A 
ATOM      5  C   LIG A   1      -8.402   1.416 126.169  0.00  0.00    +0.100 A 
ATOM      6  C   LIG A   1      -8.656   0.689 125.002  0.00  0.00    +0.091 A 
ATOM      7  C   LIG A   1      -8.859  -0.771 125.123  0.00  0.00    +0.201 A 
ATOM      8  C   LIG A   1      -8.402  -1.480 126.357  0.00  0.00    +0.053 A 
ATOM      9  C   LIG A   1      -8.190  -2.873 126.418  0.00  0.00    -0.031 A 
ATOM     10  C   LIG A   1      -7.850  -3.433 127.670  0.00  0.00    +0.008 A 
ATOM     11  C   LIG A   1      -7.685  -2.640 128.807  0.00  0.00    +0.048 A 
ATOM     12  C   LIG A   1      -7.851  -1.263 128.708  0.00  0.00    +0.141 A 
ATOM     13  C   LIG A   1      -8.187  -0.665 127.488  0.00  0.00    +0.093 A 
ATOM     14  N   LIG A   1      -8.355   0.732 127.402  0.00  0.00    -0.348 N 
ATOM     15  O   LIG A   1      -9.425  -1.336 124.201  0.00  0.00    -0.286 OA
ATOM     16  H   LIG A   1      -7.987   1.262 128.189  0.00  0.00    +0.166 HD
ENDROOT
BRANCH   1  17
ATOM     17  O   LIG A   1      -8.188   4.793 124.731  0.00  0.00    -0.503 OA
ATOM     18  H   LIG A   1      -8.909   5.094 124.148  0.00  0.00    +0.292 HD
ENDBRANCH   1  17
BRANCH   3  19
ATOM     19  O   LIG A   1      -8.976   0.603 122.609  0.00  0.00    -0.506 OA
ATOM     20  H   LIG A   1      -9.846   0.156 122.730  0.00  0.00    +0.292 HD
ENDBRANCH   3  19
BRANCH  12  21
ATOM     21  O   LIG A   1      -7.667  -0.460 129.802  0.00  0.00    -0.505 OA
ATOM     22  H   LIG A   1      -8.132   0.380 129.653  0.00  0.00    +0.292 HD
ENDBRANCH  12  21
BRANCH   4  23
ATOM     23  O   LIG A   1      -8.102   3.427 127.314  0.00  0.00    -0.489 OA
ATOM     24  C   LIG A   1      -6.799   3.860 127.680  0.00  0.00    +0.277 C 
ENDBRANCH   4  23
BRANCH   2  25
ATOM     25  C   LIG A   1      -8.353   3.335 122.265  0.00  0.00    +0.069 C 
BRANCH  25  26
ATOM     26  C   LIG A   1      -6.933   3.593 121.828  0.00  0.00    -0.023 C 
ATOM     27  C   LIG A   1      -6.511   4.028 120.622  0.00  0.00    -0.079 C 
ATOM     28  C   LIG A   1      -7.389   4.289 119.424  0.00  0.00    +0.038 C 
ATOM     29  C   LIG A   1      -5.054   4.317 120.377  0.00  0.00    +0.038 C 
ENDBRANCH  25  26
ENDBRANCH   2  25
BRANCH   9  30
ATOM     30  C   LIG A   1      -8.292  -3.803 125.223  0.00  0.00    +0.063 C 
BRANCH  30  31
ATOM     31  C   LIG A   1      -6.955  -4.353 124.788  0.00  0.00    -0.024 C 
ATOM     32  C   LIG A   1      -6.000  -3.727 124.069  0.00  0.00    -0.079 C 
ATOM     33  C   LIG A   1      -6.072  -2.301 123.593  0.00  0.00    +0.038 C 
ATOM     34  C   LIG A   1      -4.741  -4.452 123.672  0.00  0.00    +0.038 C 
ENDBRANCH  30  31
ENDBRANCH   9  30
TORSDOF 8
ENDMDL
MODEL 2
REMARK VINA RESULT:      -8.3      6.499      9.253
REMARK  Name = NuBBE_1473
REMARK  13 active torsions:
REMARK  status: ('A' for Active; 'I' for Inactive)
REMARK    1  A    between atoms: O_1  and  C_2
REMARK    2  A    between atoms: C_3  and  C_4
REMARK    3  A    between atoms: C_4  and  C_5
REMARK    4  A    between atoms: C_6  and  C_7
REMARK    5  A    between atoms: C_6  and  C_8
REMARK    6  A    between atoms: C_9  and  O_10
REMARK    7  A    between atoms: C_11  and  O_30
REMARK    8  A    between atoms: C_16  and  C_24
REMARK    9  A    between atoms: C_19  and  O_20
REMARK   10  A    between atoms: C_24  and  C_25
REMARK   11  A    between atoms: C_26  and  C_27
REMARK   12  A    between atoms: C_26  and  C_28
REMARK   13  A    between atoms: O_30  and  C_31
REMARK                            x       y       z     vdW  Elec       q    Type
REMARK                         _______ _______ _______ _____ _____    ______ ____
ROOT
ATOM      1  C   LIG A   1      -9.681   5.693 132.126  0.00  0.00    +0.168 A 
ATOM      2  C   LIG A   1      -9.776   5.477 130.733  0.00  0.00    +0.044 A 
ATOM      3  C   LIG A   1      -8.581   5.327 130.018  0.00  0.00    +0.137 A 
ATOM      4  C   LIG A   1      -8.442   5.834 132.784  0.00  0.00    +0.186 A 
ATOM      5  C   LIG A   1      -7.261   5.765 132.023  0.00  0.00    +0.100 A 
ATOM      6  C   LIG A   1      -7.343   5.479 130.656  0.00  0.00    +0.091 A 
ATOM      7  C   LIG A   1      -6.080   5.344 129.898  0.00  0.00    +0.201 A 
ATOM      8  C   LIG A   1      -4.814   5.897 130.469  0.00  0.00    +0.053 A 
ATOM      9  C   LIG A   1      -3.668   6.169 129.693  0.00  0.00    -0.031 A 
ATOM     10  C   LIG A   1      -2.504   6.600 130.368  0.00  0.00    +0.008 A 
ATOM     11  C   LIG A   1      -2.488   6.793 131.750  0.00  0.00    +0.048 A 
ATOM     12  C   LIG A   1      -3.645   6.564 132.484  0.00  0.00    +0.141 A 
ATOM     13  C   LIG A   1      -4.822   6.138 131.858  0.00  0.00    +0.093 A 
ATOM     14  N   LIG A   1      -5.988   5.907 132.615  0.00  0.00    -0.348 N 
ATOM     15  O   LIG A   1      -6.129   4.753 128.831  0.00  0.00    -0.286 OA
ATOM     16  H   LIG A   1      -5.979   6.295 133.555  0.00  0.00    +0.166 HD
ENDROOT
BRANCH   1  17
ATOM     17  O   LIG A   1     -10.844   5.760 132.847  0.00  0.00    -0.503 OA
ATOM     18  H   LIG A   1     -11.404   6.421 132.399  0.00  0.00    +0.292 HD
ENDBRANCH   1  17
BRANCH   3  19
ATOM     19  O   LIG A   1      -8.657   5.034 128.679  0.00  0.00    -0.506 OA
ATOM     20  H   LIG A   1      -9.593   5.167 128.398  0.00  0.00    +0.292 HD
ENDBRANCH   3  19
BRANCH  12  21
ATOM     21  O   LIG A   1      -3.663   6.773 133.838  0.00  0.00    -0.505 OA
ATOM     22  H   LIG A   1      -4.569   6.637 134.162  0.00  0.00    +0.292 HD
ENDBRANCH  12  21
BRANCH   4  23
ATOM     23  O   LIG A   1      -8.232   6.042 134.127  0.00  0.00    -0.489 OA
ATOM     24  C   LIG A   1      -8.109   4.911 134.977  0.00  0.00    +0.277 C 
ENDBRANCH   4  23
BRANCH   2  25
ATOM     25  C   LIG A   1     -11.105   5.523 129.999  0.00  0.00    +0.069 C 
BRANCH  25  26
ATOM     26  C   LIG A   1     -11.472   6.867 129.423  0.00  0.00    -0.023 C 
ATOM     27  C   LIG A   1     -12.280   7.800 129.967  0.00  0.00    -0.079 C 
ATOM     28  C   LIG A   1     -13.043   7.658 131.260  0.00  0.00    +0.038 C 
ATOM     29  C   LIG A   1     -12.475   9.133 129.295  0.00  0.00    +0.038 C 
ENDBRANCH  25  26
ENDBRANCH   2  25
BRANCH   9  30
ATOM     30  C   LIG A   1      -3.613   6.042 128.181  0.00  0.00    +0.063 C 
BRANCH  30  31
ATOM     31  C   LIG A   1      -2.596   5.031 127.711  0.00  0.00    -0.024 C 
ATOM     32  C   LIG A   1      -2.791   3.998 126.865  0.00  0.00    -0.079 C 
ATOM     33  C   LIG A   1      -4.089   3.680 126.174  0.00  0.00    +0.038 C 
ATOM     34  C   LIG A   1      -1.668   3.046 126.547  0.00  0.00    +0.038 C 
ENDBRANCH  30  31
ENDBRANCH   9  30
TORSDOF 8
ENDMDL
MODEL 3
REMARK VINA RESULT:      -8.0      4.352      6.671
REMARK  Name = NuBBE_1473
REMARK  13 active torsions:
REMARK  status: ('A' for Active; 'I' for Inactive)
REMARK    1  A    between atoms: O_1  and  C_2
REMARK    2  A    between atoms: C_3  and  C_4
REMARK    3  A    between atoms: C_4  and  C_5
REMARK    4  A    between atoms: C_6  and  C_7
REMARK    5  A    between atoms: C_6  and  C_8
REMARK    6  A    between atoms: C_9  and  O_10
REMARK    7  A    between atoms: C_11  and  O_30
REMARK    8  A    between atoms: C_16  and  C_24
REMARK    9  A    between atoms: C_19  and  O_20
REMARK   10  A    between atoms: C_24  and  C_25
REMARK   11  A    between atoms: C_26  and  C_27
REMARK   12  A    between atoms: C_26  and  C_28
REMARK   13  A    between atoms: O_30  and  C_31
REMARK                            x       y       z     vdW  Elec       q    Type
REMARK                         _______ _______ _______ _____ _____    ______ ____
ROOT
ATOM      1  C   LIG A   1      -9.555   5.517 132.149  0.00  0.00    +0.168 A 
ATOM      2  C   LIG A   1      -9.527   5.792 130.764  0.00  0.00    +0.044 A 
ATOM      3  C   LIG A   1      -9.281   4.721 129.895  0.00  0.00    +0.137 A 
ATOM      4  C   LIG A   1      -9.273   4.236 132.669  0.00  0.00    +0.186 A 
ATOM      5  C   LIG A   1      -8.944   3.202 131.775  0.00  0.00    +0.100 A 
ATOM      6  C   LIG A   1      -8.986   3.448 130.398  0.00  0.00    +0.091 A 
ATOM      7  C   LIG A   1      -8.702   2.320 129.483  0.00  0.00    +0.201 A 
ATOM      8  C   LIG A   1      -8.004   1.105 130.003  0.00  0.00    +0.053 A 
ATOM      9  C   LIG A   1      -7.352   0.170 129.171  0.00  0.00    -0.031 A 
ATOM     10  C   LIG A   1      -6.812  -0.986 129.778  0.00  0.00    +0.008 A 
ATOM     11  C   LIG A   1      -6.878  -1.187 131.158  0.00  0.00    +0.048 A 
ATOM     12  C   LIG A   1      -7.482  -0.226 131.960  0.00  0.00    +0.141 A 
ATOM     13  C   LIG A   1      -8.030   0.935 131.402  0.00  0.00    +0.093 A 
ATOM     14  N   LIG A   1      -8.642   1.900 132.227  0.00  0.00    -0.348 N 
ATOM     15  O   LIG A   1      -9.083   2.428 128.328  0.00  0.00    -0.286 OA
ATOM     16  H   LIG A   1      -8.441   1.812 133.220  0.00  0.00    +0.166 HD
ENDROOT
BRANCH   1  17
ATOM     17  O   LIG A   1      -9.875   6.541 133.001  0.00  0.00    -0.503 OA
ATOM     18  H   LIG A   1     -10.547   6.186 133.612  0.00  0.00    +0.292 HD
ENDBRANCH   1  17
BRANCH   3  19
ATOM     19  O   LIG A   1      -9.332   4.955 128.543  0.00  0.00    -0.506 OA
ATOM     20  H   LIG A   1      -9.328   5.932 128.410  0.00  0.00    +0.292 HD
ENDBRANCH   3  19
BRANCH  12  21
ATOM     21  O   LIG A   1      -7.535  -0.388 133.319  0.00  0.00    -0.505 OA
ATOM     22  H   LIG A   1      -7.342   0.466 133.741  0.00  0.00    +0.292 HD
ENDBRANCH  12  21
BRANCH   4  23
ATOM     23  O   LIG A   1      -9.275   3.856 133.990  0.00  0.00    -0.489 OA
ATOM     24  C   LIG A   1      -8.206   4.286 134.820  0.00  0.00    +0.277 C 
ENDBRANCH   4  23
BRANCH   2  25
ATOM     25  C   LIG A   1      -9.635   7.206 130.220  0.00  0.00    +0.069 C 
BRANCH  25  26
ATOM     26  C   LIG A   1     -11.038   7.673 129.923  0.00  0.00    -0.023 C 
ATOM     27  C   LIG A   1     -11.540   8.057 128.731  0.00  0.00    -0.079 C 
ATOM     28  C   LIG A   1     -10.766   8.156 127.440  0.00  0.00    +0.038 C 
ATOM     29  C   LIG A   1     -12.996   8.415 128.591  0.00  0.00    +0.038 C 
ENDBRANCH  25  26
ENDBRANCH   2  25
BRANCH   9  30
ATOM     30  C   LIG A   1      -7.184   0.336 127.672  0.00  0.00    +0.063 C 
BRANCH  30  31
ATOM     31  C   LIG A   1      -7.664  -0.862 126.888  0.00  0.00    -0.024 C 
ATOM     32  C   LIG A   1      -8.706  -0.924 126.034  0.00  0.00    -0.079 C 
ATOM     33  C   LIG A   1      -9.585   0.237 125.656  0.00  0.00    +0.038 C 
ATOM     34  C   LIG A   1      -9.081  -2.227 125.377  0.00  0.00    +0.038 C 
ENDBRANCH  30  31
ENDBRANCH   9  30
TORSDOF 8
ENDMDL
MODEL 4
REMARK VINA RESULT:      -7.9      4.332      8.671
REMARK  Name = NuBBE_1473
REMARK  13 active torsions:
REMARK  status: ('A' for Active; 'I' for Inactive)
REMARK    1  A    between atoms: O_1  and  C_2
REMARK    2  A    between atoms: C_3  and  C_4
REMARK    3  A    between atoms: C_4  and  C_5
REMARK    4  A    between atoms: C_6  and  C_7
REMARK    5  A    between atoms: C_6  and  C_8
REMARK    6  A    between atoms: C_9  and  O_10
REMARK    7  A    between atoms: C_11  and  O_30
REMARK    8  A    between atoms: C_16  and  C_24
REMARK    9  A    between atoms: C_19  and  O_20
REMARK   10  A    between atoms: C_24  and  C_25
REMARK   11  A    between atoms: C_26  and  C_27
REMARK   12  A    between atoms: C_26  and  C_28
REMARK   13  A    between atoms: O_30  and  C_31
REMARK                            x       y       z     vdW  Elec       q    Type
REMARK                         _______ _______ _______ _____ _____    ______ ____
ROOT
ATOM      1  C   LIG A   1      -7.499   0.584 128.964  0.00  0.00    +0.168 A 
ATOM      2  C   LIG A   1      -7.659   1.187 127.696  0.00  0.00    +0.044 A 
ATOM      3  C   LIG A   1      -8.059   2.529 127.662  0.00  0.00    +0.137 A 
ATOM      4  C   LIG A   1      -7.796   1.263 130.163  0.00  0.00    +0.186 A 
ATOM      5  C   LIG A   1      -8.279   2.582 130.091  0.00  0.00    +0.100 A 
ATOM      6  C   LIG A   1      -8.371   3.210 128.845  0.00  0.00    +0.091 A 
ATOM      7  C   LIG A   1      -8.816   4.621 128.810  0.00  0.00    +0.201 A 
ATOM      8  C   LIG A   1      -9.523   5.202 129.992  0.00  0.00    +0.053 A 
ATOM      9  C   LIG A   1     -10.313   6.368 129.927  0.00  0.00    -0.031 A 
ATOM     10  C   LIG A   1     -10.851   6.868 131.134  0.00  0.00    +0.008 A 
ATOM     11  C   LIG A   1     -10.649   6.214 132.351  0.00  0.00    +0.048 A 
ATOM     12  C   LIG A   1      -9.908   5.039 132.380  0.00  0.00    +0.141 A 
ATOM     13  C   LIG A   1      -9.357   4.507 131.208  0.00  0.00    +0.093 A 
ATOM     14  N   LIG A   1      -8.605   3.316 131.251  0.00  0.00    -0.348 N 
ATOM     15  O   LIG A   1      -8.556   5.265 127.806  0.00  0.00    -0.286 OA
ATOM     16  H   LIG A   1      -8.703   2.773 132.106  0.00  0.00    +0.166 HD
ENDROOT
BRANCH   1  17
ATOM     17  O   LIG A   1      -7.030  -0.702 129.009  0.00  0.00    -0.503 OA
ATOM     18  H   LIG A   1      -7.568  -1.210 128.373  0.00  0.00    +0.292 HD
ENDBRANCH   1  17
BRANCH   3  19
ATOM     19  O   LIG A   1      -8.140   3.153 126.442  0.00  0.00    -0.506 OA
ATOM     20  H   LIG A   1      -7.858   2.503 125.756  0.00  0.00    +0.292 HD
ENDBRANCH   3  19
BRANCH  12  21
ATOM     21  O   LIG A   1      -9.719   4.364 133.557  0.00  0.00    -0.505 OA
ATOM     22  H   LIG A   1     -10.540   3.895 133.782  0.00  0.00    +0.292 HD
ENDBRANCH  12  21
BRANCH   4  23
ATOM     23  O   LIG A   1      -7.675   0.780 131.445  0.00  0.00    -0.489 OA
ATOM     24  C   LIG A   1      -8.643  -0.147 131.914  0.00  0.00    +0.277 C 
ENDBRANCH   4  23
BRANCH   2  25
ATOM     25  C   LIG A   1      -7.529   0.397 126.405  0.00  0.00    +0.069 C 
BRANCH  25  26
ATOM     26  C   LIG A   1      -8.574  -0.671 126.199  0.00  0.00    -0.023 C 
ATOM     27  C   LIG A   1      -8.372  -1.979 125.938  0.00  0.00    -0.079 C 
ATOM     28  C   LIG A   1      -7.031  -2.638 125.734  0.00  0.00    +0.038 C 
ATOM     29  C   LIG A   1      -9.533  -2.932 125.844  0.00  0.00    +0.038 C 
ENDBRANCH  25  26
ENDBRANCH   2  25
BRANCH   9  30
ATOM     30  C   LIG A   1     -10.632   7.110 128.641  0.00  0.00    +0.063 C 
BRANCH  30  31
ATOM     31  C   LIG A   1     -11.487   8.334 128.862  0.00  0.00    -0.024 C 
ATOM     32  C   LIG A   1     -12.785   8.503 128.534  0.00  0.00    -0.079 C 
ATOM     33  C   LIG A   1     -13.662   7.453 127.909  0.00  0.00    +0.038 C 
ATOM     34  C   LIG A   1     -13.471   9.822 128.779  0.00  0.00    +0.038 C 
ENDBRANCH  30  31
ENDBRANCH   9  30
TORSDOF 8
ENDMDL
MODEL 5
REMARK VINA RESULT:      -7.7      5.501      7.547
REMARK  Name = NuBBE_1473
REMARK  13 active torsions:
REMARK  status: ('A' for Active; 'I' for Inactive)
REMARK    1  A    between atoms: O_1  and  C_2
REMARK    2  A    between atoms: C_3  and  C_4
REMARK    3  A    between atoms: C_4  and  C_5
REMARK    4  A    between atoms: C_6  and  C_7
REMARK    5  A    between atoms: C_6  and  C_8
REMARK    6  A    between atoms: C_9  and  O_10
REMARK    7  A    between atoms: C_11  and  O_30
REMARK    8  A    between atoms: C_16  and  C_24
REMARK    9  A    between atoms: C_19  and  O_20
REMARK   10  A    between atoms: C_24  and  C_25
REMARK   11  A    between atoms: C_26  and  C_27
REMARK   12  A    between atoms: C_26  and  C_28
REMARK   13  A    between atoms: O_30  and  C_31
REMARK                            x       y       z     vdW  Elec       q    Type
REMARK                         _______ _______ _______ _____ _____    ______ ____
ROOT
ATOM      1  C   LIG A   1      -9.997   5.733 131.773  0.00  0.00    +0.168 A 
ATOM      2  C   LIG A   1      -9.978   6.150 130.423  0.00  0.00    +0.044 A 
ATOM      3  C   LIG A   1      -9.233   5.384 129.518  0.00  0.00    +0.137 A 
ATOM      4  C   LIG A   1      -9.241   4.635 132.232  0.00  0.00    +0.186 A 
ATOM      5  C   LIG A   1      -8.435   3.939 131.315  0.00  0.00    +0.100 A 
ATOM      6  C   LIG A   1      -8.466   4.299 129.964  0.00  0.00    +0.091 A 
ATOM      7  C   LIG A   1      -7.659   3.503 129.013  0.00  0.00    +0.201 A 
ATOM      8  C   LIG A   1      -6.555   2.636 129.528  0.00  0.00    +0.053 A 
ATOM      9  C   LIG A   1      -5.505   2.157 128.719  0.00  0.00    -0.031 A 
ATOM     10  C   LIG A   1      -4.575   1.268 129.305  0.00  0.00    +0.008 A 
ATOM     11  C   LIG A   1      -4.659   0.902 130.649  0.00  0.00    +0.048 A 
ATOM     12  C   LIG A   1      -5.676   1.429 131.437  0.00  0.00    +0.141 A 
ATOM     13  C   LIG A   1      -6.618   2.313 130.899  0.00  0.00    +0.093 A 
ATOM     14  N   LIG A   1      -7.646   2.837 131.709  0.00  0.00    -0.348 N 
ATOM     15  O   LIG A   1      -7.956   3.573 127.832  0.00  0.00    -0.286 OA
ATOM     16  H   LIG A   1      -7.506   2.729 132.711  0.00  0.00    +0.166 HD
ENDROOT
BRANCH   1  17
ATOM     17  O   LIG A   1     -10.788   6.428 132.649  0.00  0.00    -0.503 OA
ATOM     18  H   LIG A   1     -11.375   6.984 132.103  0.00  0.00    +0.292 HD
ENDBRANCH   1  17
BRANCH   3  19
ATOM     19  O   LIG A   1      -9.270   5.727 128.189  0.00  0.00    -0.506 OA
ATOM     20  H   LIG A   1      -8.341   5.870 127.893  0.00  0.00    +0.292 HD
ENDBRANCH   3  19
BRANCH  12  21
ATOM     21  O   LIG A   1      -5.763   1.107 132.766  0.00  0.00    -0.505 OA
ATOM     22  H   LIG A   1      -6.689   1.202 133.048  0.00  0.00    +0.292 HD
ENDBRANCH  12  21
BRANCH   4  23
ATOM     23  O   LIG A   1      -9.187   4.141 133.514  0.00  0.00    -0.489 OA
ATOM     24  C   LIG A   1      -8.288   4.742 134.435  0.00  0.00    +0.277 C 
ENDBRANCH   4  23
BRANCH   2  25
ATOM     25  C   LIG A   1     -10.632   7.444 129.969  0.00  0.00    +0.069 C 
BRANCH  25  26
ATOM     26  C   LIG A   1     -11.833   7.275 129.074  0.00  0.00    -0.023 C 
ATOM     27  C   LIG A   1     -12.795   8.184 128.809  0.00  0.00    -0.079 C 
ATOM     28  C   LIG A   1     -12.897   9.560 129.417  0.00  0.00    +0.038 C 
ATOM     29  C   LIG A   1     -13.887   7.879 127.818  0.00  0.00    +0.038 C 
ENDBRANCH  25  26
ENDBRANCH   2  25
BRANCH   9  30
ATOM     30  C   LIG A   1      -5.303   2.546 127.265  0.00  0.00    +0.063 C 
BRANCH  30  31
ATOM     31  C   LIG A   1      -3.871   2.405 126.809  0.00  0.00    -0.024 C 
ATOM     32  C   LIG A   1      -2.856   3.273 127.000  0.00  0.00    -0.079 C 
ATOM     33  C   LIG A   1      -2.955   4.563 127.769  0.00  0.00    +0.038 C 
ATOM     34  C   LIG A   1      -1.493   2.997 126.422  0.00  0.00    +0.038 C 
ENDBRANCH  30  31
ENDBRANCH   9  30
TORSDOF 8
ENDMDL
MODEL 6
REMARK VINA RESULT:      -7.7      2.589      8.013
REMARK  Name = NuBBE_1473
REMARK  13 active torsions:
REMARK  status: ('A' for Active; 'I' for Inactive)
REMARK    1  A    between atoms: O_1  and  C_2
REMARK    2  A    between atoms: C_3  and  C_4
REMARK    3  A    between atoms: C_4  and  C_5
REMARK    4  A    between atoms: C_6  and  C_7
REMARK    5  A    between atoms: C_6  and  C_8
REMARK    6  A    between atoms: C_9  and  O_10
REMARK    7  A    between atoms: C_11  and  O_30
REMARK    8  A    between atoms: C_16  and  C_24
REMARK    9  A    between atoms: C_19  and  O_20
REMARK   10  A    between atoms: C_24  and  C_25
REMARK   11  A    between atoms: C_26  and  C_27
REMARK   12  A    between atoms: C_26  and  C_28
REMARK   13  A    between atoms: O_30  and  C_31
REMARK                            x       y       z     vdW  Elec       q    Type
REMARK                         _______ _______ _______ _____ _____    ______ ____
ROOT
ATOM      1  C   LIG A   1      -8.926  -1.698 126.009  0.00  0.00    +0.168 A 
ATOM      2  C   LIG A   1      -8.029  -1.860 127.089  0.00  0.00    +0.044 A 
ATOM      3  C   LIG A   1      -7.154  -0.803 127.368  0.00  0.00    +0.137 A 
ATOM      4  C   LIG A   1      -8.909  -0.557 125.180  0.00  0.00    +0.186 A 
ATOM      5  C   LIG A   1      -7.959   0.448 125.435  0.00  0.00    +0.100 A 
ATOM      6  C   LIG A   1      -7.117   0.330 126.544  0.00  0.00    +0.091 A 
ATOM      7  C   LIG A   1      -6.176   1.438 126.824  0.00  0.00    +0.201 A 
ATOM      8  C   LIG A   1      -5.856   2.423 125.747  0.00  0.00    +0.053 A 
ATOM      9  C   LIG A   1      -4.718   3.256 125.772  0.00  0.00    -0.031 A 
ATOM     10  C   LIG A   1      -4.580   4.212 124.741  0.00  0.00    +0.008 A 
ATOM     11  C   LIG A   1      -5.509   4.311 123.705  0.00  0.00    +0.048 A 
ATOM     12  C   LIG A   1      -6.596   3.445 123.678  0.00  0.00    +0.141 A 
ATOM     13  C   LIG A   1      -6.773   2.482 124.677  0.00  0.00    +0.093 A 
ATOM     14  N   LIG A   1      -7.880   1.611 124.639  0.00  0.00    -0.348 N 
ATOM     15  O   LIG A   1      -5.717   1.509 127.953  0.00  0.00    -0.286 OA
ATOM     16  H   LIG A   1      -8.371   1.573 123.749  0.00  0.00    +0.166 HD
ENDROOT
BRANCH   1  17
ATOM     17  O   LIG A   1      -9.840  -2.692 125.779  0.00  0.00    -0.503 OA
ATOM     18  H   LIG A   1     -10.553  -2.289 125.249  0.00  0.00    +0.292 HD
ENDBRANCH   1  17
BRANCH   3  19
ATOM     19  O   LIG A   1      -6.333  -0.910 128.463  0.00  0.00    -0.506 OA
ATOM     20  H   LIG A   1      -6.881  -1.235 129.216  0.00  0.00    +0.292 HD
ENDBRANCH   3  19
BRANCH  12  21
ATOM     21  O   LIG A   1      -7.507   3.504 122.657  0.00  0.00    -0.505 OA
ATOM     22  H   LIG A   1      -8.332   3.083 122.951  0.00  0.00    +0.292 HD
ENDBRANCH  12  21
BRANCH   4  23
ATOM     23  O   LIG A   1      -9.732  -0.293 124.111  0.00  0.00    -0.489 OA
ATOM     24  C   LIG A   1      -9.404  -0.855 122.849  0.00  0.00    +0.277 C 
ENDBRANCH   4  23
BRANCH   2  25
ATOM     25  C   LIG A   1      -7.916  -3.167 127.854  0.00  0.00    +0.069 C 
BRANCH  25  26
ATOM     26  C   LIG A   1      -8.092  -3.053 129.347  0.00  0.00    -0.023 C 
ATOM     27  C   LIG A   1      -7.209  -3.398 130.307  0.00  0.00    -0.079 C 
ATOM     28  C   LIG A   1      -5.863  -4.038 130.076  0.00  0.00    +0.038 C 
ATOM     29  C   LIG A   1      -7.513  -3.138 131.759  0.00  0.00    +0.038 C 
ENDBRANCH  25  26
ENDBRANCH   2  25
BRANCH   9  30
ATOM     30  C   LIG A   1      -3.629   3.179 126.827  0.00  0.00    +0.063 C 
BRANCH  30  31
ATOM     31  C   LIG A   1      -3.013   4.521 127.139  0.00  0.00    -0.024 C 
ATOM     32  C   LIG A   1      -2.849   5.092 128.350  0.00  0.00    -0.079 C 
ATOM     33  C   LIG A   1      -3.219   4.456 129.663  0.00  0.00    +0.038 C 
ATOM     34  C   LIG A   1      -2.263   6.474 128.473  0.00  0.00    +0.038 C 
ENDBRANCH  30  31
ENDBRANCH   9  30
TORSDOF 8
ENDMDL
MODEL 7
REMARK VINA RESULT:      -7.6      2.223      4.972
REMARK  Name = NuBBE_1473
REMARK  13 active torsions:
REMARK  status: ('A' for Active; 'I' for Inactive)
REMARK    1  A    between atoms: O_1  and  C_2
REMARK    2  A    between atoms: C_3  and  C_4
REMARK    3  A    between atoms: C_4  and  C_5
REMARK    4  A    between atoms: C_6  and  C_7
REMARK    5  A    between atoms: C_6  and  C_8
REMARK    6  A    between atoms: C_9  and  O_10
REMARK    7  A    between atoms: C_11  and  O_30
REMARK    8  A    between atoms: C_16  and  C_24
REMARK    9  A    between atoms: C_19  and  O_20
REMARK   10  A    between atoms: C_24  and  C_25
REMARK   11  A    between atoms: C_26  and  C_27
REMARK   12  A    between atoms: C_26  and  C_28
REMARK   13  A    between atoms: O_30  and  C_31
REMARK                            x       y       z     vdW  Elec       q    Type
REMARK                         _______ _______ _______ _____ _____    ______ ____
ROOT
ATOM      1  C   LIG A   1      -9.066   0.279 123.649  0.00  0.00    +0.168 A 
ATOM      2  C   LIG A   1      -8.459   1.462 124.127  0.00  0.00    +0.044 A 
ATOM      3  C   LIG A   1      -7.779   1.392 125.349  0.00  0.00    +0.137 A 
ATOM      4  C   LIG A   1      -9.066  -0.920 124.390  0.00  0.00    +0.186 A 
ATOM      5  C   LIG A   1      -8.449  -0.934 125.653  0.00  0.00    +0.100 A 
ATOM      6  C   LIG A   1      -7.783   0.211 126.103  0.00  0.00    +0.091 A 
ATOM      7  C   LIG A   1      -7.084   0.143 127.405  0.00  0.00    +0.201 A 
ATOM      8  C   LIG A   1      -7.426  -0.947 128.369  0.00  0.00    +0.053 A 
ATOM      9  C   LIG A   1      -7.124  -0.887 129.746  0.00  0.00    -0.031 A 
ATOM     10  C   LIG A   1      -7.414  -2.024 130.533  0.00  0.00    +0.008 A 
ATOM     11  C   LIG A   1      -8.017  -3.158 129.988  0.00  0.00    +0.048 A 
ATOM     12  C   LIG A   1      -8.349  -3.172 128.638  0.00  0.00    +0.141 A 
ATOM     13  C   LIG A   1      -8.081  -2.068 127.820  0.00  0.00    +0.093 A 
ATOM     14  N   LIG A   1      -8.421  -2.096 126.453  0.00  0.00    -0.348 N 
ATOM     15  O   LIG A   1      -6.226   0.983 127.624  0.00  0.00    -0.286 OA
ATOM     16  H   LIG A   1      -9.065  -2.836 126.181  0.00  0.00    +0.166 HD
ENDROOT
BRANCH   1  17
ATOM     17  O   LIG A   1      -9.664   0.316 122.417  0.00  0.00    -0.503 OA
ATOM     18  H   LIG A   1      -9.081   0.852 121.848  0.00  0.00    +0.292 HD
ENDBRANCH   1  17
BRANCH   3  19
ATOM     19  O   LIG A   1      -7.115   2.511 125.788  0.00  0.00    -0.506 OA
ATOM     20  H   LIG A   1      -7.663   3.295 125.550  0.00  0.00    +0.292 HD
ENDBRANCH   3  19
BRANCH  12  21
ATOM     21  O   LIG A   1      -8.966  -4.262 128.085  0.00  0.00    -0.505 OA
ATOM     22  H   LIG A   1      -8.544  -5.067 128.430  0.00  0.00    +0.292 HD
ENDBRANCH  12  21
BRANCH   4  23
ATOM     23  O   LIG A   1      -9.618  -2.125 124.023  0.00  0.00    -0.489 OA
ATOM     24  C   LIG A   1      -8.894  -2.958 123.130  0.00  0.00    +0.277 C 
ENDBRANCH   4  23
BRANCH   2  25
ATOM     25  C   LIG A   1      -8.629   2.797 123.423  0.00  0.00    +0.069 C 
BRANCH  25  26
ATOM     26  C   LIG A   1      -7.525   3.160 122.464  0.00  0.00    -0.023 C 
ATOM     27  C   LIG A   1      -7.651   3.618 121.200  0.00  0.00    -0.079 C 
ATOM     28  C   LIG A   1      -8.950   3.803 120.457  0.00  0.00    +0.038 C 
ATOM     29  C   LIG A   1      -6.437   4.015 120.403  0.00  0.00    +0.038 C 
ENDBRANCH  25  26
ENDBRANCH   2  25
BRANCH   9  30
ATOM     30  C   LIG A   1      -6.522   0.325 130.434  0.00  0.00    +0.063 C 
BRANCH  30  31
ATOM     31  C   LIG A   1      -7.415   0.899 131.506  0.00  0.00    -0.024 C 
ATOM     32  C   LIG A   1      -8.429   1.777 131.353  0.00  0.00    -0.079 C 
ATOM     33  C   LIG A   1      -8.903   2.328 130.035  0.00  0.00    +0.038 C 
ATOM     34  C   LIG A   1      -9.184   2.292 132.550  0.00  0.00    +0.038 C 
ENDBRANCH  30  31
ENDBRANCH   9  30
TORSDOF 8
ENDMDL
MODEL 8
REMARK VINA RESULT:      -7.6      2.857      6.394
REMARK  Name = NuBBE_1473
REMARK  13 active torsions:
REMARK  status: ('A' for Active; 'I' for Inactive)
REMARK    1  A    between atoms: O_1  and  C_2
REMARK    2  A    between atoms: C_3  and  C_4
REMARK    3  A    between atoms: C_4  and  C_5
REMARK    4  A    between atoms: C_6  and  C_7
REMARK    5  A    between atoms: C_6  and  C_8
REMARK    6  A    between atoms: C_9  and  O_10
REMARK    7  A    between atoms: C_11  and  O_30
REMARK    8  A    between atoms: C_16  and  C_24
REMARK    9  A    between atoms: C_19  and  O_20
REMARK   10  A    between atoms: C_24  and  C_25
REMARK   11  A    between atoms: C_26  and  C_27
REMARK   12  A    between atoms: C_26  and  C_28
REMARK   13  A    between atoms: O_30  and  C_31
REMARK                            x       y       z     vdW  Elec       q    Type
REMARK                         _______ _______ _______ _____ _____    ______ ____
ROOT
ATOM      1  C   LIG A   1      -7.839   1.082 124.327  0.00  0.00    +0.168 A 
ATOM      2  C   LIG A   1      -7.910   2.467 124.056  0.00  0.00    +0.044 A 
ATOM      3  C   LIG A   1      -7.896   3.342 125.150  0.00  0.00    +0.137 A 
ATOM      4  C   LIG A   1      -7.832   0.571 125.641  0.00  0.00    +0.186 A 
ATOM      5  C   LIG A   1      -7.906   1.473 126.717  0.00  0.00    +0.100 A 
ATOM      6  C   LIG A   1      -7.903   2.848 126.460  0.00  0.00    +0.091 A 
ATOM      7  C   LIG A   1      -7.912   3.771 127.616  0.00  0.00    +0.201 A 
ATOM      8  C   LIG A   1      -8.324   3.265 128.961  0.00  0.00    +0.053 A 
ATOM      9  C   LIG A   1      -8.737   4.109 130.014  0.00  0.00    -0.031 A 
ATOM     10  C   LIG A   1      -9.010   3.513 131.266  0.00  0.00    +0.008 A 
ATOM     11  C   LIG A   1      -8.919   2.134 131.456  0.00  0.00    +0.048 A 
ATOM     12  C   LIG A   1      -8.558   1.320 130.389  0.00  0.00    +0.141 A 
ATOM     13  C   LIG A   1      -8.280   1.866 129.130  0.00  0.00    +0.093 A 
ATOM     14  N   LIG A   1      -7.912   1.030 128.057  0.00  0.00    -0.348 N 
ATOM     15  O   LIG A   1      -7.550   4.919 127.418  0.00  0.00    -0.286 OA
ATOM     16  H   LIG A   1      -8.101   0.039 128.194  0.00  0.00    +0.166 HD
ENDROOT
BRANCH   1  17
ATOM     17  O   LIG A   1      -7.770   0.223 123.263  0.00  0.00    -0.503 OA
ATOM     18  H   LIG A   1      -8.087   0.723 122.488  0.00  0.00    +0.292 HD
ENDBRANCH   1  17
BRANCH   3  19
ATOM     19  O   LIG A   1      -7.882   4.693 124.901  0.00  0.00    -0.506 OA
ATOM     20  H   LIG A   1      -8.166   4.827 123.967  0.00  0.00    +0.292 HD
ENDBRANCH   3  19
BRANCH  12  21
ATOM     21  O   LIG A   1      -8.489  -0.039 130.542  0.00  0.00    -0.505 OA
ATOM     22  H   LIG A   1      -7.701  -0.253 131.071  0.00  0.00    +0.292 HD
ENDBRANCH  12  21
BRANCH   4  23
ATOM     23  O   LIG A   1      -7.761  -0.749 126.019  0.00  0.00    -0.489 OA
ATOM     24  C   LIG A   1      -8.923  -1.555 125.886  0.00  0.00    +0.277 C 
ENDBRANCH   4  23
BRANCH   2  25
ATOM     25  C   LIG A   1      -8.117   3.005 122.651  0.00  0.00    +0.069 C 
BRANCH  25  26
ATOM     26  C   LIG A   1      -6.864   3.461 121.948  0.00  0.00    -0.023 C 
ATOM     27  C   LIG A   1      -6.760   3.978 120.706  0.00  0.00    -0.079 C 
ATOM     28  C   LIG A   1      -7.894   4.150 119.727  0.00  0.00    +0.038 C 
ATOM     29  C   LIG A   1      -5.434   4.465 120.185  0.00  0.00    +0.038 C 
ENDBRANCH  25  26
ENDBRANCH   2  25
BRANCH   9  30
ATOM     30  C   LIG A   1      -8.918   5.610 129.881  0.00  0.00    +0.063 C 
BRANCH  30  31
ATOM     31  C   LIG A   1     -10.303   5.999 129.425  0.00  0.00    -0.024 C 
ATOM     32  C   LIG A   1     -11.359   6.339 130.194  0.00  0.00    -0.079 C 
ATOM     33  C   LIG A   1     -11.337   6.442 131.695  0.00  0.00    +0.038 C 
ATOM     34  C   LIG A   1     -12.694   6.646 129.569  0.00  0.00    +0.038 C 
ENDBRANCH  30  31
ENDBRANCH   9  30
TORSDOF 8
ENDMDL
MODEL 9
REMARK VINA RESULT:      -7.6      2.759      5.293
REMARK  Name = NuBBE_1473
REMARK  13 active torsions:
REMARK  status: ('A' for Active; 'I' for Inactive)
REMARK    1  A    between atoms: O_1  and  C_2
REMARK    2  A    between atoms: C_3  and  C_4
REMARK    3  A    between atoms: C_4  and  C_5
REMARK    4  A    between atoms: C_6  and  C_7
REMARK    5  A    between atoms: C_6  and  C_8
REMARK    6  A    between atoms: C_9  and  O_10
REMARK    7  A    between atoms: C_11  and  O_30
REMARK    8  A    between atoms: C_16  and  C_24
REMARK    9  A    between atoms: C_19  and  O_20
REMARK   10  A    between atoms: C_24  and  C_25
REMARK   11  A    between atoms: C_26  and  C_27
REMARK   12  A    between atoms: C_26  and  C_28
REMARK   13  A    between atoms: O_30  and  C_31
REMARK                            x       y       z     vdW  Elec       q    Type
REMARK                         _______ _______ _______ _____ _____    ______ ____
ROOT
ATOM      1  C   LIG A   1      -6.658   2.290 124.397  0.00  0.00    +0.168 A 
ATOM      2  C   LIG A   1      -5.625   2.408 125.353  0.00  0.00    +0.044 A 
ATOM      3  C   LIG A   1      -5.403   1.320 126.206  0.00  0.00    +0.137 A 
ATOM      4  C   LIG A   1      -7.499   1.159 124.333  0.00  0.00    +0.186 A 
ATOM      5  C   LIG A   1      -7.306   0.121 125.261  0.00  0.00    +0.100 A 
ATOM      6  C   LIG A   1      -6.240   0.197 126.163  0.00  0.00    +0.091 A 
ATOM      7  C   LIG A   1      -6.022  -0.944 127.080  0.00  0.00    +0.201 A 
ATOM      8  C   LIG A   1      -7.125  -1.926 127.311  0.00  0.00    +0.053 A 
ATOM      9  C   LIG A   1      -7.169  -2.795 128.421  0.00  0.00    -0.031 A 
ATOM     10  C   LIG A   1      -8.217  -3.742 128.473  0.00  0.00    +0.008 A 
ATOM     11  C   LIG A   1      -9.204  -3.798 127.489  0.00  0.00    +0.048 A 
ATOM     12  C   LIG A   1      -9.165  -2.896 126.432  0.00  0.00    +0.141 A 
ATOM     13  C   LIG A   1      -8.147  -1.940 126.339  0.00  0.00    +0.093 A 
ATOM     14  N   LIG A   1      -8.117  -1.034 125.260  0.00  0.00    -0.348 N 
ATOM     15  O   LIG A   1      -4.920  -1.045 127.594  0.00  0.00    -0.286 OA
ATOM     16  H   LIG A   1      -8.980  -0.968 124.725  0.00  0.00    +0.166 HD
ENDROOT
BRANCH   1  17
ATOM     17  O   LIG A   1      -6.829   3.315 123.505  0.00  0.00    -0.503 OA
ATOM     18  H   LIG A   1      -7.166   4.071 124.021  0.00  0.00    +0.292 HD
ENDBRANCH   1  17
BRANCH   3  19
ATOM     19  O   LIG A   1      -4.351   1.387 127.086  0.00  0.00    -0.506 OA
ATOM     20  H   LIG A   1      -3.643   0.789 126.749  0.00  0.00    +0.292 HD
ENDBRANCH   3  19
BRANCH  12  21
ATOM     21  O   LIG A   1     -10.138  -2.912 125.467  0.00  0.00    -0.505 OA
ATOM     22  H   LIG A   1     -11.004  -2.988 125.901  0.00  0.00    +0.292 HD
ENDBRANCH  12  21
BRANCH   4  23
ATOM     23  O   LIG A   1      -8.527   0.936 123.447  0.00  0.00    -0.489 OA
ATOM     24  C   LIG A   1      -9.769   1.587 123.672  0.00  0.00    +0.277 C 
ENDBRANCH   4  23
BRANCH   2  25
ATOM     25  C   LIG A   1      -4.852   3.702 125.549  0.00  0.00    +0.069 C 
BRANCH  25  26
ATOM     26  C   LIG A   1      -5.069   4.381 126.877  0.00  0.00    -0.023 C 
ATOM     27  C   LIG A   1      -4.131   4.743 127.778  0.00  0.00    -0.079 C 
ATOM     28  C   LIG A   1      -2.651   4.477 127.662  0.00  0.00    +0.038 C 
ATOM     29  C   LIG A   1      -4.513   5.494 129.025  0.00  0.00    +0.038 C 
ENDBRANCH  25  26
ENDBRANCH   2  25
BRANCH   9  30
ATOM     30  C   LIG A   1      -6.172  -2.767 129.565  0.00  0.00    +0.063 C 
BRANCH  30  31
ATOM     31  C   LIG A   1      -6.831  -2.682 130.920  0.00  0.00    -0.024 C 
ATOM     32  C   LIG A   1      -6.626  -3.482 131.987  0.00  0.00    -0.079 C 
ATOM     33  C   LIG A   1      -5.637  -4.615 132.042  0.00  0.00    +0.038 C 
ATOM     34  C   LIG A   1      -7.419  -3.287 133.253  0.00  0.00    +0.038 C 
ENDBRANCH  30  31
ENDBRANCH   9  30
TORSDOF 8
ENDMDL
