MODEL 1
REMARK VINA RESULT:      -8.5      0.000      0.000
REMARK  Name = NuBBE_38
REMARK  16 active torsions:
REMARK  status: ('A' for Active; 'I' for Inactive)
REMARK    1  A    between atoms: C_1  and  O_2
REMARK    2  A    between atoms: O_2  and  C_3
REMARK    3  A    between atoms: C_5  and  O_6
REMARK    4  A    between atoms: C_10  and  C_45
REMARK    5  A    between atoms: C_13  and  C_14
REMARK    6  A    between atoms: C_17  and  C_25
REMARK    7  A    between atoms: C_19  and  O_24
REMARK    8  A    between atoms: C_21  and  O_23
REMARK    9  A    between atoms: C_25  and  O_26
REMARK   10  A    between atoms: C_27  and  O_29
REMARK   11  A    between atoms: O_29  and  C_30
REMARK   12  A    between atoms: C_33  and  C_41
REMARK   13  A    between atoms: C_35  and  O_40
REMARK   14  A    between atoms: C_37  and  O_39
REMARK   15  A    between atoms: C_42  and  O_44
REMARK   16  A    between atoms: C_48  and  O_51
REMARK                            x       y       z     vdW  Elec       q    Type
REMARK                         _______ _______ _______ _____ _____    ______ ____
ROOT
ATOM      1  C   LIG A   1      -6.139   0.063 127.739  0.00  0.00    +0.187 C 
ATOM      2  O   LIG A   1      -5.165  -0.704 128.492  0.00  0.00    -0.361 OA
ATOM      3  C   LIG A   1      -4.911  -0.210 129.817  0.00  0.00    +0.175 C 
ATOM      4  C   LIG A   1      -6.210  -0.278 130.639  0.00  0.00    +0.176 C 
ATOM      5  C   LIG A   1      -7.287   0.613 129.985  0.00  0.00    +0.177 C 
ATOM      6  C   LIG A   1      -6.855   1.159 128.604  0.00  0.00    +0.186 C 
ENDROOT
BRANCH   1  16
ATOM      7  C   LIG A   1      -7.594  -2.051 127.266  0.00  0.00    +0.133 A 
ATOM      8  C   LIG A   1      -8.498  -2.758 126.455  0.00  0.00    +0.092 A 
ATOM      9  C   LIG A   1      -8.987  -2.212 125.272  0.00  0.00    +0.135 A 
ATOM     10  C   LIG A   1      -8.541  -0.966 124.859  0.00  0.00    +0.106 A 
ATOM     11  C   LIG A   1      -9.095  -0.361 123.626  0.00  0.00    +0.197 A 
ATOM     12  C   LIG A   1      -8.326   0.755 123.077  0.00  0.00    +0.098 A 
ATOM     13  C   LIG A   1      -7.359   1.320 123.797  0.00  0.00    +0.139 A 
ATOM     14  O   LIG A   1      -6.994   0.895 125.088  0.00  0.00    -0.454 OA
ATOM     15  C   LIG A   1      -7.559  -0.275 125.599  0.00  0.00    +0.152 A 
ATOM     16  C   LIG A   1      -7.101  -0.782 126.864  0.00  0.00    +0.068 A 
ATOM     17  O   LIG A   1     -10.107  -0.703 123.072  0.00  0.00    -0.287 OA
BRANCH  13  18
ATOM     18  C   LIG A   1      -6.594   2.456 123.205  0.00  0.00    +0.018 A 
ATOM     19  C   LIG A   1      -6.005   3.436 124.014  0.00  0.00    +0.015 A 
ATOM     20  C   LIG A   1      -5.254   4.485 123.458  0.00  0.00    +0.046 A 
ATOM     21  C   LIG A   1      -5.067   4.550 122.082  0.00  0.00    +0.117 A 
ATOM     22  C   LIG A   1      -5.645   3.606 121.251  0.00  0.00    +0.046 A 
ATOM     23  C   LIG A   1      -6.411   2.574 121.808  0.00  0.00    +0.015 A 
BRANCH  21  24
ATOM     24  O   LIG A   1      -4.317   5.531 121.503  0.00  0.00    -0.507 OA
ATOM     25  H   LIG A   1      -3.854   6.021 122.202  0.00  0.00    +0.292 HD
ENDBRANCH  21  24
ENDBRANCH  13  18
BRANCH   7  27
ATOM     26  C   LIG A   1      -8.067  -3.394 129.174  0.00  0.00    +0.277 C 
ATOM     27  O   LIG A   1      -7.131  -2.604 128.436  0.00  0.00    -0.494 OA
ENDBRANCH   7  27
BRANCH   9  28
ATOM     28  O   LIG A   1      -9.855  -2.945 124.519  0.00  0.00    -0.506 OA
ATOM     29  H   LIG A   1     -10.772  -2.806 124.801  0.00  0.00    +0.292 HD
ENDBRANCH   9  28
ENDBRANCH   1  16
BRANCH   5  30
ATOM     30  O   LIG A   1      -8.530  -0.094 129.870  0.00  0.00    -0.387 OA
ATOM     31  H   LIG A   1      -8.633  -0.326 128.927  0.00  0.00    +0.210 HD
ENDBRANCH   5  30
BRANCH   4  32
ATOM     32  O   LIG A   1      -6.057   0.135 132.004  0.00  0.00    -0.387 OA
ATOM     33  H   LIG A   1      -6.516  -0.529 132.563  0.00  0.00    +0.210 HD
ENDBRANCH   4  32
BRANCH   3  34
ATOM     34  C   LIG A   1      -3.748  -0.971 130.460  0.00  0.00    +0.190 C 
BRANCH  34  35
ATOM     35  O   LIG A   1      -3.224  -1.953 129.560  0.00  0.00    -0.392 OA
ATOM     36  H   LIG A   1      -3.802  -1.957 128.772  0.00  0.00    +0.209 HD
ENDBRANCH  34  35
ENDBRANCH   3  34
BRANCH   6  37
ATOM     37  O   LIG A   1      -5.991   2.302 128.901  0.00  0.00    -0.340 OA
BRANCH  37  38
ATOM     38  C   LIG A   1      -5.521   3.074 127.792  0.00  0.00    +0.282 C 
ATOM     39  O   LIG A   1      -4.168   2.722 127.491  0.00  0.00    -0.343 OA
ATOM     40  C   LIG A   1      -3.105   3.361 128.204  0.00  0.00    +0.149 C 
ATOM     41  C   LIG A   1      -3.411   4.627 129.048  0.00  0.00    +0.174 C 
ATOM     42  C   LIG A   1      -4.889   4.891 129.293  0.00  0.00    +0.179 C 
ATOM     43  C   LIG A   1      -2.047   3.722 127.150  0.00  0.00    +0.040 C 
ATOM     44  C   LIG A   1      -5.665   4.571 128.038  0.00  0.00    +0.201 C 
BRANCH  42  45
ATOM     45  O   LIG A   1      -5.107   6.271 129.624  0.00  0.00    -0.386 OA
ATOM     46  H   LIG A   1      -4.324   6.546 130.136  0.00  0.00    +0.210 HD
ENDBRANCH  42  45
BRANCH  41  47
ATOM     47  O   LIG A   1      -2.754   4.548 130.327  0.00  0.00    -0.387 OA
ATOM     48  H   LIG A   1      -2.640   5.460 130.655  0.00  0.00    +0.210 HD
ENDBRANCH  41  47
BRANCH  44  49
ATOM     49  O   LIG A   1      -5.153   5.329 126.944  0.00  0.00    -0.384 OA
ATOM     50  H   LIG A   1      -5.893   5.892 126.644  0.00  0.00    +0.210 HD
ENDBRANCH  44  49
ENDBRANCH  37  38
ENDBRANCH   6  37
TORSDOF 14
ENDMDL
MODEL 2
REMARK VINA RESULT:      -8.4      3.117      4.397
REMARK  Name = NuBBE_38
REMARK  16 active torsions:
REMARK  status: ('A' for Active; 'I' for Inactive)
REMARK    1  A    between atoms: C_1  and  O_2
REMARK    2  A    between atoms: O_2  and  C_3
REMARK    3  A    between atoms: C_5  and  O_6
REMARK    4  A    between atoms: C_10  and  C_45
REMARK    5  A    between atoms: C_13  and  C_14
REMARK    6  A    between atoms: C_17  and  C_25
REMARK    7  A    between atoms: C_19  and  O_24
REMARK    8  A    between atoms: C_21  and  O_23
REMARK    9  A    between atoms: C_25  and  O_26
REMARK   10  A    between atoms: C_27  and  O_29
REMARK   11  A    between atoms: O_29  and  C_30
REMARK   12  A    between atoms: C_33  and  C_41
REMARK   13  A    between atoms: C_35  and  O_40
REMARK   14  A    between atoms: C_37  and  O_39
REMARK   15  A    between atoms: C_42  and  O_44
REMARK   16  A    between atoms: C_48  and  O_51
REMARK                            x       y       z     vdW  Elec       q    Type
REMARK                         _______ _______ _______ _____ _____    ______ ____
ROOT
ATOM      1  C   LIG A   1      -7.591   1.384 129.926  0.00  0.00    +0.187 C 
ATOM      2  O   LIG A   1      -6.588   1.571 130.957  0.00  0.00    -0.361 OA
ATOM      3  C   LIG A   1      -6.969   2.482 132.001  0.00  0.00    +0.175 C 
ATOM      4  C   LIG A   1      -8.206   1.927 132.729  0.00  0.00    +0.176 C 
ATOM      5  C   LIG A   1      -9.382   1.805 131.737  0.00  0.00    +0.177 C 
ATOM      6  C   LIG A   1      -8.960   2.067 130.272  0.00  0.00    +0.186 C 
ENDROOT
BRANCH   1  16
ATOM      7  C   LIG A   1      -7.863  -1.190 130.260  0.00  0.00    +0.133 A 
ATOM      8  C   LIG A   1      -8.023  -2.482 129.732  0.00  0.00    +0.092 A 
ATOM      9  C   LIG A   1      -8.116  -2.697 128.361  0.00  0.00    +0.135 A 
ATOM     10  C   LIG A   1      -8.004  -1.622 127.493  0.00  0.00    +0.106 A 
ATOM     11  C   LIG A   1      -8.151  -1.839 126.035  0.00  0.00    +0.197 A 
ATOM     12  C   LIG A   1      -7.665  -0.750 125.189  0.00  0.00    +0.098 A 
ATOM     13  C   LIG A   1      -7.364   0.431 125.725  0.00  0.00    +0.139 A 
ATOM     14  O   LIG A   1      -7.463   0.715 127.099  0.00  0.00    -0.454 OA
ATOM     15  C   LIG A   1      -7.743  -0.327 127.986  0.00  0.00    +0.152 A 
ATOM     16  C   LIG A   1      -7.724  -0.069 129.400  0.00  0.00    +0.068 A 
ATOM     17  O   LIG A   1      -8.638  -2.810 125.518  0.00  0.00    -0.287 OA
BRANCH  13  18
ATOM     18  C   LIG A   1      -6.870   1.519 124.831  0.00  0.00    +0.018 A 
ATOM     19  C   LIG A   1      -7.207   1.552 123.471  0.00  0.00    +0.015 A 
ATOM     20  C   LIG A   1      -6.773   2.597 122.639  0.00  0.00    +0.046 A 
ATOM     21  C   LIG A   1      -6.013   3.634 123.166  0.00  0.00    +0.117 A 
ATOM     22  C   LIG A   1      -5.651   3.627 124.503  0.00  0.00    +0.046 A 
ATOM     23  C   LIG A   1      -6.068   2.573 125.324  0.00  0.00    +0.015 A 
BRANCH  21  24
ATOM     24  O   LIG A   1      -5.599   4.685 122.403  0.00  0.00    -0.507 OA
ATOM     25  H   LIG A   1      -6.362   5.030 121.911  0.00  0.00    +0.292 HD
ENDBRANCH  21  24
ENDBRANCH  13  18
BRANCH   7  27
ATOM     26  C   LIG A   1      -6.755  -1.724 132.300  0.00  0.00    +0.277 C 
ATOM     27  O   LIG A   1      -7.783  -0.999 131.620  0.00  0.00    -0.494 OA
ENDBRANCH   7  27
BRANCH   9  28
ATOM     28  O   LIG A   1      -8.263  -3.972 127.903  0.00  0.00    -0.506 OA
ATOM     29  H   LIG A   1      -9.050  -4.059 127.344  0.00  0.00    +0.292 HD
ENDBRANCH   9  28
ENDBRANCH   1  16
BRANCH   5  30
ATOM     30  O   LIG A   1     -10.007   0.518 131.847  0.00  0.00    -0.387 OA
ATOM     31  H   LIG A   1     -10.604   0.431 131.080  0.00  0.00    +0.210 HD
ENDBRANCH   5  30
BRANCH   4  32
ATOM     32  O   LIG A   1      -8.638   2.730 133.837  0.00  0.00    -0.387 OA
ATOM     33  H   LIG A   1      -8.018   3.489 133.906  0.00  0.00    +0.210 HD
ENDBRANCH   4  32
BRANCH   3  34
ATOM     34  C   LIG A   1      -5.787   2.750 132.936  0.00  0.00    +0.190 C 
BRANCH  34  35
ATOM     35  O   LIG A   1      -5.936   4.011 133.596  0.00  0.00    -0.392 OA
ATOM     36  H   LIG A   1      -6.589   4.528 133.084  0.00  0.00    +0.209 HD
ENDBRANCH  34  35
ENDBRANCH   3  34
BRANCH   6  37
ATOM     37  O   LIG A   1      -8.916   3.525 130.146  0.00  0.00    -0.340 OA
BRANCH  37  38
ATOM     38  C   LIG A   1     -10.140   4.237 130.347  0.00  0.00    +0.282 C 
ATOM     39  O   LIG A   1     -10.352   5.157 129.273  0.00  0.00    -0.343 OA
ATOM     40  C   LIG A   1      -9.752   6.454 129.335  0.00  0.00    +0.149 C 
ATOM     41  C   LIG A   1      -9.157   6.951 130.678  0.00  0.00    +0.174 C 
ATOM     42  C   LIG A   1      -8.985   5.875 131.740  0.00  0.00    +0.179 C 
ATOM     43  C   LIG A   1     -10.838   7.443 128.886  0.00  0.00    +0.040 C 
ATOM     44  C   LIG A   1     -10.172   4.943 131.697  0.00  0.00    +0.201 C 
BRANCH  42  45
ATOM     45  O   LIG A   1      -8.914   6.463 133.048  0.00  0.00    -0.386 OA
ATOM     46  H   LIG A   1      -9.646   6.063 133.555  0.00  0.00    +0.210 HD
ENDBRANCH  42  45
BRANCH  41  47
ATOM     47  O   LIG A   1      -7.875   7.571 130.462  0.00  0.00    -0.387 OA
ATOM     48  H   LIG A   1      -7.967   8.178 129.703  0.00  0.00    +0.210 HD
ENDBRANCH  41  47
BRANCH  44  49
ATOM     49  O   LIG A   1     -11.378   5.684 131.868  0.00  0.00    -0.384 OA
ATOM     50  H   LIG A   1     -11.834   5.651 131.004  0.00  0.00    +0.210 HD
ENDBRANCH  44  49
ENDBRANCH  37  38
ENDBRANCH   6  37
TORSDOF 14
ENDMDL
MODEL 3
REMARK VINA RESULT:      -8.2      3.936      7.167
REMARK  Name = NuBBE_38
REMARK  16 active torsions:
REMARK  status: ('A' for Active; 'I' for Inactive)
REMARK    1  A    between atoms: C_1  and  O_2
REMARK    2  A    between atoms: O_2  and  C_3
REMARK    3  A    between atoms: C_5  and  O_6
REMARK    4  A    between atoms: C_10  and  C_45
REMARK    5  A    between atoms: C_13  and  C_14
REMARK    6  A    between atoms: C_17  and  C_25
REMARK    7  A    between atoms: C_19  and  O_24
REMARK    8  A    between atoms: C_21  and  O_23
REMARK    9  A    between atoms: C_25  and  O_26
REMARK   10  A    between atoms: C_27  and  O_29
REMARK   11  A    between atoms: O_29  and  C_30
REMARK   12  A    between atoms: C_33  and  C_41
REMARK   13  A    between atoms: C_35  and  O_40
REMARK   14  A    between atoms: C_37  and  O_39
REMARK   15  A    between atoms: C_42  and  O_44
REMARK   16  A    between atoms: C_48  and  O_51
REMARK                            x       y       z     vdW  Elec       q    Type
REMARK                         _______ _______ _______ _____ _____    ______ ____
ROOT
ATOM      1  C   LIG A   1      -7.741   1.985 129.579  0.00  0.00    +0.187 C 
ATOM      2  O   LIG A   1      -8.008   0.570 129.411  0.00  0.00    -0.361 OA
ATOM      3  C   LIG A   1      -7.173  -0.084 128.441  0.00  0.00    +0.175 C 
ATOM      4  C   LIG A   1      -5.706   0.004 128.896  0.00  0.00    +0.176 C 
ATOM      5  C   LIG A   1      -5.279   1.485 128.988  0.00  0.00    +0.177 C 
ATOM      6  C   LIG A   1      -6.463   2.462 128.805  0.00  0.00    +0.186 C 
ENDROOT
BRANCH   1  16
ATOM      7  C   LIG A   1      -7.281   1.782 132.139  0.00  0.00    +0.133 A 
ATOM      8  C   LIG A   1      -7.345   2.311 133.440  0.00  0.00    +0.092 A 
ATOM      9  C   LIG A   1      -7.882   3.571 133.682  0.00  0.00    +0.135 A 
ATOM     10  C   LIG A   1      -8.405   4.305 132.629  0.00  0.00    +0.106 A 
ATOM     11  C   LIG A   1      -8.933   5.666 132.875  0.00  0.00    +0.197 A 
ATOM     12  C   LIG A   1      -9.779   6.210 131.814  0.00  0.00    +0.098 A 
ATOM     13  C   LIG A   1      -9.834   5.609 130.627  0.00  0.00    +0.139 A 
ATOM     14  O   LIG A   1      -9.127   4.434 130.311  0.00  0.00    -0.454 OA
ATOM     15  C   LIG A   1      -8.447   3.761 131.328  0.00  0.00    +0.152 A 
ATOM     16  C   LIG A   1      -7.825   2.497 131.040  0.00  0.00    +0.068 A 
ATOM     17  O   LIG A   1      -8.711   6.338 133.848  0.00  0.00    -0.287 OA
BRANCH  13  18
ATOM     18  C   LIG A   1     -10.709   6.191 129.567  0.00  0.00    +0.018 A 
ATOM     19  C   LIG A   1     -10.164   6.813 128.436  0.00  0.00    +0.015 A 
ATOM     20  C   LIG A   1     -10.988   7.328 127.420  0.00  0.00    +0.046 A 
ATOM     21  C   LIG A   1     -12.369   7.206 127.519  0.00  0.00    +0.117 A 
ATOM     22  C   LIG A   1     -12.941   6.609 128.629  0.00  0.00    +0.046 A 
ATOM     23  C   LIG A   1     -12.117   6.116 129.648  0.00  0.00    +0.015 A 
BRANCH  21  24
ATOM     24  O   LIG A   1     -13.203   7.660 126.542  0.00  0.00    -0.507 OA
ATOM     25  H   LIG A   1     -12.900   8.538 126.258  0.00  0.00    +0.292 HD
ENDBRANCH  21  24
ENDBRANCH  13  18
BRANCH   7  27
ATOM     26  C   LIG A   1      -7.315  -0.542 132.657  0.00  0.00    +0.277 C 
ATOM     27  O   LIG A   1      -6.737   0.539 131.920  0.00  0.00    -0.494 OA
ENDBRANCH   7  27
BRANCH   9  28
ATOM     28  O   LIG A   1      -7.928   4.031 134.964  0.00  0.00    -0.506 OA
ATOM     29  H   LIG A   1      -7.041   4.236 135.299  0.00  0.00    +0.292 HD
ENDBRANCH   9  28
ENDBRANCH   1  16
BRANCH   5  30
ATOM     30  O   LIG A   1      -4.612   1.744 130.231  0.00  0.00    -0.387 OA
ATOM     31  H   LIG A   1      -5.291   2.077 130.848  0.00  0.00    +0.210 HD
ENDBRANCH   5  30
BRANCH   4  32
ATOM     32  O   LIG A   1      -4.786  -0.674 128.029  0.00  0.00    -0.387 OA
ATOM     33  H   LIG A   1      -3.957  -0.147 128.016  0.00  0.00    +0.210 HD
ENDBRANCH   4  32
BRANCH   3  34
ATOM     34  C   LIG A   1      -7.647  -1.521 128.207  0.00  0.00    +0.190 C 
BRANCH  34  35
ATOM     35  O   LIG A   1      -6.874  -2.445 128.980  0.00  0.00    -0.392 OA
ATOM     36  H   LIG A   1      -5.956  -2.397 128.651  0.00  0.00    +0.209 HD
ENDBRANCH  34  35
ENDBRANCH   3  34
BRANCH   6  37
ATOM     37  O   LIG A   1      -6.670   2.541 127.358  0.00  0.00    -0.340 OA
BRANCH  37  38
ATOM     38  C   LIG A   1      -7.869   3.172 126.901  0.00  0.00    +0.282 C 
ATOM     39  O   LIG A   1      -8.695   2.220 126.225  0.00  0.00    -0.343 OA
ATOM     40  C   LIG A   1      -8.471   1.962 124.837  0.00  0.00    +0.149 C 
ATOM     41  C   LIG A   1      -7.567   2.925 124.022  0.00  0.00    +0.174 C 
ATOM     42  C   LIG A   1      -6.742   3.891 124.859  0.00  0.00    +0.179 C 
ATOM     43  C   LIG A   1      -9.861   1.927 124.183  0.00  0.00    +0.040 C 
ATOM     44  C   LIG A   1      -7.577   4.379 126.019  0.00  0.00    +0.201 C 
BRANCH  42  45
ATOM     45  O   LIG A   1      -6.343   5.026 124.076  0.00  0.00    -0.386 OA
ATOM     46  H   LIG A   1      -6.793   5.793 124.477  0.00  0.00    +0.210 HD
ENDBRANCH  42  45
BRANCH  41  47
ATOM     47  O   LIG A   1      -6.665   2.180 123.184  0.00  0.00    -0.387 OA
ATOM     48  H   LIG A   1      -7.175   1.458 122.772  0.00  0.00    +0.210 HD
ENDBRANCH  41  47
BRANCH  44  49
ATOM     49  O   LIG A   1      -8.779   4.974 125.535  0.00  0.00    -0.384 OA
ATOM     50  H   LIG A   1      -9.221   4.282 125.004  0.00  0.00    +0.210 HD
ENDBRANCH  44  49
ENDBRANCH  37  38
ENDBRANCH   6  37
TORSDOF 14
ENDMDL
MODEL 4
REMARK VINA RESULT:      -8.1      2.616      3.772
REMARK  Name = NuBBE_38
REMARK  16 active torsions:
REMARK  status: ('A' for Active; 'I' for Inactive)
REMARK    1  A    between atoms: C_1  and  O_2
REMARK    2  A    between atoms: O_2  and  C_3
REMARK    3  A    between atoms: C_5  and  O_6
REMARK    4  A    between atoms: C_10  and  C_45
REMARK    5  A    between atoms: C_13  and  C_14
REMARK    6  A    between atoms: C_17  and  C_25
REMARK    7  A    between atoms: C_19  and  O_24
REMARK    8  A    between atoms: C_21  and  O_23
REMARK    9  A    between atoms: C_25  and  O_26
REMARK   10  A    between atoms: C_27  and  O_29
REMARK   11  A    between atoms: O_29  and  C_30
REMARK   12  A    between atoms: C_33  and  C_41
REMARK   13  A    between atoms: C_35  and  O_40
REMARK   14  A    between atoms: C_37  and  O_39
REMARK   15  A    between atoms: C_42  and  O_44
REMARK   16  A    between atoms: C_48  and  O_51
REMARK                            x       y       z     vdW  Elec       q    Type
REMARK                         _______ _______ _______ _____ _____    ______ ____
ROOT
ATOM      1  C   LIG A   1      -6.434   0.189 130.241  0.00  0.00    +0.187 C 
ATOM      2  O   LIG A   1      -5.261  -0.144 131.028  0.00  0.00    -0.361 OA
ATOM      3  C   LIG A   1      -5.185   0.524 132.298  0.00  0.00    +0.175 C 
ATOM      4  C   LIG A   1      -6.389   0.107 133.161  0.00  0.00    +0.176 C 
ATOM      5  C   LIG A   1      -7.699   0.532 132.465  0.00  0.00    +0.177 C 
ATOM      6  C   LIG A   1      -7.471   1.062 131.031  0.00  0.00    +0.186 C 
ENDROOT
BRANCH   1  16
ATOM      7  C   LIG A   1      -7.257  -2.280 130.053  0.00  0.00    +0.133 A 
ATOM      8  C   LIG A   1      -7.871  -3.313 129.325  0.00  0.00    +0.092 A 
ATOM      9  C   LIG A   1      -8.365  -3.098 128.043  0.00  0.00    +0.135 A 
ATOM     10  C   LIG A   1      -8.210  -1.854 127.450  0.00  0.00    +0.106 A 
ATOM     11  C   LIG A   1      -8.777  -1.608 126.105  0.00  0.00    +0.197 A 
ATOM     12  C   LIG A   1      -8.264  -0.423 125.417  0.00  0.00    +0.098 A 
ATOM     13  C   LIG A   1      -7.544   0.478 126.083  0.00  0.00    +0.139 A 
ATOM     14  O   LIG A   1      -7.211   0.361 127.445  0.00  0.00    -0.454 OA
ATOM     15  C   LIG A   1      -7.510  -0.827 128.115  0.00  0.00    +0.152 A 
ATOM     16  C   LIG A   1      -7.063  -1.000 129.470  0.00  0.00    +0.068 A 
ATOM     17  O   LIG A   1      -9.611  -2.284 125.562  0.00  0.00    -0.287 OA
BRANCH  13  18
ATOM     18  C   LIG A   1      -7.037   1.674 125.350  0.00  0.00    +0.018 A 
ATOM     19  C   LIG A   1      -5.960   2.424 125.841  0.00  0.00    +0.015 A 
ATOM     20  C   LIG A   1      -5.459   3.529 125.131  0.00  0.00    +0.046 A 
ATOM     21  C   LIG A   1      -6.020   3.880 123.909  0.00  0.00    +0.117 A 
ATOM     22  C   LIG A   1      -7.093   3.169 123.401  0.00  0.00    +0.046 A 
ATOM     23  C   LIG A   1      -7.603   2.082 124.121  0.00  0.00    +0.015 A 
BRANCH  21  24
ATOM     24  O   LIG A   1      -5.543   4.922 123.171  0.00  0.00    -0.507 OA
ATOM     25  H   LIG A   1      -5.871   4.835 122.261  0.00  0.00    +0.292 HD
ENDBRANCH  21  24
ENDBRANCH  13  18
BRANCH   7  27
ATOM     26  C   LIG A   1      -5.917  -3.636 131.480  0.00  0.00    +0.277 C 
ATOM     27  O   LIG A   1      -6.785  -2.511 131.324  0.00  0.00    -0.494 OA
ENDBRANCH   7  27
BRANCH   9  28
ATOM     28  O   LIG A   1      -8.944  -4.138 127.378  0.00  0.00    -0.506 OA
ATOM     29  H   LIG A   1      -8.554  -4.258 126.499  0.00  0.00    +0.292 HD
ENDBRANCH   9  28
ENDBRANCH   1  16
BRANCH   5  30
ATOM     30  O   LIG A   1      -8.639  -0.552 132.448  0.00  0.00    -0.387 OA
ATOM     31  H   LIG A   1      -9.527  -0.153 132.520  0.00  0.00    +0.210 HD
ENDBRANCH   5  30
BRANCH   4  32
ATOM     32  O   LIG A   1      -6.380   0.669 134.481  0.00  0.00    -0.387 OA
ATOM     33  H   LIG A   1      -7.316   0.817 134.740  0.00  0.00    +0.210 HD
ENDBRANCH   4  32
BRANCH   3  34
ATOM     34  C   LIG A   1      -3.836   0.248 132.968  0.00  0.00    +0.190 C 
BRANCH  34  35
ATOM     35  O   LIG A   1      -3.536   1.256 133.940  0.00  0.00    -0.392 OA
ATOM     36  H   LIG A   1      -2.881   1.858 133.535  0.00  0.00    +0.209 HD
ENDBRANCH  34  35
ENDBRANCH   3  34
BRANCH   6  37
ATOM     37  O   LIG A   1      -7.033   2.448 131.204  0.00  0.00    -0.340 OA
BRANCH  37  38
ATOM     38  C   LIG A   1      -7.466   3.398 130.226  0.00  0.00    +0.282 C 
ATOM     39  O   LIG A   1      -7.163   4.725 130.667  0.00  0.00    -0.343 OA
ATOM     40  C   LIG A   1      -8.083   5.403 131.526  0.00  0.00    +0.149 C 
ATOM     41  C   LIG A   1      -9.514   4.830 131.709  0.00  0.00    +0.174 C 
ATOM     42  C   LIG A   1      -9.706   3.411 131.194  0.00  0.00    +0.179 C 
ATOM     43  C   LIG A   1      -8.197   6.833 130.979  0.00  0.00    +0.040 C 
ATOM     44  C   LIG A   1      -8.946   3.246 129.900  0.00  0.00    +0.201 C 
BRANCH  42  45
ATOM     45  O   LIG A   1     -11.095   3.148 130.944  0.00  0.00    -0.386 OA
ATOM     46  H   LIG A   1     -11.584   3.846 131.419  0.00  0.00    +0.210 HD
ENDBRANCH  42  45
BRANCH  41  47
ATOM     47  O   LIG A   1      -9.892   4.855 133.097  0.00  0.00    -0.387 OA
ATOM     48  H   LIG A   1      -9.764   3.956 133.454  0.00  0.00    +0.210 HD
ENDBRANCH  41  47
BRANCH  44  49
ATOM     49  O   LIG A   1      -9.375   4.226 128.957  0.00  0.00    -0.384 OA
ATOM     50  H   LIG A   1      -9.532   5.040 129.475  0.00  0.00    +0.210 HD
ENDBRANCH  44  49
ENDBRANCH  37  38
ENDBRANCH   6  37
TORSDOF 14
ENDMDL
MODEL 5
REMARK VINA RESULT:      -8.0      2.864      6.573
REMARK  Name = NuBBE_38
REMARK  16 active torsions:
REMARK  status: ('A' for Active; 'I' for Inactive)
REMARK    1  A    between atoms: C_1  and  O_2
REMARK    2  A    between atoms: O_2  and  C_3
REMARK    3  A    between atoms: C_5  and  O_6
REMARK    4  A    between atoms: C_10  and  C_45
REMARK    5  A    between atoms: C_13  and  C_14
REMARK    6  A    between atoms: C_17  and  C_25
REMARK    7  A    between atoms: C_19  and  O_24
REMARK    8  A    between atoms: C_21  and  O_23
REMARK    9  A    between atoms: C_25  and  O_26
REMARK   10  A    between atoms: C_27  and  O_29
REMARK   11  A    between atoms: O_29  and  C_30
REMARK   12  A    between atoms: C_33  and  C_41
REMARK   13  A    between atoms: C_35  and  O_40
REMARK   14  A    between atoms: C_37  and  O_39
REMARK   15  A    between atoms: C_42  and  O_44
REMARK   16  A    between atoms: C_48  and  O_51
REMARK                            x       y       z     vdW  Elec       q    Type
REMARK                         _______ _______ _______ _____ _____    ______ ____
ROOT
ATOM      1  C   LIG A   1      -7.775   0.156 127.624  0.00  0.00    +0.187 C 
ATOM      2  O   LIG A   1      -8.353  -0.852 126.756  0.00  0.00    -0.361 OA
ATOM      3  C   LIG A   1      -7.645  -1.054 125.521  0.00  0.00    +0.175 C 
ATOM      4  C   LIG A   1      -6.222  -1.549 125.831  0.00  0.00    +0.176 C 
ATOM      5  C   LIG A   1      -5.469  -0.484 126.655  0.00  0.00    +0.177 C 
ATOM      6  C   LIG A   1      -6.384   0.675 127.116  0.00  0.00    +0.186 C 
ENDROOT
BRANCH   1  16
ATOM      7  C   LIG A   1      -7.495  -1.475 129.642  0.00  0.00    +0.133 A 
ATOM      8  C   LIG A   1      -7.499  -1.722 131.025  0.00  0.00    +0.092 A 
ATOM      9  C   LIG A   1      -7.746  -0.704 131.940  0.00  0.00    +0.135 A 
ATOM     10  C   LIG A   1      -8.037   0.571 131.481  0.00  0.00    +0.106 A 
ATOM     11  C   LIG A   1      -8.252   1.668 132.453  0.00  0.00    +0.197 A 
ATOM     12  C   LIG A   1      -8.900   2.863 131.913  0.00  0.00    +0.098 A 
ATOM     13  C   LIG A   1      -9.034   3.016 130.597  0.00  0.00    +0.139 A 
ATOM     14  O   LIG A   1      -8.599   2.069 129.651  0.00  0.00    -0.454 OA
ATOM     15  C   LIG A   1      -8.139   0.829 130.099  0.00  0.00    +0.152 A 
ATOM     16  C   LIG A   1      -7.809  -0.186 129.136  0.00  0.00    +0.068 A 
ATOM     17  O   LIG A   1      -7.930   1.650 133.612  0.00  0.00    -0.287 OA
BRANCH  13  18
ATOM     18  C   LIG A   1      -9.701   4.247 130.082  0.00  0.00    +0.018 A 
ATOM     19  C   LIG A   1     -11.032   4.542 130.406  0.00  0.00    +0.015 A 
ATOM     20  C   LIG A   1     -11.648   5.721 129.951  0.00  0.00    +0.046 A 
ATOM     21  C   LIG A   1     -10.927   6.628 129.183  0.00  0.00    +0.117 A 
ATOM     22  C   LIG A   1      -9.614   6.362 128.834  0.00  0.00    +0.046 A 
ATOM     23  C   LIG A   1      -9.011   5.177 129.271  0.00  0.00    +0.015 A 
BRANCH  21  24
ATOM     24  O   LIG A   1     -11.474   7.798 128.749  0.00  0.00    -0.507 OA
ATOM     25  H   LIG A   1     -12.004   8.179 129.469  0.00  0.00    +0.292 HD
ENDBRANCH  21  24
ENDBRANCH  13  18
BRANCH   7  27
ATOM     26  C   LIG A   1      -8.200  -3.551 128.713  0.00  0.00    +0.277 C 
ATOM     27  O   LIG A   1      -7.239  -2.494 128.754  0.00  0.00    -0.494 OA
ENDBRANCH   7  27
BRANCH   9  28
ATOM     28  O   LIG A   1      -7.747  -1.001 133.270  0.00  0.00    -0.506 OA
ATOM     29  H   LIG A   1      -7.865  -0.205 133.811  0.00  0.00    +0.292 HD
ENDBRANCH   9  28
ENDBRANCH   1  16
BRANCH   5  30
ATOM     30  O   LIG A   1      -4.821  -1.081 127.787  0.00  0.00    -0.387 OA
ATOM     31  H   LIG A   1      -5.459  -1.711 128.173  0.00  0.00    +0.210 HD
ENDBRANCH   5  30
BRANCH   4  32
ATOM     32  O   LIG A   1      -5.442  -1.845 124.663  0.00  0.00    -0.387 OA
ATOM     33  H   LIG A   1      -5.650  -2.768 124.400  0.00  0.00    +0.210 HD
ENDBRANCH   4  32
BRANCH   3  34
ATOM     34  C   LIG A   1      -8.427  -1.998 124.603  0.00  0.00    +0.190 C 
BRANCH  34  35
ATOM     35  O   LIG A   1      -9.626  -2.451 125.241  0.00  0.00    -0.392 OA
ATOM     36  H   LIG A   1      -9.361  -2.875 126.081  0.00  0.00    +0.209 HD
ENDBRANCH  34  35
ENDBRANCH   3  34
BRANCH   6  37
ATOM     37  O   LIG A   1      -6.496   1.555 125.952  0.00  0.00    -0.340 OA
BRANCH  37  38
ATOM     38  C   LIG A   1      -7.771   2.157 125.707  0.00  0.00    +0.282 C 
ATOM     39  O   LIG A   1      -8.307   1.677 124.470  0.00  0.00    -0.343 OA
ATOM     40  C   LIG A   1      -7.927   2.318 123.249  0.00  0.00    +0.149 C 
ATOM     41  C   LIG A   1      -7.208   3.692 123.304  0.00  0.00    +0.174 C 
ATOM     42  C   LIG A   1      -6.688   4.087 124.678  0.00  0.00    +0.179 C 
ATOM     43  C   LIG A   1      -9.221   2.477 122.436  0.00  0.00    +0.040 C 
ATOM     44  C   LIG A   1      -7.695   3.678 125.726  0.00  0.00    +0.201 C 
BRANCH  42  45
ATOM     45  O   LIG A   1      -6.500   5.508 124.758  0.00  0.00    -0.386 OA
ATOM     46  H   LIG A   1      -6.217   5.685 125.674  0.00  0.00    +0.210 HD
ENDBRANCH  42  45
BRANCH  41  47
ATOM     47  O   LIG A   1      -6.101   3.717 122.385  0.00  0.00    -0.387 OA
ATOM     48  H   LIG A   1      -6.416   4.124 121.556  0.00  0.00    +0.210 HD
ENDBRANCH  41  47
BRANCH  44  49
ATOM     49  O   LIG A   1      -8.962   4.266 125.437  0.00  0.00    -0.384 OA
ATOM     50  H   LIG A   1      -9.309   4.581 126.295  0.00  0.00    +0.210 HD
ENDBRANCH  44  49
ENDBRANCH  37  38
ENDBRANCH   6  37
TORSDOF 14
ENDMDL
MODEL 6
REMARK VINA RESULT:      -7.9      2.498      6.274
REMARK  Name = NuBBE_38
REMARK  16 active torsions:
REMARK  status: ('A' for Active; 'I' for Inactive)
REMARK    1  A    between atoms: C_1  and  O_2
REMARK    2  A    between atoms: O_2  and  C_3
REMARK    3  A    between atoms: C_5  and  O_6
REMARK    4  A    between atoms: C_10  and  C_45
REMARK    5  A    between atoms: C_13  and  C_14
REMARK    6  A    between atoms: C_17  and  C_25
REMARK    7  A    between atoms: C_19  and  O_24
REMARK    8  A    between atoms: C_21  and  O_23
REMARK    9  A    between atoms: C_25  and  O_26
REMARK   10  A    between atoms: C_27  and  O_29
REMARK   11  A    between atoms: O_29  and  C_30
REMARK   12  A    between atoms: C_33  and  C_41
REMARK   13  A    between atoms: C_35  and  O_40
REMARK   14  A    between atoms: C_37  and  O_39
REMARK   15  A    between atoms: C_42  and  O_44
REMARK   16  A    between atoms: C_48  and  O_51
REMARK                            x       y       z     vdW  Elec       q    Type
REMARK                         _______ _______ _______ _____ _____    ______ ____
ROOT
ATOM      1  C   LIG A   1      -7.804  -0.503 127.589  0.00  0.00    +0.187 C 
ATOM      2  O   LIG A   1      -8.520  -1.336 126.642  0.00  0.00    -0.361 OA
ATOM      3  C   LIG A   1      -7.919  -1.409 125.338  0.00  0.00    +0.175 C 
ATOM      4  C   LIG A   1      -6.520  -2.039 125.461  0.00  0.00    +0.176 C 
ATOM      5  C   LIG A   1      -5.630  -1.154 126.359  0.00  0.00    +0.177 C 
ATOM      6  C   LIG A   1      -6.416  -0.013 127.045  0.00  0.00    +0.186 C 
ENDROOT
BRANCH   1  16
ATOM      7  C   LIG A   1      -7.636  -2.436 129.334  0.00  0.00    +0.133 A 
ATOM      8  C   LIG A   1      -7.557  -2.879 130.665  0.00  0.00    +0.092 A 
ATOM      9  C   LIG A   1      -7.529  -1.979 131.726  0.00  0.00    +0.135 A 
ATOM     10  C   LIG A   1      -7.626  -0.620 131.472  0.00  0.00    +0.106 A 
ATOM     11  C   LIG A   1      -7.549   0.343 132.594  0.00  0.00    +0.197 A 
ATOM     12  C   LIG A   1      -8.018   1.695 132.292  0.00  0.00    +0.098 A 
ATOM     13  C   LIG A   1      -8.244   2.059 131.031  0.00  0.00    +0.139 A 
ATOM     14  O   LIG A   1      -8.077   1.203 129.927  0.00  0.00    -0.454 OA
ATOM     15  C   LIG A   1      -7.809  -0.149 130.155  0.00  0.00    +0.152 A 
ATOM     16  C   LIG A   1      -7.759  -1.052 129.038  0.00  0.00    +0.068 A 
ATOM     17  O   LIG A   1      -7.128   0.102 133.695  0.00  0.00    -0.287 OA
BRANCH  13  18
ATOM     18  C   LIG A   1      -8.723   3.446 130.760  0.00  0.00    +0.018 A 
ATOM     19  C   LIG A   1     -10.047   3.696 130.378  0.00  0.00    +0.015 A 
ATOM     20  C   LIG A   1     -10.507   5.006 130.159  0.00  0.00    +0.046 A 
ATOM     21  C   LIG A   1      -9.647   6.082 130.342  0.00  0.00    +0.117 A 
ATOM     22  C   LIG A   1      -8.329   5.871 130.706  0.00  0.00    +0.046 A 
ATOM     23  C   LIG A   1      -7.869   4.563 130.903  0.00  0.00    +0.015 A 
BRANCH  21  24
ATOM     24  O   LIG A   1     -10.060   7.370 130.173  0.00  0.00    -0.507 OA
ATOM     25  H   LIG A   1     -10.668   7.598 130.896  0.00  0.00    +0.292 HD
ENDBRANCH  21  24
ENDBRANCH  13  18
BRANCH   7  27
ATOM     26  C   LIG A   1      -8.854  -4.099 128.143  0.00  0.00    +0.277 C 
ATOM     27  O   LIG A   1      -7.653  -3.341 128.300  0.00  0.00    -0.494 OA
ENDBRANCH   7  27
BRANCH   9  28
ATOM     28  O   LIG A   1      -7.459  -2.464 132.998  0.00  0.00    -0.506 OA
ATOM     29  H   LIG A   1      -7.484  -1.748 133.651  0.00  0.00    +0.292 HD
ENDBRANCH   9  28
ENDBRANCH   1  16
BRANCH   5  30
ATOM     30  O   LIG A   1      -4.953  -1.949 127.343  0.00  0.00    -0.387 OA
ATOM     31  H   LIG A   1      -4.438  -1.331 127.895  0.00  0.00    +0.210 HD
ENDBRANCH   5  30
BRANCH   4  32
ATOM     32  O   LIG A   1      -5.851  -2.218 124.205  0.00  0.00    -0.387 OA
ATOM     33  H   LIG A   1      -5.188  -2.932 124.328  0.00  0.00    +0.210 HD
ENDBRANCH   4  32
BRANCH   3  34
ATOM     34  C   LIG A   1      -8.836  -2.158 124.366  0.00  0.00    +0.190 C 
BRANCH  34  35
ATOM     35  O   LIG A   1      -8.523  -3.555 124.346  0.00  0.00    -0.392 OA
ATOM     36  H   LIG A   1      -8.700  -3.901 125.242  0.00  0.00    +0.209 HD
ENDBRANCH  34  35
ENDBRANCH   3  34
BRANCH   6  37
ATOM     37  O   LIG A   1      -6.541   1.029 126.025  0.00  0.00    -0.340 OA
BRANCH  37  38
ATOM     38  C   LIG A   1      -5.510   2.019 125.971  0.00  0.00    +0.282 C 
ATOM     39  O   LIG A   1      -5.249   2.525 127.284  0.00  0.00    -0.343 OA
ATOM     40  C   LIG A   1      -6.053   3.593 127.793  0.00  0.00    +0.149 C 
ATOM     41  C   LIG A   1      -6.966   4.386 126.821  0.00  0.00    +0.174 C 
ATOM     42  C   LIG A   1      -7.159   3.743 125.456  0.00  0.00    +0.179 C 
ATOM     43  C   LIG A   1      -5.077   4.576 128.457  0.00  0.00    +0.040 C 
ATOM     44  C   LIG A   1      -5.850   3.143 125.000  0.00  0.00    +0.201 C 
BRANCH  42  45
ATOM     45  O   LIG A   1      -7.572   4.721 124.489  0.00  0.00    -0.386 OA
ATOM     46  H   LIG A   1      -6.758   4.991 124.024  0.00  0.00    +0.210 HD
ENDBRANCH  42  45
BRANCH  41  47
ATOM     47  O   LIG A   1      -8.266   4.589 127.405  0.00  0.00    -0.387 OA
ATOM     48  H   LIG A   1      -8.141   4.719 128.363  0.00  0.00    +0.210 HD
ENDBRANCH  41  47
BRANCH  44  49
ATOM     49  O   LIG A   1      -4.835   4.145 124.988  0.00  0.00    -0.384 OA
ATOM     50  H   LIG A   1      -4.643   4.315 124.045  0.00  0.00    +0.210 HD
ENDBRANCH  44  49
ENDBRANCH  37  38
ENDBRANCH   6  37
TORSDOF 14
ENDMDL
MODEL 7
REMARK VINA RESULT:      -7.8      2.019      6.349
REMARK  Name = NuBBE_38
REMARK  16 active torsions:
REMARK  status: ('A' for Active; 'I' for Inactive)
REMARK    1  A    between atoms: C_1  and  O_2
REMARK    2  A    between atoms: O_2  and  C_3
REMARK    3  A    between atoms: C_5  and  O_6
REMARK    4  A    between atoms: C_10  and  C_45
REMARK    5  A    between atoms: C_13  and  C_14
REMARK    6  A    between atoms: C_17  and  C_25
REMARK    7  A    between atoms: C_19  and  O_24
REMARK    8  A    between atoms: C_21  and  O_23
REMARK    9  A    between atoms: C_25  and  O_26
REMARK   10  A    between atoms: C_27  and  O_29
REMARK   11  A    between atoms: O_29  and  C_30
REMARK   12  A    between atoms: C_33  and  C_41
REMARK   13  A    between atoms: C_35  and  O_40
REMARK   14  A    between atoms: C_37  and  O_39
REMARK   15  A    between atoms: C_42  and  O_44
REMARK   16  A    between atoms: C_48  and  O_51
REMARK                            x       y       z     vdW  Elec       q    Type
REMARK                         _______ _______ _______ _____ _____    ______ ____
ROOT
ATOM      1  C   LIG A   1      -5.001   1.756 129.019  0.00  0.00    +0.187 C 
ATOM      2  O   LIG A   1      -3.785   2.545 129.054  0.00  0.00    -0.361 OA
ATOM      3  C   LIG A   1      -3.962   3.931 128.716  0.00  0.00    +0.175 C 
ATOM      4  C   LIG A   1      -4.904   4.584 129.743  0.00  0.00    +0.176 C 
ATOM      5  C   LIG A   1      -6.282   3.892 129.699  0.00  0.00    +0.177 C 
ATOM      6  C   LIG A   1      -6.289   2.627 128.809  0.00  0.00    +0.186 C 
ENDROOT
BRANCH   1  16
ATOM      7  C   LIG A   1      -4.491   0.840 131.409  0.00  0.00    +0.133 A 
ATOM      8  C   LIG A   1      -4.672  -0.125 132.413  0.00  0.00    +0.092 A 
ATOM      9  C   LIG A   1      -5.527  -1.207 132.230  0.00  0.00    +0.135 A 
ATOM     10  C   LIG A   1      -6.181  -1.365 131.018  0.00  0.00    +0.106 A 
ATOM     11  C   LIG A   1      -7.128  -2.488 130.836  0.00  0.00    +0.197 A 
ATOM     12  C   LIG A   1      -7.482  -2.789 129.450  0.00  0.00    +0.098 A 
ATOM     13  C   LIG A   1      -7.165  -1.937 128.477  0.00  0.00    +0.139 A 
ATOM     14  O   LIG A   1      -6.470  -0.731 128.689  0.00  0.00    -0.454 OA
ATOM     15  C   LIG A   1      -5.942  -0.469 129.955  0.00  0.00    +0.152 A 
ATOM     16  C   LIG A   1      -5.128   0.700 130.147  0.00  0.00    +0.068 A 
ATOM     17  O   LIG A   1      -7.620  -3.139 131.720  0.00  0.00    -0.287 OA
BRANCH  13  18
ATOM     18  C   LIG A   1      -7.541  -2.277 127.074  0.00  0.00    +0.018 A 
ATOM     19  C   LIG A   1      -8.824  -2.742 126.758  0.00  0.00    +0.015 A 
ATOM     20  C   LIG A   1      -9.190  -3.027 125.432  0.00  0.00    +0.046 A 
ATOM     21  C   LIG A   1      -8.277  -2.827 124.403  0.00  0.00    +0.117 A 
ATOM     22  C   LIG A   1      -6.996  -2.380 124.680  0.00  0.00    +0.046 A 
ATOM     23  C   LIG A   1      -6.630  -2.118 126.006  0.00  0.00    +0.015 A 
BRANCH  21  24
ATOM     24  O   LIG A   1      -8.600  -3.057 123.099  0.00  0.00    -0.507 OA
ATOM     25  H   LIG A   1      -9.008  -3.936 123.031  0.00  0.00    +0.292 HD
ENDBRANCH  21  24
ENDBRANCH  13  18
BRANCH   7  27
ATOM     26  C   LIG A   1      -3.365   2.234 132.976  0.00  0.00    +0.277 C 
ATOM     27  O   LIG A   1      -3.649   1.908 131.614  0.00  0.00    -0.494 OA
ENDBRANCH   7  27
BRANCH   9  28
ATOM     28  O   LIG A   1      -5.659  -2.118 133.235  0.00  0.00    -0.506 OA
ATOM     29  H   LIG A   1      -5.942  -1.697 134.061  0.00  0.00    +0.292 HD
ENDBRANCH   9  28
ENDBRANCH   1  16
BRANCH   5  30
ATOM     30  O   LIG A   1      -6.729   3.567 131.022  0.00  0.00    -0.387 OA
ATOM     31  H   LIG A   1      -6.156   4.059 131.640  0.00  0.00    +0.210 HD
ENDBRANCH   5  30
BRANCH   4  32
ATOM     32  O   LIG A   1      -5.102   5.990 129.537  0.00  0.00    -0.387 OA
ATOM     33  H   LIG A   1      -4.238   6.431 129.686  0.00  0.00    +0.210 HD
ENDBRANCH   4  32
BRANCH   3  34
ATOM     34  C   LIG A   1      -2.606   4.633 128.605  0.00  0.00    +0.190 C 
BRANCH  34  35
ATOM     35  O   LIG A   1      -2.103   4.560 127.268  0.00  0.00    -0.392 OA
ATOM     36  H   LIG A   1      -1.575   3.740 127.205  0.00  0.00    +0.209 HD
ENDBRANCH  34  35
ENDBRANCH   3  34
BRANCH   6  37
ATOM     37  O   LIG A   1      -6.421   3.127 127.440  0.00  0.00    -0.340 OA
BRANCH  37  38
ATOM     38  C   LIG A   1      -7.744   3.379 126.958  0.00  0.00    +0.282 C 
ATOM     39  O   LIG A   1      -8.468   2.149 126.854  0.00  0.00    -0.343 OA
ATOM     40  C   LIG A   1      -8.339   1.361 125.668  0.00  0.00    +0.149 C 
ATOM     41  C   LIG A   1      -7.683   1.987 124.409  0.00  0.00    +0.174 C 
ATOM     42  C   LIG A   1      -6.947   3.295 124.653  0.00  0.00    +0.179 C 
ATOM     43  C   LIG A   1      -9.761   0.909 125.304  0.00  0.00    +0.040 C 
ATOM     44  C   LIG A   1      -7.735   4.132 125.634  0.00  0.00    +0.201 C 
BRANCH  42  45
ATOM     45  O   LIG A   1      -6.812   4.035 123.430  0.00  0.00    -0.386 OA
ATOM     46  H   LIG A   1      -7.280   4.878 123.580  0.00  0.00    +0.210 HD
ENDBRANCH  42  45
BRANCH  41  47
ATOM     47  O   LIG A   1      -6.757   1.060 123.811  0.00  0.00    -0.387 OA
ATOM     48  H   LIG A   1      -5.867   1.278 124.143  0.00  0.00    +0.210 HD
ENDBRANCH  41  47
BRANCH  44  49
ATOM     49  O   LIG A   1      -9.057   4.338 125.143  0.00  0.00    -0.384 OA
ATOM     50  H   LIG A   1      -9.015   4.155 124.184  0.00  0.00    +0.210 HD
ENDBRANCH  44  49
ENDBRANCH  37  38
ENDBRANCH   6  37
TORSDOF 14
ENDMDL
MODEL 8
REMARK VINA RESULT:      -7.7      2.842      7.260
REMARK  Name = NuBBE_38
REMARK  16 active torsions:
REMARK  status: ('A' for Active; 'I' for Inactive)
REMARK    1  A    between atoms: C_1  and  O_2
REMARK    2  A    between atoms: O_2  and  C_3
REMARK    3  A    between atoms: C_5  and  O_6
REMARK    4  A    between atoms: C_10  and  C_45
REMARK    5  A    between atoms: C_13  and  C_14
REMARK    6  A    between atoms: C_17  and  C_25
REMARK    7  A    between atoms: C_19  and  O_24
REMARK    8  A    between atoms: C_21  and  O_23
REMARK    9  A    between atoms: C_25  and  O_26
REMARK   10  A    between atoms: C_27  and  O_29
REMARK   11  A    between atoms: O_29  and  C_30
REMARK   12  A    between atoms: C_33  and  C_41
REMARK   13  A    between atoms: C_35  and  O_40
REMARK   14  A    between atoms: C_37  and  O_39
REMARK   15  A    between atoms: C_42  and  O_44
REMARK   16  A    between atoms: C_48  and  O_51
REMARK                            x       y       z     vdW  Elec       q    Type
REMARK                         _______ _______ _______ _____ _____    ______ ____
ROOT
ATOM      1  C   LIG A   1      -5.561   0.879 128.495  0.00  0.00    +0.187 C 
ATOM      2  O   LIG A   1      -4.939   1.978 129.209  0.00  0.00    -0.361 OA
ATOM      3  C   LIG A   1      -5.585   3.249 129.028  0.00  0.00    +0.175 C 
ATOM      4  C   LIG A   1      -7.021   3.167 129.573  0.00  0.00    +0.176 C 
ATOM      5  C   LIG A   1      -7.816   2.101 128.789  0.00  0.00    +0.177 C 
ATOM      6  C   LIG A   1      -6.926   1.275 127.831  0.00  0.00    +0.186 C 
ENDROOT
BRANCH   1  16
ATOM      7  C   LIG A   1      -5.403  -1.722 128.641  0.00  0.00    +0.133 A 
ATOM      8  C   LIG A   1      -5.405  -2.908 129.394  0.00  0.00    +0.092 A 
ATOM      9  C   LIG A   1      -5.535  -2.884 130.779  0.00  0.00    +0.135 A 
ATOM     10  C   LIG A   1      -5.710  -1.671 131.428  0.00  0.00    +0.106 A 
ATOM     11  C   LIG A   1      -5.799  -1.637 132.905  0.00  0.00    +0.197 A 
ATOM     12  C   LIG A   1      -6.338  -0.401 133.471  0.00  0.00    +0.098 A 
ATOM     13  C   LIG A   1      -6.481   0.679 132.705  0.00  0.00    +0.139 A 
ATOM     14  O   LIG A   1      -6.157   0.716 131.336  0.00  0.00    -0.454 OA
ATOM     15  C   LIG A   1      -5.812  -0.473 130.691  0.00  0.00    +0.152 A 
ATOM     16  C   LIG A   1      -5.600  -0.464 129.270  0.00  0.00    +0.068 A 
ATOM     17  O   LIG A   1      -5.458  -2.520 133.648  0.00  0.00    -0.287 OA
BRANCH  13  18
ATOM     18  C   LIG A   1      -7.035   1.923 133.315  0.00  0.00    +0.018 A 
ATOM     19  C   LIG A   1      -8.351   2.332 133.065  0.00  0.00    +0.015 A 
ATOM     20  C   LIG A   1      -8.884   3.483 133.669  0.00  0.00    +0.046 A 
ATOM     21  C   LIG A   1      -8.107   4.227 134.549  0.00  0.00    +0.117 A 
ATOM     22  C   LIG A   1      -6.798   3.859 134.810  0.00  0.00    +0.046 A 
ATOM     23  C   LIG A   1      -6.265   2.724 134.189  0.00  0.00    +0.015 A 
BRANCH  21  24
ATOM     24  O   LIG A   1      -8.595   5.330 135.184  0.00  0.00    -0.507 OA
ATOM     25  H   LIG A   1      -9.453   5.108 135.578  0.00  0.00    +0.292 HD
ENDBRANCH  21  24
ENDBRANCH  13  18
BRANCH   7  27
ATOM     26  C   LIG A   1      -6.414  -2.186 126.535  0.00  0.00    +0.277 C 
ATOM     27  O   LIG A   1      -5.263  -1.768 127.273  0.00  0.00    -0.494 OA
ENDBRANCH   7  27
BRANCH   9  28
ATOM     28  O   LIG A   1      -5.540  -4.064 131.460  0.00  0.00    -0.506 OA
ATOM     29  H   LIG A   1      -5.058  -4.754 130.977  0.00  0.00    +0.292 HD
ENDBRANCH   9  28
ENDBRANCH   1  16
BRANCH   5  30
ATOM     30  O   LIG A   1      -8.516   1.229 129.687  0.00  0.00    -0.387 OA
ATOM     31  H   LIG A   1      -9.467   1.421 129.577  0.00  0.00    +0.210 HD
ENDBRANCH   5  30
BRANCH   4  32
ATOM     32  O   LIG A   1      -7.742   4.405 129.500  0.00  0.00    -0.387 OA
ATOM     33  H   LIG A   1      -7.564   4.794 128.616  0.00  0.00    +0.210 HD
ENDBRANCH   4  32
BRANCH   3  34
ATOM     34  C   LIG A   1      -4.758   4.367 129.668  0.00  0.00    +0.190 C 
BRANCH  34  35
ATOM     35  O   LIG A   1      -5.148   5.645 129.155  0.00  0.00    -0.392 OA
ATOM     36  H   LIG A   1      -6.094   5.763 129.368  0.00  0.00    +0.209 HD
ENDBRANCH  34  35
ENDBRANCH   3  34
BRANCH   6  37
ATOM     37  O   LIG A   1      -6.758   2.119 126.647  0.00  0.00    -0.340 OA
BRANCH  37  38
ATOM     38  C   LIG A   1      -7.934   2.723 126.102  0.00  0.00    +0.282 C 
ATOM     39  O   LIG A   1      -8.276   2.094 124.863  0.00  0.00    -0.343 OA
ATOM     40  C   LIG A   1      -7.656   2.545 123.656  0.00  0.00    +0.149 C 
ATOM     41  C   LIG A   1      -6.879   3.889 123.658  0.00  0.00    +0.174 C 
ATOM     42  C   LIG A   1      -6.582   4.454 125.038  0.00  0.00    +0.179 C 
ATOM     43  C   LIG A   1      -8.779   2.633 122.611  0.00  0.00    +0.040 C 
ATOM     44  C   LIG A   1      -7.776   4.229 125.935  0.00  0.00    +0.201 C 
BRANCH  42  45
ATOM     45  O   LIG A   1      -6.329   5.865 124.963  0.00  0.00    -0.386 OA
ATOM     46  H   LIG A   1      -5.358   5.957 124.932  0.00  0.00    +0.210 HD
ENDBRANCH  42  45
BRANCH  41  47
ATOM     47  O   LIG A   1      -5.630   3.749 122.955  0.00  0.00    -0.387 OA
ATOM     48  H   LIG A   1      -5.801   3.219 122.155  0.00  0.00    +0.210 HD
ENDBRANCH  41  47
BRANCH  44  49
ATOM     49  O   LIG A   1      -8.938   4.813 125.350  0.00  0.00    -0.384 OA
ATOM     50  H   LIG A   1      -9.322   5.388 126.041  0.00  0.00    +0.210 HD
ENDBRANCH  44  49
ENDBRANCH  37  38
ENDBRANCH   6  37
TORSDOF 14
ENDMDL
MODEL 9
REMARK VINA RESULT:      -7.6      2.150      6.511
REMARK  Name = NuBBE_38
REMARK  16 active torsions:
REMARK  status: ('A' for Active; 'I' for Inactive)
REMARK    1  A    between atoms: C_1  and  O_2
REMARK    2  A    between atoms: O_2  and  C_3
REMARK    3  A    between atoms: C_5  and  O_6
REMARK    4  A    between atoms: C_10  and  C_45
REMARK    5  A    between atoms: C_13  and  C_14
REMARK    6  A    between atoms: C_17  and  C_25
REMARK    7  A    between atoms: C_19  and  O_24
REMARK    8  A    between atoms: C_21  and  O_23
REMARK    9  A    between atoms: C_25  and  O_26
REMARK   10  A    between atoms: C_27  and  O_29
REMARK   11  A    between atoms: O_29  and  C_30
REMARK   12  A    between atoms: C_33  and  C_41
REMARK   13  A    between atoms: C_35  and  O_40
REMARK   14  A    between atoms: C_37  and  O_39
REMARK   15  A    between atoms: C_42  and  O_44
REMARK   16  A    between atoms: C_48  and  O_51
REMARK                            x       y       z     vdW  Elec       q    Type
REMARK                         _______ _______ _______ _____ _____    ______ ____
ROOT
ATOM      1  C   LIG A   1      -7.843   2.083 126.349  0.00  0.00    +0.187 C 
ATOM      2  O   LIG A   1      -8.658   3.280 126.263  0.00  0.00    -0.361 OA
ATOM      3  C   LIG A   1      -7.912   4.507 126.208  0.00  0.00    +0.175 C 
ATOM      4  C   LIG A   1      -7.042   4.513 124.939  0.00  0.00    +0.176 C 
ATOM      5  C   LIG A   1      -6.042   3.338 124.989  0.00  0.00    +0.177 C 
ATOM      6  C   LIG A   1      -6.312   2.372 126.166  0.00  0.00    +0.186 C 
ENDROOT
BRANCH   1  16
ATOM      7  C   LIG A   1      -8.907   1.015 124.219  0.00  0.00    +0.133 A 
ATOM      8  C   LIG A   1      -9.325  -0.115 123.496  0.00  0.00    +0.092 A 
ATOM      9  C   LIG A   1      -9.160  -1.399 124.002  0.00  0.00    +0.135 A 
ATOM     10  C   LIG A   1      -8.613  -1.571 125.265  0.00  0.00    +0.106 A 
ATOM     11  C   LIG A   1      -8.391  -2.938 125.788  0.00  0.00    +0.197 A 
ATOM     12  C   LIG A   1      -8.163  -3.027 127.230  0.00  0.00    +0.098 A 
ATOM     13  C   LIG A   1      -7.923  -1.926 127.938  0.00  0.00    +0.139 A 
ATOM     14  O   LIG A   1      -7.889  -0.632 127.387  0.00  0.00    -0.454 OA
ATOM     15  C   LIG A   1      -8.277  -0.454 126.057  0.00  0.00    +0.152 A 
ATOM     16  C   LIG A   1      -8.362   0.878 125.523  0.00  0.00    +0.068 A 
ATOM     17  O   LIG A   1      -8.372  -3.945 125.130  0.00  0.00    -0.287 OA
BRANCH  13  18
ATOM     18  C   LIG A   1      -7.695  -2.054 129.408  0.00  0.00    +0.018 A 
ATOM     19  C   LIG A   1      -7.921  -0.977 130.274  0.00  0.00    +0.015 A 
ATOM     20  C   LIG A   1      -7.742  -1.109 131.662  0.00  0.00    +0.046 A 
ATOM     21  C   LIG A   1      -7.355  -2.332 132.198  0.00  0.00    +0.117 A 
ATOM     22  C   LIG A   1      -7.111  -3.413 131.370  0.00  0.00    +0.046 A 
ATOM     23  C   LIG A   1      -7.270  -3.271 129.986  0.00  0.00    +0.015 A 
BRANCH  21  24
ATOM     24  O   LIG A   1      -7.203  -2.513 133.540  0.00  0.00    -0.507 OA
ATOM     25  H   LIG A   1      -7.785  -1.891 134.006  0.00  0.00    +0.292 HD
ENDBRANCH  21  24
ENDBRANCH  13  18
BRANCH   7  27
ATOM     26  C   LIG A   1      -9.130   2.364 122.270  0.00  0.00    +0.277 C 
ATOM     27  O   LIG A   1      -9.070   2.276 123.695  0.00  0.00    -0.494 OA
ENDBRANCH   7  27
BRANCH   9  28
ATOM     28  O   LIG A   1      -9.591  -2.459 123.262  0.00  0.00    -0.506 OA
ATOM     29  H   LIG A   1      -8.914  -2.749 122.630  0.00  0.00    +0.292 HD
ENDBRANCH   9  28
ENDBRANCH   1  16
BRANCH   5  30
ATOM     30  O   LIG A   1      -6.045   2.618 123.749  0.00  0.00    -0.387 OA
ATOM     31  H   LIG A   1      -5.214   2.106 123.721  0.00  0.00    +0.210 HD
ENDBRANCH   5  30
BRANCH   4  32
ATOM     32  O   LIG A   1      -6.298   5.725 124.750  0.00  0.00    -0.387 OA
ATOM     33  H   LIG A   1      -6.713   6.413 125.315  0.00  0.00    +0.210 HD
ENDBRANCH   4  32
BRANCH   3  34
ATOM     34  C   LIG A   1      -8.854   5.711 126.301  0.00  0.00    +0.190 C 
BRANCH  34  35
ATOM     35  O   LIG A   1      -9.344   5.872 127.636  0.00  0.00    -0.392 OA
ATOM     36  H   LIG A   1      -8.866   5.230 128.196  0.00  0.00    +0.209 HD
ENDBRANCH  34  35
ENDBRANCH   3  34
BRANCH   6  37
ATOM     37  O   LIG A   1      -5.712   3.021 127.334  0.00  0.00    -0.340 OA
BRANCH  37  38
ATOM     38  C   LIG A   1      -5.518   2.218 128.501  0.00  0.00    +0.282 C 
ATOM     39  O   LIG A   1      -6.649   2.336 129.369  0.00  0.00    -0.343 OA
ATOM     40  C   LIG A   1      -6.706   3.421 130.298  0.00  0.00    +0.149 C 
ATOM     41  C   LIG A   1      -5.427   4.256 130.570  0.00  0.00    +0.174 C 
ATOM     42  C   LIG A   1      -4.295   4.035 129.577  0.00  0.00    +0.179 C 
ATOM     43  C   LIG A   1      -7.185   2.816 131.626  0.00  0.00    +0.040 C 
ATOM     44  C   LIG A   1      -4.224   2.568 129.225  0.00  0.00    +0.201 C 
BRANCH  42  45
ATOM     45  O   LIG A   1      -3.038   4.428 130.148  0.00  0.00    -0.386 OA
ATOM     46  H   LIG A   1      -3.248   5.138 130.784  0.00  0.00    +0.210 HD
ENDBRANCH  42  45
BRANCH  41  47
ATOM     47  O   LIG A   1      -5.737   5.661 130.587  0.00  0.00    -0.387 OA
ATOM     48  H   LIG A   1      -6.611   5.775 130.169  0.00  0.00    +0.210 HD
ENDBRANCH  41  47
BRANCH  44  49
ATOM     49  O   LIG A   1      -4.063   1.792 130.410  0.00  0.00    -0.384 OA
ATOM     50  H   LIG A   1      -4.929   1.817 130.862  0.00  0.00    +0.210 HD
ENDBRANCH  44  49
ENDBRANCH  37  38
ENDBRANCH   6  37
TORSDOF 14
ENDMDL
