MODEL 1
REMARK VINA RESULT:      -7.4      0.000      0.000
REMARK  Name = NuBBE_2007
REMARK  13 active torsions:
REMARK  status: ('A' for Active; 'I' for Inactive)
REMARK    1  A    between atoms: C_3  and  O_5
REMARK    2  A    between atoms: O_5  and  C_6
REMARK    3  A    between atoms: C_6  and  C_7
REMARK    4  A    between atoms: C_9  and  C_12
REMARK    5  A    between atoms: C_15  and  O_18
REMARK    6  A    between atoms: O_18  and  C_19
REMARK    7  A    between atoms: C_19  and  C_20
REMARK    8  A    between atoms: C_25  and  O_26
REMARK    9  A    between atoms: O_26  and  C_27
REMARK   10  A    between atoms: C_27  and  C_28
REMARK   11  A    between atoms: C_30  and  C_31
REMARK   12  A    between atoms: C_32  and  O_33
REMARK   13  A    between atoms: O_33  and  C_34
REMARK                            x       y       z     vdW  Elec       q    Type
REMARK                         _______ _______ _______ _____ _____    ______ ____
ROOT
ATOM      1  O   LIG A   1      -9.988   6.450 132.913  0.00  0.00    -0.288 OA
ATOM      2  C   LIG A   1      -9.441   5.876 131.974  0.00  0.00    +0.214 C 
ATOM      3  C   LIG A   1     -10.218   5.423 130.762  0.00  0.00    +0.292 C 
ATOM      4  C   LIG A   1      -9.333   4.569 129.846  0.00  0.00    +0.252 C 
ATOM      5  O   LIG A   1      -8.095   5.236 129.544  0.00  0.00    -0.479 OA
ATOM      6  C   LIG A   1      -7.970   5.800 131.912  0.00  0.00    +0.105 A 
ATOM      7  C   LIG A   1      -7.412   5.692 130.638  0.00  0.00    +0.139 A 
ATOM      8  C   LIG A   1      -6.062   5.942 130.435  0.00  0.00    +0.093 A 
ATOM      9  C   LIG A   1      -5.241   6.173 131.531  0.00  0.00    +0.141 A 
ATOM     10  C   LIG A   1      -5.743   6.054 132.846  0.00  0.00    +0.034 A 
ATOM     11  C   LIG A   1      -4.797   6.113 134.018  0.00  0.00    +0.051 C 
ATOM     12  C   LIG A   1      -7.133   5.872 133.036  0.00  0.00    +0.141 A 
ENDROOT
BRANCH   4  13
ATOM     13  C   LIG A   1      -9.199   3.099 130.285  0.00  0.00    -0.003 A 
ATOM     14  C   LIG A   1      -9.925   2.676 131.412  0.00  0.00    +0.011 A 
ATOM     15  C   LIG A   1      -9.769   1.389 131.934  0.00  0.00    +0.046 A 
ATOM     16  C   LIG A   1      -8.878   0.500 131.342  0.00  0.00    +0.132 A 
ATOM     17  C   LIG A   1      -8.167   0.869 130.210  0.00  0.00    +0.046 A 
ATOM     18  C   LIG A   1      -8.347   2.155 129.677  0.00  0.00    +0.011 A 
BRANCH  16  19
ATOM     19  O   LIG A   1      -8.686  -0.710 132.040  0.00  0.00    -0.426 OA
BRANCH  19  20
ATOM     20  C   LIG A   1      -7.529  -1.036 132.746  0.00  0.00    +0.309 C 
ATOM     21  C   LIG A   1      -7.051  -2.373 132.255  0.00  0.00    +0.136 C 
ATOM     22  O   LIG A   1      -6.993  -0.379 133.626  0.00  0.00    -0.251 OA
ENDBRANCH  19  20
ENDBRANCH  16  19
ENDBRANCH   4  13
BRANCH  12  23
ATOM     23  O   LIG A   1      -7.559   5.736 134.336  0.00  0.00    -0.494 OA
ATOM     24  C   LIG A   1      -7.843   4.400 134.770  0.00  0.00    +0.277 C 
ENDBRANCH  12  23
BRANCH   3  25
ATOM     25  O   LIG A   1     -10.549   6.666 130.100  0.00  0.00    -0.449 OA
BRANCH  25  26
ATOM     26  C   LIG A   1     -11.809   6.729 129.578  0.00  0.00    +0.305 C 
ATOM     27  C   LIG A   1     -12.748   7.309 130.600  0.00  0.00    +0.136 C 
ATOM     28  O   LIG A   1     -12.139   6.331 128.483  0.00  0.00    -0.251 OA
ENDBRANCH  25  26
ENDBRANCH   3  25
BRANCH   9  29
ATOM     29  O   LIG A   1      -3.842   6.344 131.386  0.00  0.00    -0.425 OA
BRANCH  29  30
ATOM     30  C   LIG A   1      -3.010   5.490 130.654  0.00  0.00    +0.309 C 
ATOM     31  C   LIG A   1      -2.323   6.311 129.606  0.00  0.00    +0.136 C 
ATOM     32  O   LIG A   1      -2.822   4.300 130.840  0.00  0.00    -0.251 OA
ENDBRANCH  29  30
ENDBRANCH   9  29
TORSDOF 8
ENDMDL
MODEL 2
REMARK VINA RESULT:      -7.4      4.856      6.956
REMARK  Name = NuBBE_2007
REMARK  13 active torsions:
REMARK  status: ('A' for Active; 'I' for Inactive)
REMARK    1  A    between atoms: C_3  and  O_5
REMARK    2  A    between atoms: O_5  and  C_6
REMARK    3  A    between atoms: C_6  and  C_7
REMARK    4  A    between atoms: C_9  and  C_12
REMARK    5  A    between atoms: C_15  and  O_18
REMARK    6  A    between atoms: O_18  and  C_19
REMARK    7  A    between atoms: C_19  and  C_20
REMARK    8  A    between atoms: C_25  and  O_26
REMARK    9  A    between atoms: O_26  and  C_27
REMARK   10  A    between atoms: C_27  and  C_28
REMARK   11  A    between atoms: C_30  and  C_31
REMARK   12  A    between atoms: C_32  and  O_33
REMARK   13  A    between atoms: O_33  and  C_34
REMARK                            x       y       z     vdW  Elec       q    Type
REMARK                         _______ _______ _______ _____ _____    ______ ____
ROOT
ATOM      1  O   LIG A   1      -9.615   0.693 125.695  0.00  0.00    -0.288 OA
ATOM      2  C   LIG A   1      -8.488   0.209 125.771  0.00  0.00    +0.214 C 
ATOM      3  C   LIG A   1      -8.168  -1.148 125.192  0.00  0.00    +0.292 C 
ATOM      4  C   LIG A   1      -6.755  -1.585 125.599  0.00  0.00    +0.252 C 
ATOM      5  O   LIG A   1      -5.785  -0.566 125.299  0.00  0.00    -0.479 OA
ATOM      6  C   LIG A   1      -7.362   1.034 126.247  0.00  0.00    +0.105 A 
ATOM      7  C   LIG A   1      -6.097   0.676 125.781  0.00  0.00    +0.139 A 
ATOM      8  C   LIG A   1      -5.029   1.556 125.890  0.00  0.00    +0.093 A 
ATOM      9  C   LIG A   1      -5.198   2.746 126.587  0.00  0.00    +0.141 A 
ATOM     10  C   LIG A   1      -6.405   3.018 127.266  0.00  0.00    +0.034 A 
ATOM     11  C   LIG A   1      -6.499   4.216 128.177  0.00  0.00    +0.051 C 
ATOM     12  C   LIG A   1      -7.506   2.149 127.086  0.00  0.00    +0.141 A 
ENDROOT
BRANCH   4  13
ATOM     13  C   LIG A   1      -6.661  -2.188 127.013  0.00  0.00    -0.003 A 
ATOM     14  C   LIG A   1      -7.822  -2.753 127.569  0.00  0.00    +0.011 A 
ATOM     15  C   LIG A   1      -7.841  -3.219 128.886  0.00  0.00    +0.046 A 
ATOM     16  C   LIG A   1      -6.700  -3.124 129.677  0.00  0.00    +0.132 A 
ATOM     17  C   LIG A   1      -5.527  -2.602 129.154  0.00  0.00    +0.046 A 
ATOM     18  C   LIG A   1      -5.508  -2.158 127.822  0.00  0.00    +0.011 A 
BRANCH  16  19
ATOM     19  O   LIG A   1      -6.876  -3.480 131.030  0.00  0.00    -0.426 OA
BRANCH  19  20
ATOM     20  C   LIG A   1      -5.833  -3.709 131.925  0.00  0.00    +0.309 C 
ATOM     21  C   LIG A   1      -5.388  -5.135 131.759  0.00  0.00    +0.136 C 
ATOM     22  O   LIG A   1      -5.362  -2.916 132.726  0.00  0.00    -0.251 OA
ENDBRANCH  19  20
ENDBRANCH  16  19
ENDBRANCH   4  13
BRANCH  12  23
ATOM     23  O   LIG A   1      -8.644   2.449 127.794  0.00  0.00    -0.494 OA
ATOM     24  C   LIG A   1      -8.728   1.903 129.117  0.00  0.00    +0.277 C 
ENDBRANCH  12  23
BRANCH   3  25
ATOM     25  O   LIG A   1      -8.214  -0.916 123.764  0.00  0.00    -0.449 OA
BRANCH  25  26
ATOM     26  C   LIG A   1      -9.303  -1.435 123.126  0.00  0.00    +0.305 C 
ATOM     27  C   LIG A   1      -9.293  -2.935 123.254  0.00  0.00    +0.136 C 
ATOM     28  O   LIG A   1     -10.126  -0.800 122.504  0.00  0.00    -0.251 OA
ENDBRANCH  25  26
ENDBRANCH   3  25
BRANCH   9  29
ATOM     29  O   LIG A   1      -4.117   3.636 126.804  0.00  0.00    -0.425 OA
BRANCH  29  30
ATOM     30  C   LIG A   1      -3.048   3.389 127.671  0.00  0.00    +0.309 C 
ATOM     31  C   LIG A   1      -1.844   3.083 126.833  0.00  0.00    +0.136 C 
ATOM     32  O   LIG A   1      -3.051   3.448 128.889  0.00  0.00    -0.251 OA
ENDBRANCH  29  30
ENDBRANCH   9  29
TORSDOF 8
ENDMDL
MODEL 3
REMARK VINA RESULT:      -7.3      1.317      5.976
REMARK  Name = NuBBE_2007
REMARK  13 active torsions:
REMARK  status: ('A' for Active; 'I' for Inactive)
REMARK    1  A    between atoms: C_3  and  O_5
REMARK    2  A    between atoms: O_5  and  C_6
REMARK    3  A    between atoms: C_6  and  C_7
REMARK    4  A    between atoms: C_9  and  C_12
REMARK    5  A    between atoms: C_15  and  O_18
REMARK    6  A    between atoms: O_18  and  C_19
REMARK    7  A    between atoms: C_19  and  C_20
REMARK    8  A    between atoms: C_25  and  O_26
REMARK    9  A    between atoms: O_26  and  C_27
REMARK   10  A    between atoms: C_27  and  C_28
REMARK   11  A    between atoms: C_30  and  C_31
REMARK   12  A    between atoms: C_32  and  O_33
REMARK   13  A    between atoms: O_33  and  C_34
REMARK                            x       y       z     vdW  Elec       q    Type
REMARK                         _______ _______ _______ _____ _____    ______ ____
ROOT
ATOM      1  O   LIG A   1      -9.296   5.474 128.192  0.00  0.00    -0.288 OA
ATOM      2  C   LIG A   1      -9.141   5.313 129.400  0.00  0.00    +0.214 C 
ATOM      3  C   LIG A   1      -9.424   6.417 130.390  0.00  0.00    +0.292 C 
ATOM      4  C   LIG A   1      -8.962   6.010 131.794  0.00  0.00    +0.252 C 
ATOM      5  O   LIG A   1      -9.491   4.726 132.168  0.00  0.00    -0.479 OA
ATOM      6  C   LIG A   1      -8.874   3.965 129.936  0.00  0.00    +0.105 A 
ATOM      7  C   LIG A   1      -9.279   3.733 131.251  0.00  0.00    +0.139 A 
ATOM      8  C   LIG A   1      -9.380   2.439 131.741  0.00  0.00    +0.093 A 
ATOM      9  C   LIG A   1      -8.949   1.379 130.954  0.00  0.00    +0.141 A 
ATOM     10  C   LIG A   1      -8.319   1.612 129.712  0.00  0.00    +0.034 A 
ATOM     11  C   LIG A   1      -7.683   0.467 128.967  0.00  0.00    +0.051 C 
ATOM     12  C   LIG A   1      -8.289   2.928 129.194  0.00  0.00    +0.141 A 
ENDROOT
BRANCH   4  13
ATOM     13  C   LIG A   1      -7.454   6.200 132.045  0.00  0.00    -0.003 A 
ATOM     14  C   LIG A   1      -6.703   6.883 131.072  0.00  0.00    +0.011 A 
ATOM     15  C   LIG A   1      -5.314   6.997 131.178  0.00  0.00    +0.046 A 
ATOM     16  C   LIG A   1      -4.647   6.424 132.256  0.00  0.00    +0.132 A 
ATOM     17  C   LIG A   1      -5.356   5.768 133.251  0.00  0.00    +0.046 A 
ATOM     18  C   LIG A   1      -6.754   5.679 133.151  0.00  0.00    +0.011 A 
BRANCH  16  19
ATOM     19  O   LIG A   1      -3.240   6.465 132.180  0.00  0.00    -0.426 OA
BRANCH  19  20
ATOM     20  C   LIG A   1      -2.460   5.526 131.507  0.00  0.00    +0.309 C 
ATOM     21  C   LIG A   1      -1.786   4.665 132.537  0.00  0.00    +0.136 C 
ATOM     22  O   LIG A   1      -2.317   5.417 130.299  0.00  0.00    -0.251 OA
ENDBRANCH  19  20
ENDBRANCH  16  19
ENDBRANCH   4  13
BRANCH  12  23
ATOM     23  O   LIG A   1      -7.638   3.098 127.995  0.00  0.00    -0.494 OA
ATOM     24  C   LIG A   1      -6.300   3.608 128.070  0.00  0.00    +0.277 C 
ENDBRANCH  12  23
BRANCH   3  25
ATOM     25  O   LIG A   1     -10.867   6.521 130.362  0.00  0.00    -0.449 OA
BRANCH  25  26
ATOM     26  C   LIG A   1     -11.356   7.684 129.842  0.00  0.00    +0.305 C 
ATOM     27  C   LIG A   1     -12.688   7.995 130.471  0.00  0.00    +0.136 C 
ATOM     28  O   LIG A   1     -10.833   8.342 128.970  0.00  0.00    -0.251 OA
ENDBRANCH  25  26
ENDBRANCH   3  25
BRANCH   9  29
ATOM     29  O   LIG A   1      -8.948   0.048 131.440  0.00  0.00    -0.425 OA
BRANCH  29  30
ATOM     30  C   LIG A   1      -7.991  -0.475 132.317  0.00  0.00    +0.309 C 
ATOM     31  C   LIG A   1      -7.666  -1.865 131.859  0.00  0.00    +0.136 C 
ATOM     32  O   LIG A   1      -7.466   0.087 133.262  0.00  0.00    -0.251 OA
ENDBRANCH  29  30
ENDBRANCH   9  29
TORSDOF 8
ENDMDL
MODEL 4
REMARK VINA RESULT:      -7.2      2.440      6.225
REMARK  Name = NuBBE_2007
REMARK  13 active torsions:
REMARK  status: ('A' for Active; 'I' for Inactive)
REMARK    1  A    between atoms: C_3  and  O_5
REMARK    2  A    between atoms: O_5  and  C_6
REMARK    3  A    between atoms: C_6  and  C_7
REMARK    4  A    between atoms: C_9  and  C_12
REMARK    5  A    between atoms: C_15  and  O_18
REMARK    6  A    between atoms: O_18  and  C_19
REMARK    7  A    between atoms: C_19  and  C_20
REMARK    8  A    between atoms: C_25  and  O_26
REMARK    9  A    between atoms: O_26  and  C_27
REMARK   10  A    between atoms: C_27  and  C_28
REMARK   11  A    between atoms: C_30  and  C_31
REMARK   12  A    between atoms: C_32  and  O_33
REMARK   13  A    between atoms: O_33  and  C_34
REMARK                            x       y       z     vdW  Elec       q    Type
REMARK                         _______ _______ _______ _____ _____    ______ ____
ROOT
ATOM      1  O   LIG A   1      -7.540   2.395 132.526  0.00  0.00    -0.288 OA
ATOM      2  C   LIG A   1      -7.399   3.579 132.227  0.00  0.00    +0.214 C 
ATOM      3  C   LIG A   1      -7.665   4.683 133.221  0.00  0.00    +0.292 C 
ATOM      4  C   LIG A   1      -7.601   6.052 132.533  0.00  0.00    +0.252 C 
ATOM      5  O   LIG A   1      -6.382   6.205 131.785  0.00  0.00    -0.479 OA
ATOM      6  C   LIG A   1      -6.760   3.946 130.950  0.00  0.00    +0.105 A 
ATOM      7  C   LIG A   1      -6.113   5.181 130.918  0.00  0.00    +0.139 A 
ATOM      8  C   LIG A   1      -5.215   5.482 129.904  0.00  0.00    +0.093 A 
ATOM      9  C   LIG A   1      -5.064   4.595 128.845  0.00  0.00    +0.141 A 
ATOM     10  C   LIG A   1      -5.883   3.450 128.741  0.00  0.00    +0.034 A 
ATOM     11  C   LIG A   1      -5.842   2.610 127.490  0.00  0.00    +0.051 C 
ATOM     12  C   LIG A   1      -6.740   3.119 129.817  0.00  0.00    +0.141 A 
ENDROOT
BRANCH   4  13
ATOM     13  C   LIG A   1      -8.888   6.444 131.782  0.00  0.00    -0.003 A 
ATOM     14  C   LIG A   1     -10.121   6.058 132.337  0.00  0.00    +0.011 A 
ATOM     15  C   LIG A   1     -11.322   6.282 131.659  0.00  0.00    +0.046 A 
ATOM     16  C   LIG A   1     -11.314   6.892 130.408  0.00  0.00    +0.132 A 
ATOM     17  C   LIG A   1     -10.121   7.315 129.842  0.00  0.00    +0.046 A 
ATOM     18  C   LIG A   1      -8.920   7.108 130.540  0.00  0.00    +0.011 A 
BRANCH  16  19
ATOM     19  O   LIG A   1     -12.561   6.926 129.750  0.00  0.00    -0.426 OA
BRANCH  19  20
ATOM     20  C   LIG A   1     -13.034   8.014 129.020  0.00  0.00    +0.309 C 
ATOM     21  C   LIG A   1     -13.721   7.482 127.794  0.00  0.00    +0.136 C 
ATOM     22  O   LIG A   1     -12.906   9.198 129.293  0.00  0.00    -0.251 OA
ENDBRANCH  19  20
ENDBRANCH  16  19
ENDBRANCH   4  13
BRANCH  12  23
ATOM     23  O   LIG A   1      -7.534   2.010 129.647  0.00  0.00    -0.494 OA
ATOM     24  C   LIG A   1      -8.884   2.258 129.233  0.00  0.00    +0.277 C 
ENDBRANCH  12  23
BRANCH   3  25
ATOM     25  O   LIG A   1      -6.568   4.556 134.156  0.00  0.00    -0.449 OA
BRANCH  25  26
ATOM     26  C   LIG A   1      -6.653   5.348 135.264  0.00  0.00    +0.305 C 
ATOM     27  C   LIG A   1      -5.334   6.036 135.494  0.00  0.00    +0.136 C 
ATOM     28  O   LIG A   1      -7.619   5.446 135.988  0.00  0.00    -0.251 OA
ENDBRANCH  25  26
ENDBRANCH   3  25
BRANCH   9  29
ATOM     29  O   LIG A   1      -4.228   4.896 127.741  0.00  0.00    -0.425 OA
BRANCH  29  30
ATOM     30  C   LIG A   1      -2.834   4.995 127.804  0.00  0.00    +0.309 C 
ATOM     31  C   LIG A   1      -2.262   3.732 127.237  0.00  0.00    +0.136 C 
ATOM     32  O   LIG A   1      -2.176   5.941 128.201  0.00  0.00    -0.251 OA
ENDBRANCH  29  30
ENDBRANCH   9  29
TORSDOF 8
ENDMDL
MODEL 5
REMARK VINA RESULT:      -6.9      2.301      6.429
REMARK  Name = NuBBE_2007
REMARK  13 active torsions:
REMARK  status: ('A' for Active; 'I' for Inactive)
REMARK    1  A    between atoms: C_3  and  O_5
REMARK    2  A    between atoms: O_5  and  C_6
REMARK    3  A    between atoms: C_6  and  C_7
REMARK    4  A    between atoms: C_9  and  C_12
REMARK    5  A    between atoms: C_15  and  O_18
REMARK    6  A    between atoms: O_18  and  C_19
REMARK    7  A    between atoms: C_19  and  C_20
REMARK    8  A    between atoms: C_25  and  O_26
REMARK    9  A    between atoms: O_26  and  C_27
REMARK   10  A    between atoms: C_27  and  C_28
REMARK   11  A    between atoms: C_30  and  C_31
REMARK   12  A    between atoms: C_32  and  O_33
REMARK   13  A    between atoms: O_33  and  C_34
REMARK                            x       y       z     vdW  Elec       q    Type
REMARK                         _______ _______ _______ _____ _____    ______ ____
ROOT
ATOM      1  O   LIG A   1      -8.420   2.470 133.539  0.00  0.00    -0.288 OA
ATOM      2  C   LIG A   1      -8.091   3.443 132.863  0.00  0.00    +0.214 C 
ATOM      3  C   LIG A   1      -7.899   4.807 133.480  0.00  0.00    +0.292 C 
ATOM      4  C   LIG A   1      -7.687   5.864 132.390  0.00  0.00    +0.252 C 
ATOM      5  O   LIG A   1      -6.647   5.472 131.476  0.00  0.00    -0.479 OA
ATOM      6  C   LIG A   1      -7.670   3.260 131.462  0.00  0.00    +0.105 A 
ATOM      7  C   LIG A   1      -6.793   4.217 130.952  0.00  0.00    +0.139 A 
ATOM      8  C   LIG A   1      -6.084   3.975 129.785  0.00  0.00    +0.093 A 
ATOM      9  C   LIG A   1      -6.352   2.825 129.053  0.00  0.00    +0.141 A 
ATOM     10  C   LIG A   1      -7.403   1.960 129.429  0.00  0.00    +0.034 A 
ATOM     11  C   LIG A   1      -7.806   0.829 128.517  0.00  0.00    +0.051 C 
ATOM     12  C   LIG A   1      -8.066   2.180 130.658  0.00  0.00    +0.141 A 
ENDROOT
BRANCH   4  13
ATOM     13  C   LIG A   1      -8.986   6.367 131.733  0.00  0.00    -0.003 A 
ATOM     14  C   LIG A   1     -10.203   6.096 132.383  0.00  0.00    +0.011 A 
ATOM     15  C   LIG A   1     -11.427   6.424 131.794  0.00  0.00    +0.046 A 
ATOM     16  C   LIG A   1     -11.459   7.023 130.538  0.00  0.00    +0.132 A 
ATOM     17  C   LIG A   1     -10.279   7.333 129.880  0.00  0.00    +0.046 A 
ATOM     18  C   LIG A   1      -9.053   7.024 130.488  0.00  0.00    +0.011 A 
BRANCH  16  19
ATOM     19  O   LIG A   1     -12.744   7.166 129.975  0.00  0.00    -0.426 OA
BRANCH  19  20
ATOM     20  C   LIG A   1     -13.057   8.051 128.945  0.00  0.00    +0.309 C 
ATOM     21  C   LIG A   1     -13.536   7.243 127.773  0.00  0.00    +0.136 C 
ATOM     22  O   LIG A   1     -12.947   9.268 128.960  0.00  0.00    -0.251 OA
ENDBRANCH  19  20
ENDBRANCH  16  19
ENDBRANCH   4  13
BRANCH  12  23
ATOM     23  O   LIG A   1      -9.098   1.323 130.958  0.00  0.00    -0.494 OA
ATOM     24  C   LIG A   1      -8.725   0.056 131.513  0.00  0.00    +0.277 C 
ENDBRANCH  12  23
BRANCH   3  25
ATOM     25  O   LIG A   1      -6.685   4.651 134.251  0.00  0.00    -0.449 OA
BRANCH  25  26
ATOM     26  C   LIG A   1      -6.418   5.663 135.127  0.00  0.00    +0.305 C 
ATOM     27  C   LIG A   1      -7.616   5.895 136.008  0.00  0.00    +0.136 C 
ATOM     28  O   LIG A   1      -5.399   6.316 135.162  0.00  0.00    -0.251 OA
ENDBRANCH  25  26
ENDBRANCH   3  25
BRANCH   9  29
ATOM     29  O   LIG A   1      -5.721   2.574 127.809  0.00  0.00    -0.425 OA
BRANCH  29  30
ATOM     30  C   LIG A   1      -5.722   3.460 126.726  0.00  0.00    +0.309 C 
ATOM     31  C   LIG A   1      -4.305   3.617 126.266  0.00  0.00    +0.136 C 
ATOM     32  O   LIG A   1      -6.687   3.989 126.202  0.00  0.00    -0.251 OA
ENDBRANCH  29  30
ENDBRANCH   9  29
TORSDOF 8
ENDMDL
MODEL 6
REMARK VINA RESULT:      -6.9      2.114      6.573
REMARK  Name = NuBBE_2007
REMARK  13 active torsions:
REMARK  status: ('A' for Active; 'I' for Inactive)
REMARK    1  A    between atoms: C_3  and  O_5
REMARK    2  A    between atoms: O_5  and  C_6
REMARK    3  A    between atoms: C_6  and  C_7
REMARK    4  A    between atoms: C_9  and  C_12
REMARK    5  A    between atoms: C_15  and  O_18
REMARK    6  A    between atoms: O_18  and  C_19
REMARK    7  A    between atoms: C_19  and  C_20
REMARK    8  A    between atoms: C_25  and  O_26
REMARK    9  A    between atoms: O_26  and  C_27
REMARK   10  A    between atoms: C_27  and  C_28
REMARK   11  A    between atoms: C_30  and  C_31
REMARK   12  A    between atoms: C_32  and  O_33
REMARK   13  A    between atoms: O_33  and  C_34
REMARK                            x       y       z     vdW  Elec       q    Type
REMARK                         _______ _______ _______ _____ _____    ______ ____
ROOT
ATOM      1  O   LIG A   1      -5.644   2.398 132.182  0.00  0.00    -0.288 OA
ATOM      2  C   LIG A   1      -6.701   2.909 132.544  0.00  0.00    +0.214 C 
ATOM      3  C   LIG A   1      -8.036   2.285 132.215  0.00  0.00    +0.292 C 
ATOM      4  C   LIG A   1      -9.180   3.226 132.612  0.00  0.00    +0.252 C 
ATOM      5  O   LIG A   1      -9.047   3.664 133.976  0.00  0.00    -0.479 OA
ATOM      6  C   LIG A   1      -6.688   4.039 133.492  0.00  0.00    +0.105 A 
ATOM      7  C   LIG A   1      -7.822   4.186 134.290  0.00  0.00    +0.139 A 
ATOM      8  C   LIG A   1      -7.790   4.988 135.422  0.00  0.00    +0.093 A 
ATOM      9  C   LIG A   1      -6.658   5.750 135.683  0.00  0.00    +0.141 A 
ATOM     10  C   LIG A   1      -5.590   5.794 134.760  0.00  0.00    +0.034 A 
ATOM     11  C   LIG A   1      -4.463   6.774 134.963  0.00  0.00    +0.051 C 
ATOM     12  C   LIG A   1      -5.605   4.917 133.650  0.00  0.00    +0.141 A 
ENDROOT
BRANCH   4  13
ATOM     13  C   LIG A   1      -9.471   4.339 131.588  0.00  0.00    -0.003 A 
ATOM     14  C   LIG A   1      -9.130   4.105 130.244  0.00  0.00    +0.011 A 
ATOM     15  C   LIG A   1      -9.262   5.107 129.279  0.00  0.00    +0.046 A 
ATOM     16  C   LIG A   1      -9.732   6.366 129.640  0.00  0.00    +0.132 A 
ATOM     17  C   LIG A   1     -10.108   6.625 130.950  0.00  0.00    +0.046 A 
ATOM     18  C   LIG A   1      -9.996   5.606 131.909  0.00  0.00    +0.011 A 
BRANCH  16  19
ATOM     19  O   LIG A   1      -9.678   7.341 128.623  0.00  0.00    -0.426 OA
BRANCH  19  20
ATOM     20  C   LIG A   1     -10.567   7.410 127.552  0.00  0.00    +0.309 C 
ATOM     21  C   LIG A   1     -11.671   8.356 127.930  0.00  0.00    +0.136 C 
ATOM     22  O   LIG A   1     -10.495   6.803 126.494  0.00  0.00    -0.251 OA
ENDBRANCH  19  20
ENDBRANCH  16  19
ENDBRANCH   4  13
BRANCH  12  23
ATOM     23  O   LIG A   1      -4.553   5.024 132.772  0.00  0.00    -0.494 OA
ATOM     24  C   LIG A   1      -4.784   5.825 131.606  0.00  0.00    +0.277 C 
ENDBRANCH  12  23
BRANCH   3  25
ATOM     25  O   LIG A   1      -8.062   1.105 133.052  0.00  0.00    -0.449 OA
BRANCH  25  26
ATOM     26  C   LIG A   1      -7.955  -0.082 132.386  0.00  0.00    +0.305 C 
ATOM     27  C   LIG A   1      -8.518   0.067 130.999  0.00  0.00    +0.136 C 
ATOM     28  O   LIG A   1      -7.524  -1.114 132.850  0.00  0.00    -0.251 OA
ENDBRANCH  25  26
ENDBRANCH   3  25
BRANCH   9  29
ATOM     29  O   LIG A   1      -6.608   6.652 136.774  0.00  0.00    -0.425 OA
BRANCH  29  30
ATOM     30  C   LIG A   1      -7.727   7.109 137.478  0.00  0.00    +0.309 C 
ATOM     31  C   LIG A   1      -7.715   6.454 138.826  0.00  0.00    +0.136 C 
ATOM     32  O   LIG A   1      -8.555   7.924 137.107  0.00  0.00    -0.251 OA
ENDBRANCH  29  30
ENDBRANCH   9  29
TORSDOF 8
ENDMDL
MODEL 7
REMARK VINA RESULT:      -6.9      2.366      6.523
REMARK  Name = NuBBE_2007
REMARK  13 active torsions:
REMARK  status: ('A' for Active; 'I' for Inactive)
REMARK    1  A    between atoms: C_3  and  O_5
REMARK    2  A    between atoms: O_5  and  C_6
REMARK    3  A    between atoms: C_6  and  C_7
REMARK    4  A    between atoms: C_9  and  C_12
REMARK    5  A    between atoms: C_15  and  O_18
REMARK    6  A    between atoms: O_18  and  C_19
REMARK    7  A    between atoms: C_19  and  C_20
REMARK    8  A    between atoms: C_25  and  O_26
REMARK    9  A    between atoms: O_26  and  C_27
REMARK   10  A    between atoms: C_27  and  C_28
REMARK   11  A    between atoms: C_30  and  C_31
REMARK   12  A    between atoms: C_32  and  O_33
REMARK   13  A    between atoms: O_33  and  C_34
REMARK                            x       y       z     vdW  Elec       q    Type
REMARK                         _______ _______ _______ _____ _____    ______ ____
ROOT
ATOM      1  O   LIG A   1      -7.866   0.992 128.503  0.00  0.00    -0.288 OA
ATOM      2  C   LIG A   1      -7.650   1.928 129.271  0.00  0.00    +0.214 C 
ATOM      3  C   LIG A   1      -8.361   2.043 130.598  0.00  0.00    +0.292 C 
ATOM      4  C   LIG A   1      -8.052   3.393 131.256  0.00  0.00    +0.252 C 
ATOM      5  O   LIG A   1      -6.634   3.633 131.317  0.00  0.00    -0.479 OA
ATOM      6  C   LIG A   1      -6.532   2.853 129.010  0.00  0.00    +0.105 A 
ATOM      7  C   LIG A   1      -5.979   3.481 130.126  0.00  0.00    +0.139 A 
ATOM      8  C   LIG A   1      -4.740   4.101 130.045  0.00  0.00    +0.093 A 
ATOM      9  C   LIG A   1      -4.112   4.207 128.811  0.00  0.00    +0.141 A 
ATOM     10  C   LIG A   1      -4.764   3.786 127.632  0.00  0.00    +0.034 A 
ATOM     11  C   LIG A   1      -4.154   4.089 126.287  0.00  0.00    +0.051 C 
ATOM     12  C   LIG A   1      -5.992   3.091 127.737  0.00  0.00    +0.141 A 
ENDROOT
BRANCH   4  13
ATOM     13  C   LIG A   1      -8.895   4.567 130.724  0.00  0.00    -0.003 A 
ATOM     14  C   LIG A   1      -8.335   5.856 130.765  0.00  0.00    +0.011 A 
ATOM     15  C   LIG A   1      -9.080   6.981 130.403  0.00  0.00    +0.046 A 
ATOM     16  C   LIG A   1     -10.404   6.840 129.998  0.00  0.00    +0.132 A 
ATOM     17  C   LIG A   1     -10.982   5.583 129.916  0.00  0.00    +0.046 A 
ATOM     18  C   LIG A   1     -10.220   4.455 130.257  0.00  0.00    +0.011 A 
BRANCH  16  19
ATOM     19  O   LIG A   1     -11.104   8.050 129.807  0.00  0.00    -0.426 OA
BRANCH  19  20
ATOM     20  C   LIG A   1     -11.434   8.578 128.560  0.00  0.00    +0.309 C 
ATOM     21  C   LIG A   1     -12.856   9.060 128.627  0.00  0.00    +0.136 C 
ATOM     22  O   LIG A   1     -10.722   8.631 127.570  0.00  0.00    -0.251 OA
ENDBRANCH  19  20
ENDBRANCH  16  19
ENDBRANCH   4  13
BRANCH  12  23
ATOM     23  O   LIG A   1      -6.593   2.730 126.555  0.00  0.00    -0.494 OA
ATOM     24  C   LIG A   1      -7.644   3.589 126.094  0.00  0.00    +0.277 C 
ENDBRANCH  12  23
BRANCH   3  25
ATOM     25  O   LIG A   1      -7.777   0.974 131.378  0.00  0.00    -0.449 OA
BRANCH  25  26
ATOM     26  C   LIG A   1      -8.671   0.120 131.955  0.00  0.00    +0.305 C 
ATOM     27  C   LIG A   1      -7.940  -1.073 132.510  0.00  0.00    +0.136 C 
ATOM     28  O   LIG A   1      -9.873   0.264 131.974  0.00  0.00    -0.251 OA
ENDBRANCH  25  26
ENDBRANCH   3  25
BRANCH   9  29
ATOM     29  O   LIG A   1      -2.890   4.908 128.659  0.00  0.00    -0.425 OA
BRANCH  29  30
ATOM     30  C   LIG A   1      -2.603   6.141 129.256  0.00  0.00    +0.309 C 
ATOM     31  C   LIG A   1      -3.330   7.200 128.485  0.00  0.00    +0.136 C 
ATOM     32  O   LIG A   1      -1.926   6.343 130.249  0.00  0.00    -0.251 OA
ENDBRANCH  29  30
ENDBRANCH   9  29
TORSDOF 8
ENDMDL
MODEL 8
REMARK VINA RESULT:      -6.9      2.259      6.202
REMARK  Name = NuBBE_2007
REMARK  13 active torsions:
REMARK  status: ('A' for Active; 'I' for Inactive)
REMARK    1  A    between atoms: C_3  and  O_5
REMARK    2  A    between atoms: O_5  and  C_6
REMARK    3  A    between atoms: C_6  and  C_7
REMARK    4  A    between atoms: C_9  and  C_12
REMARK    5  A    between atoms: C_15  and  O_18
REMARK    6  A    between atoms: O_18  and  C_19
REMARK    7  A    between atoms: C_19  and  C_20
REMARK    8  A    between atoms: C_25  and  O_26
REMARK    9  A    between atoms: O_26  and  C_27
REMARK   10  A    between atoms: C_27  and  C_28
REMARK   11  A    between atoms: C_30  and  C_31
REMARK   12  A    between atoms: C_32  and  O_33
REMARK   13  A    between atoms: O_33  and  C_34
REMARK                            x       y       z     vdW  Elec       q    Type
REMARK                         _______ _______ _______ _____ _____    ______ ____
ROOT
ATOM      1  O   LIG A   1      -4.987   2.147 130.458  0.00  0.00    -0.288 OA
ATOM      2  C   LIG A   1      -5.446   3.053 131.151  0.00  0.00    +0.214 C 
ATOM      3  C   LIG A   1      -6.495   2.790 132.204  0.00  0.00    +0.292 C 
ATOM      4  C   LIG A   1      -7.025   4.111 132.774  0.00  0.00    +0.252 C 
ATOM      5  O   LIG A   1      -5.950   4.964 133.204  0.00  0.00    -0.479 OA
ATOM      6  C   LIG A   1      -4.830   4.392 131.116  0.00  0.00    +0.105 A 
ATOM      7  C   LIG A   1      -4.972   5.165 132.269  0.00  0.00    +0.139 A 
ATOM      8  C   LIG A   1      -4.174   6.281 132.474  0.00  0.00    +0.093 A 
ATOM      9  C   LIG A   1      -3.320   6.701 131.461  0.00  0.00    +0.141 A 
ATOM     10  C   LIG A   1      -3.333   6.069 130.199  0.00  0.00    +0.034 A 
ATOM     11  C   LIG A   1      -2.548   6.660 129.056  0.00  0.00    +0.051 C 
ATOM     12  C   LIG A   1      -4.097   4.891 130.029  0.00  0.00    +0.141 A 
ENDROOT
BRANCH   4  13
ATOM     13  C   LIG A   1      -8.098   4.792 131.903  0.00  0.00    -0.003 A 
ATOM     14  C   LIG A   1      -8.893   3.978 131.076  0.00  0.00    +0.011 A 
ATOM     15  C   LIG A   1      -9.809   4.533 130.180  0.00  0.00    +0.046 A 
ATOM     16  C   LIG A   1      -9.945   5.915 130.087  0.00  0.00    +0.132 A 
ATOM     17  C   LIG A   1      -9.201   6.749 130.907  0.00  0.00    +0.046 A 
ATOM     18  C   LIG A   1      -8.300   6.184 131.823  0.00  0.00    +0.011 A 
BRANCH  16  19
ATOM     19  O   LIG A   1     -10.781   6.366 129.045  0.00  0.00    -0.426 OA
BRANCH  19  20
ATOM     20  C   LIG A   1     -10.323   6.970 127.875  0.00  0.00    +0.309 C 
ATOM     21  C   LIG A   1     -10.658   8.433 127.952  0.00  0.00    +0.136 C 
ATOM     22  O   LIG A   1      -9.768   6.426 126.933  0.00  0.00    -0.251 OA
ENDBRANCH  19  20
ENDBRANCH  16  19
ENDBRANCH   4  13
BRANCH  12  23
ATOM     23  O   LIG A   1      -4.094   4.336 128.771  0.00  0.00    -0.494 OA
ATOM     24  C   LIG A   1      -5.255   4.584 127.969  0.00  0.00    +0.277 C 
ENDBRANCH  12  23
BRANCH   3  25
ATOM     25  O   LIG A   1      -5.762   2.076 133.227  0.00  0.00    -0.449 OA
BRANCH  25  26
ATOM     26  C   LIG A   1      -6.417   1.011 133.775  0.00  0.00    +0.305 C 
ATOM     27  C   LIG A   1      -5.651   0.511 134.970  0.00  0.00    +0.136 C 
ATOM     28  O   LIG A   1      -7.427   0.505 133.341  0.00  0.00    -0.251 OA
ENDBRANCH  25  26
ENDBRANCH   3  25
BRANCH   9  29
ATOM     29  O   LIG A   1      -2.550   7.884 131.584  0.00  0.00    -0.425 OA
BRANCH  29  30
ATOM     30  C   LIG A   1      -1.812   8.235 132.720  0.00  0.00    +0.309 C 
ATOM     31  C   LIG A   1      -0.569   7.398 132.731  0.00  0.00    +0.136 C 
ATOM     32  O   LIG A   1      -2.082   9.092 133.544  0.00  0.00    -0.251 OA
ENDBRANCH  29  30
ENDBRANCH   9  29
TORSDOF 8
ENDMDL
MODEL 9
REMARK VINA RESULT:      -6.8      2.974      7.690
REMARK  Name = NuBBE_2007
REMARK  13 active torsions:
REMARK  status: ('A' for Active; 'I' for Inactive)
REMARK    1  A    between atoms: C_3  and  O_5
REMARK    2  A    between atoms: O_5  and  C_6
REMARK    3  A    between atoms: C_6  and  C_7
REMARK    4  A    between atoms: C_9  and  C_12
REMARK    5  A    between atoms: C_15  and  O_18
REMARK    6  A    between atoms: O_18  and  C_19
REMARK    7  A    between atoms: C_19  and  C_20
REMARK    8  A    between atoms: C_25  and  O_26
REMARK    9  A    between atoms: O_26  and  C_27
REMARK   10  A    between atoms: C_27  and  C_28
REMARK   11  A    between atoms: C_30  and  C_31
REMARK   12  A    between atoms: C_32  and  O_33
REMARK   13  A    between atoms: O_33  and  C_34
REMARK                            x       y       z     vdW  Elec       q    Type
REMARK                         _______ _______ _______ _____ _____    ______ ____
ROOT
ATOM      1  O   LIG A   1      -4.090   1.694 130.325  0.00  0.00    -0.288 OA
ATOM      2  C   LIG A   1      -4.406   2.846 130.035  0.00  0.00    +0.214 C 
ATOM      3  C   LIG A   1      -3.665   3.628 128.977  0.00  0.00    +0.292 C 
ATOM      4  C   LIG A   1      -4.137   5.087 128.960  0.00  0.00    +0.252 C 
ATOM      5  O   LIG A   1      -5.570   5.173 128.870  0.00  0.00    -0.479 OA
ATOM      6  C   LIG A   1      -5.654   3.425 130.567  0.00  0.00    +0.105 A 
ATOM      7  C   LIG A   1      -6.245   4.426 129.796  0.00  0.00    +0.139 A 
ATOM      8  C   LIG A   1      -7.561   4.803 130.018  0.00  0.00    +0.093 A 
ATOM      9  C   LIG A   1      -8.248   4.269 131.101  0.00  0.00    +0.141 A 
ATOM     10  C   LIG A   1      -7.591   3.432 132.029  0.00  0.00    +0.034 A 
ATOM     11  C   LIG A   1      -8.293   3.024 133.299  0.00  0.00    +0.051 C 
ATOM     12  C   LIG A   1      -6.274   2.999 131.751  0.00  0.00    +0.141 A 
ENDROOT
BRANCH   4  13
ATOM     13  C   LIG A   1      -3.491   5.975 130.040  0.00  0.00    -0.003 A 
ATOM     14  C   LIG A   1      -2.420   5.443 130.780  0.00  0.00    +0.011 A 
ATOM     15  C   LIG A   1      -1.857   6.147 131.848  0.00  0.00    +0.046 A 
ATOM     16  C   LIG A   1      -2.358   7.396 132.202  0.00  0.00    +0.132 A 
ATOM     17  C   LIG A   1      -3.393   7.967 131.477  0.00  0.00    +0.046 A 
ATOM     18  C   LIG A   1      -3.937   7.265 130.390  0.00  0.00    +0.011 A 
BRANCH  16  19
ATOM     19  O   LIG A   1      -1.822   7.944 133.385  0.00  0.00    -0.426 OA
BRANCH  19  20
ATOM     20  C   LIG A   1      -0.960   9.039 133.424  0.00  0.00    +0.309 C 
ATOM     21  C   LIG A   1      -1.774  10.252 133.775  0.00  0.00    +0.136 C 
ATOM     22  O   LIG A   1       0.240   9.041 133.196  0.00  0.00    -0.251 OA
ENDBRANCH  19  20
ENDBRANCH  16  19
ENDBRANCH   4  13
BRANCH  12  23
ATOM     23  O   LIG A   1      -5.676   2.209 132.703  0.00  0.00    -0.494 OA
ATOM     24  C   LIG A   1      -4.773   2.872 133.597  0.00  0.00    +0.277 C 
ENDBRANCH  12  23
BRANCH   3  25
ATOM     25  O   LIG A   1      -4.059   2.973 127.749  0.00  0.00    -0.449 OA
BRANCH  25  26
ATOM     26  C   LIG A   1      -3.393   3.386 126.631  0.00  0.00    +0.305 C 
ATOM     27  C   LIG A   1      -1.924   3.096 126.785  0.00  0.00    +0.136 C 
ATOM     28  O   LIG A   1      -3.891   3.948 125.681  0.00  0.00    -0.251 OA
ENDBRANCH  25  26
ENDBRANCH   3  25
BRANCH   9  29
ATOM     29  O   LIG A   1      -9.563   4.687 131.425  0.00  0.00    -0.425 OA
BRANCH  29  30
ATOM     30  C   LIG A   1      -9.897   5.963 131.892  0.00  0.00    +0.309 C 
ATOM     31  C   LIG A   1     -10.709   6.638 130.829  0.00  0.00    +0.136 C 
ATOM     32  O   LIG A   1      -9.629   6.449 132.977  0.00  0.00    -0.251 OA
ENDBRANCH  29  30
ENDBRANCH   9  29
TORSDOF 8
ENDMDL
