MODEL 1
REMARK VINA RESULT:      -4.9      0.000      0.000
REMARK  Name = NuBBE_2143
REMARK  12 active torsions:
REMARK  status: ('A' for Active; 'I' for Inactive)
REMARK    1  A    between atoms: O_1  and  C_2
REMARK    2  A    between atoms: C_2  and  C_3
REMARK    3  A    between atoms: C_3  and  C_4
REMARK    4  A    between atoms: C_4  and  C_5
REMARK    5  A    between atoms: C_5  and  C_6
REMARK    6  A    between atoms: C_6  and  C_7
REMARK    7  A    between atoms: C_7  and  C_8
REMARK    8  A    between atoms: C_8  and  C_9
REMARK    9  A    between atoms: C_9  and  C_10
REMARK   10  A    between atoms: C_10  and  C_11
REMARK   11  A    between atoms: C_11  and  C_12
REMARK   12  A    between atoms: C_12  and  C_13
REMARK                            x       y       z     vdW  Elec       q    Type
REMARK                         _______ _______ _______ _____ _____    ______ ____
ROOT
ATOM      1  C   LIG A   1      -8.613  -1.825 126.487  0.00  0.00    +0.000 C 
ENDROOT
BRANCH   1   2
ATOM      2  C   LIG A   1      -9.383  -3.073 126.004  0.00  0.00    +0.000 C 
BRANCH   2   3
ATOM      3  C   LIG A   1      -8.789  -3.696 124.739  0.00  0.00    +0.011 C 
BRANCH   3   4
ATOM      4  C   LIG A   1      -9.523  -3.290 123.452  0.00  0.00    +0.120 C 
BRANCH   4   5
ATOM      5  C   LIG A   1      -8.976  -1.998 122.871  0.00  0.00    +0.305 C 
ATOM      6  O   LIG A   1      -7.834  -1.801 122.520  0.00  0.00    -0.251 OA
BRANCH   5   7
ATOM      7  O   LIG A   1      -9.902  -1.013 122.806  0.00  0.00    -0.481 OA
ATOM      8  H   LIG A   1     -10.727  -1.438 123.119  0.00  0.00    +0.295 HD
ENDBRANCH   5   7
ENDBRANCH   4   5
ENDBRANCH   3   4
ENDBRANCH   2   3
ENDBRANCH   1   2
BRANCH   1   9
ATOM      9  C   LIG A   1      -7.619  -2.212 127.593  0.00  0.00    -0.000 C 
BRANCH   9  10
ATOM     10  C   LIG A   1      -6.135  -2.026 127.253  0.00  0.00    -0.000 C 
BRANCH  10  11
ATOM     11  C   LIG A   1      -5.816  -0.910 126.254  0.00  0.00    -0.000 C 
BRANCH  11  12
ATOM     12  C   LIG A   1      -5.359  -1.404 124.876  0.00  0.00    -0.000 C 
BRANCH  12  13
ATOM     13  C   LIG A   1      -5.239  -2.930 124.800  0.00  0.00    -0.000 C 
BRANCH  13  14
ATOM     14  C   LIG A   1      -4.778  -3.393 123.420  0.00  0.00    -0.003 C 
ATOM     15  C   LIG A   1      -4.241  -4.817 123.457  0.00  0.00    +0.004 C 
ENDBRANCH  13  14
ENDBRANCH  12  13
ENDBRANCH  11  12
ENDBRANCH  10  11
ENDBRANCH   9  10
ENDBRANCH   1   9
TORSDOF 11
ENDMDL
MODEL 2
REMARK VINA RESULT:      -4.8      2.135      4.427
REMARK  Name = NuBBE_2143
REMARK  12 active torsions:
REMARK  status: ('A' for Active; 'I' for Inactive)
REMARK    1  A    between atoms: O_1  and  C_2
REMARK    2  A    between atoms: C_2  and  C_3
REMARK    3  A    between atoms: C_3  and  C_4
REMARK    4  A    between atoms: C_4  and  C_5
REMARK    5  A    between atoms: C_5  and  C_6
REMARK    6  A    between atoms: C_6  and  C_7
REMARK    7  A    between atoms: C_7  and  C_8
REMARK    8  A    between atoms: C_8  and  C_9
REMARK    9  A    between atoms: C_9  and  C_10
REMARK   10  A    between atoms: C_10  and  C_11
REMARK   11  A    between atoms: C_11  and  C_12
REMARK   12  A    between atoms: C_12  and  C_13
REMARK                            x       y       z     vdW  Elec       q    Type
REMARK                         _______ _______ _______ _____ _____    ______ ____
ROOT
ATOM      1  C   LIG A   1      -6.160  -1.395 124.230  0.00  0.00    +0.000 C 
ENDROOT
BRANCH   1   2
ATOM      2  C   LIG A   1      -6.974  -0.409 123.366  0.00  0.00    +0.000 C 
BRANCH   2   3
ATOM      3  C   LIG A   1      -7.910   0.481 124.187  0.00  0.00    +0.011 C 
BRANCH   3   4
ATOM      4  C   LIG A   1      -8.757   1.435 123.331  0.00  0.00    +0.120 C 
BRANCH   4   5
ATOM      5  C   LIG A   1     -10.183   0.937 123.169  0.00  0.00    +0.305 C 
ATOM      6  O   LIG A   1     -10.586   0.201 122.295  0.00  0.00    -0.251 OA
BRANCH   5   7
ATOM      7  O   LIG A   1     -11.027   1.433 124.103  0.00  0.00    -0.481 OA
ATOM      8  H   LIG A   1     -10.439   1.702 124.839  0.00  0.00    +0.295 HD
ENDBRANCH   5   7
ENDBRANCH   4   5
ENDBRANCH   3   4
ENDBRANCH   2   3
ENDBRANCH   1   2
BRANCH   1   9
ATOM      9  C   LIG A   1      -6.304  -2.823 123.680  0.00  0.00    -0.000 C 
BRANCH   9  10
ATOM     10  C   LIG A   1      -7.277  -3.737 124.435  0.00  0.00    -0.000 C 
BRANCH  10  11
ATOM     11  C   LIG A   1      -8.762  -3.393 124.289  0.00  0.00    -0.000 C 
BRANCH  11  12
ATOM     12  C   LIG A   1      -9.448  -2.971 125.594  0.00  0.00    -0.000 C 
BRANCH  12  13
ATOM     13  C   LIG A   1      -8.466  -2.822 126.760  0.00  0.00    -0.000 C 
BRANCH  13  14
ATOM     14  C   LIG A   1      -8.792  -3.785 127.900  0.00  0.00    -0.003 C 
ATOM     15  C   LIG A   1      -8.310  -3.250 129.241  0.00  0.00    +0.004 C 
ENDBRANCH  13  14
ENDBRANCH  12  13
ENDBRANCH  11  12
ENDBRANCH  10  11
ENDBRANCH   9  10
ENDBRANCH   1   9
TORSDOF 11
ENDMDL
MODEL 3
REMARK VINA RESULT:      -4.8      5.537      6.840
REMARK  Name = NuBBE_2143
REMARK  12 active torsions:
REMARK  status: ('A' for Active; 'I' for Inactive)
REMARK    1  A    between atoms: O_1  and  C_2
REMARK    2  A    between atoms: C_2  and  C_3
REMARK    3  A    between atoms: C_3  and  C_4
REMARK    4  A    between atoms: C_4  and  C_5
REMARK    5  A    between atoms: C_5  and  C_6
REMARK    6  A    between atoms: C_6  and  C_7
REMARK    7  A    between atoms: C_7  and  C_8
REMARK    8  A    between atoms: C_8  and  C_9
REMARK    9  A    between atoms: C_9  and  C_10
REMARK   10  A    between atoms: C_10  and  C_11
REMARK   11  A    between atoms: C_11  and  C_12
REMARK   12  A    between atoms: C_12  and  C_13
REMARK                            x       y       z     vdW  Elec       q    Type
REMARK                         _______ _______ _______ _____ _____    ______ ____
ROOT
ATOM      1  C   LIG A   1      -7.878   3.290 122.087  0.00  0.00    +0.000 C 
ENDROOT
BRANCH   1   2
ATOM      2  C   LIG A   1      -6.431   3.489 122.585  0.00  0.00    +0.000 C 
BRANCH   2   3
ATOM      3  C   LIG A   1      -5.455   3.868 121.470  0.00  0.00    +0.011 C 
BRANCH   3   4
ATOM      4  C   LIG A   1      -6.142   4.178 120.131  0.00  0.00    +0.120 C 
BRANCH   4   5
ATOM      5  C   LIG A   1      -5.603   5.450 119.499  0.00  0.00    +0.305 C 
ATOM      6  O   LIG A   1      -5.863   5.858 118.388  0.00  0.00    -0.251 OA
BRANCH   5   7
ATOM      7  O   LIG A   1      -4.733   6.111 120.296  0.00  0.00    -0.481 OA
ATOM      8  H   LIG A   1      -5.294   6.743 120.791  0.00  0.00    +0.295 HD
ENDBRANCH   5   7
ENDBRANCH   4   5
ENDBRANCH   3   4
ENDBRANCH   2   3
ENDBRANCH   1   2
BRANCH   1   9
ATOM      9  C   LIG A   1      -8.587   2.222 122.933  0.00  0.00    -0.000 C 
BRANCH   9  10
ATOM     10  C   LIG A   1      -7.687   1.402 123.867  0.00  0.00    -0.000 C 
BRANCH  10  11
ATOM     11  C   LIG A   1      -7.154   0.087 123.291  0.00  0.00    -0.000 C 
BRANCH  11  12
ATOM     12  C   LIG A   1      -7.812  -1.172 123.870  0.00  0.00    -0.000 C 
BRANCH  12  13
ATOM     13  C   LIG A   1      -8.939  -1.715 122.985  0.00  0.00    -0.000 C 
BRANCH  13  14
ATOM     14  C   LIG A   1      -9.377  -3.112 123.420  0.00  0.00    -0.003 C 
ATOM     15  C   LIG A   1      -8.475  -3.667 124.512  0.00  0.00    +0.004 C 
ENDBRANCH  13  14
ENDBRANCH  12  13
ENDBRANCH  11  12
ENDBRANCH  10  11
ENDBRANCH   9  10
ENDBRANCH   1   9
TORSDOF 11
ENDMDL
MODEL 4
REMARK VINA RESULT:      -4.8      2.843      4.065
REMARK  Name = NuBBE_2143
REMARK  12 active torsions:
REMARK  status: ('A' for Active; 'I' for Inactive)
REMARK    1  A    between atoms: O_1  and  C_2
REMARK    2  A    between atoms: C_2  and  C_3
REMARK    3  A    between atoms: C_3  and  C_4
REMARK    4  A    between atoms: C_4  and  C_5
REMARK    5  A    between atoms: C_5  and  C_6
REMARK    6  A    between atoms: C_6  and  C_7
REMARK    7  A    between atoms: C_7  and  C_8
REMARK    8  A    between atoms: C_8  and  C_9
REMARK    9  A    between atoms: C_9  and  C_10
REMARK   10  A    between atoms: C_10  and  C_11
REMARK   11  A    between atoms: C_11  and  C_12
REMARK   12  A    between atoms: C_12  and  C_13
REMARK                            x       y       z     vdW  Elec       q    Type
REMARK                         _______ _______ _______ _____ _____    ______ ____
ROOT
ATOM      1  C   LIG A   1      -9.256  -1.329 122.621  0.00  0.00    +0.000 C 
ENDROOT
BRANCH   1   2
ATOM      2  C   LIG A   1      -9.061  -0.276 123.732  0.00  0.00    +0.000 C 
BRANCH   2   3
ATOM      3  C   LIG A   1      -8.110   0.854 123.333  0.00  0.00    +0.011 C 
BRANCH   3   4
ATOM      4  C   LIG A   1      -7.712   1.764 124.504  0.00  0.00    +0.120 C 
BRANCH   4   5
ATOM      5  C   LIG A   1      -8.349   3.139 124.395  0.00  0.00    +0.305 C 
ATOM      6  O   LIG A   1      -8.997   3.695 125.255  0.00  0.00    -0.251 OA
BRANCH   5   7
ATOM      7  O   LIG A   1      -8.163   3.715 123.185  0.00  0.00    -0.481 OA
ATOM      8  H   LIG A   1      -8.033   2.959 122.577  0.00  0.00    +0.295 HD
ENDBRANCH   5   7
ENDBRANCH   4   5
ENDBRANCH   3   4
ENDBRANCH   2   3
ENDBRANCH   1   2
BRANCH   1   9
ATOM      9  C   LIG A   1      -9.412  -2.727 123.239  0.00  0.00    -0.000 C 
BRANCH   9  10
ATOM     10  C   LIG A   1      -8.915  -2.880 124.682  0.00  0.00    -0.000 C 
BRANCH  10  11
ATOM     11  C   LIG A   1      -7.630  -3.695 124.860  0.00  0.00    -0.000 C 
BRANCH  11  12
ATOM     12  C   LIG A   1      -6.343  -2.861 124.854  0.00  0.00    -0.000 C 
BRANCH  12  13
ATOM     13  C   LIG A   1      -5.722  -2.737 123.459  0.00  0.00    -0.000 C 
BRANCH  13  14
ATOM     14  C   LIG A   1      -4.328  -3.359 123.404  0.00  0.00    -0.003 C 
ATOM     15  C   LIG A   1      -4.386  -4.875 123.521  0.00  0.00    +0.004 C 
ENDBRANCH  13  14
ENDBRANCH  12  13
ENDBRANCH  11  12
ENDBRANCH  10  11
ENDBRANCH   9  10
ENDBRANCH   1   9
TORSDOF 11
ENDMDL
MODEL 5
REMARK VINA RESULT:      -4.8      3.841      5.409
REMARK  Name = NuBBE_2143
REMARK  12 active torsions:
REMARK  status: ('A' for Active; 'I' for Inactive)
REMARK    1  A    between atoms: O_1  and  C_2
REMARK    2  A    between atoms: C_2  and  C_3
REMARK    3  A    between atoms: C_3  and  C_4
REMARK    4  A    between atoms: C_4  and  C_5
REMARK    5  A    between atoms: C_5  and  C_6
REMARK    6  A    between atoms: C_6  and  C_7
REMARK    7  A    between atoms: C_7  and  C_8
REMARK    8  A    between atoms: C_8  and  C_9
REMARK    9  A    between atoms: C_9  and  C_10
REMARK   10  A    between atoms: C_10  and  C_11
REMARK   11  A    between atoms: C_11  and  C_12
REMARK   12  A    between atoms: C_12  and  C_13
REMARK                            x       y       z     vdW  Elec       q    Type
REMARK                         _______ _______ _______ _____ _____    ______ ____
ROOT
ATOM      1  C   LIG A   1      -8.263  -3.099 129.132  0.00  0.00    +0.000 C 
ENDROOT
BRANCH   1   2
ATOM      2  C   LIG A   1      -6.934  -3.697 129.638  0.00  0.00    +0.000 C 
BRANCH   2   3
ATOM      3  C   LIG A   1      -5.792  -2.678 129.681  0.00  0.00    +0.011 C 
BRANCH   3   4
ATOM      4  C   LIG A   1      -4.662  -2.981 128.686  0.00  0.00    +0.120 C 
BRANCH   4   5
ATOM      5  C   LIG A   1      -3.413  -3.491 129.384  0.00  0.00    +0.305 C 
ATOM      6  O   LIG A   1      -3.096  -3.266 130.531  0.00  0.00    -0.251 OA
BRANCH   5   7
ATOM      7  O   LIG A   1      -2.616  -4.226 128.575  0.00  0.00    -0.481 OA
ATOM      8  H   LIG A   1      -2.912  -5.148 128.719  0.00  0.00    +0.295 HD
ENDBRANCH   5   7
ENDBRANCH   4   5
ENDBRANCH   3   4
ENDBRANCH   2   3
ENDBRANCH   1   2
BRANCH   1   9
ATOM      9  C   LIG A   1      -8.793  -3.920 127.946  0.00  0.00    -0.000 C 
BRANCH   9  10
ATOM     10  C   LIG A   1      -9.025  -3.143 126.644  0.00  0.00    -0.000 C 
BRANCH  10  11
ATOM     11  C   LIG A   1      -8.167  -3.574 125.450  0.00  0.00    -0.000 C 
BRANCH  11  12
ATOM     12  C   LIG A   1      -7.040  -2.597 125.093  0.00  0.00    -0.000 C 
BRANCH  12  13
ATOM     13  C   LIG A   1      -6.225  -3.049 123.877  0.00  0.00    -0.000 C 
BRANCH  13  14
ATOM     14  C   LIG A   1      -4.828  -3.521 124.276  0.00  0.00    -0.003 C 
ATOM     15  C   LIG A   1      -4.434  -4.792 123.539  0.00  0.00    +0.004 C 
ENDBRANCH  13  14
ENDBRANCH  12  13
ENDBRANCH  11  12
ENDBRANCH  10  11
ENDBRANCH   9  10
ENDBRANCH   1   9
TORSDOF 11
ENDMDL
MODEL 6
REMARK VINA RESULT:      -4.7      2.149      3.150
REMARK  Name = NuBBE_2143
REMARK  12 active torsions:
REMARK  status: ('A' for Active; 'I' for Inactive)
REMARK    1  A    between atoms: O_1  and  C_2
REMARK    2  A    between atoms: C_2  and  C_3
REMARK    3  A    between atoms: C_3  and  C_4
REMARK    4  A    between atoms: C_4  and  C_5
REMARK    5  A    between atoms: C_5  and  C_6
REMARK    6  A    between atoms: C_6  and  C_7
REMARK    7  A    between atoms: C_7  and  C_8
REMARK    8  A    between atoms: C_8  and  C_9
REMARK    9  A    between atoms: C_9  and  C_10
REMARK   10  A    between atoms: C_10  and  C_11
REMARK   11  A    between atoms: C_11  and  C_12
REMARK   12  A    between atoms: C_12  and  C_13
REMARK                            x       y       z     vdW  Elec       q    Type
REMARK                         _______ _______ _______ _____ _____    ______ ____
ROOT
ATOM      1  C   LIG A   1      -8.374  -0.501 126.324  0.00  0.00    +0.000 C 
ENDROOT
BRANCH   1   2
ATOM      2  C   LIG A   1      -7.552   0.405 125.383  0.00  0.00    +0.000 C 
BRANCH   2   3
ATOM      3  C   LIG A   1      -8.204   0.605 124.014  0.00  0.00    +0.011 C 
BRANCH   3   4
ATOM      4  C   LIG A   1      -9.380   1.593 124.031  0.00  0.00    +0.120 C 
BRANCH   4   5
ATOM      5  C   LIG A   1     -10.607   1.026 123.339  0.00  0.00    +0.305 C 
ATOM      6  O   LIG A   1     -10.611   0.359 122.327  0.00  0.00    -0.251 OA
BRANCH   5   7
ATOM      7  O   LIG A   1     -11.766   1.371 123.946  0.00  0.00    -0.481 OA
ATOM      8  H   LIG A   1     -11.797   0.804 124.744  0.00  0.00    +0.295 HD
ENDBRANCH   5   7
ENDBRANCH   4   5
ENDBRANCH   3   4
ENDBRANCH   2   3
ENDBRANCH   1   2
BRANCH   1   9
ATOM      9  C   LIG A   1      -9.026  -1.639 125.523  0.00  0.00    -0.000 C 
BRANCH   9  10
ATOM     10  C   LIG A   1      -8.523  -3.053 125.839  0.00  0.00    -0.000 C 
BRANCH  10  11
ATOM     11  C   LIG A   1      -7.841  -3.790 124.682  0.00  0.00    -0.000 C 
BRANCH  11  12
ATOM     12  C   LIG A   1      -7.502  -2.903 123.477  0.00  0.00    -0.000 C 
BRANCH  12  13
ATOM     13  C   LIG A   1      -6.020  -2.519 123.419  0.00  0.00    -0.000 C 
BRANCH  13  14
ATOM     14  C   LIG A   1      -5.167  -3.420 124.311  0.00  0.00    -0.003 C 
ATOM     15  C   LIG A   1      -4.337  -4.395 123.490  0.00  0.00    +0.004 C 
ENDBRANCH  13  14
ENDBRANCH  12  13
ENDBRANCH  11  12
ENDBRANCH  10  11
ENDBRANCH   9  10
ENDBRANCH   1   9
TORSDOF 11
ENDMDL
MODEL 7
REMARK VINA RESULT:      -4.7      3.674      5.043
REMARK  Name = NuBBE_2143
REMARK  12 active torsions:
REMARK  status: ('A' for Active; 'I' for Inactive)
REMARK    1  A    between atoms: O_1  and  C_2
REMARK    2  A    between atoms: C_2  and  C_3
REMARK    3  A    between atoms: C_3  and  C_4
REMARK    4  A    between atoms: C_4  and  C_5
REMARK    5  A    between atoms: C_5  and  C_6
REMARK    6  A    between atoms: C_6  and  C_7
REMARK    7  A    between atoms: C_7  and  C_8
REMARK    8  A    between atoms: C_8  and  C_9
REMARK    9  A    between atoms: C_9  and  C_10
REMARK   10  A    between atoms: C_10  and  C_11
REMARK   11  A    between atoms: C_11  and  C_12
REMARK   12  A    between atoms: C_12  and  C_13
REMARK                            x       y       z     vdW  Elec       q    Type
REMARK                         _______ _______ _______ _____ _____    ______ ____
ROOT
ATOM      1  C   LIG A   1      -9.263  -3.286 126.234  0.00  0.00    +0.000 C 
ENDROOT
BRANCH   1   2
ATOM      2  C   LIG A   1      -8.164  -3.038 127.289  0.00  0.00    +0.000 C 
BRANCH   2   3
ATOM      3  C   LIG A   1      -8.565  -3.489 128.696  0.00  0.00    +0.011 C 
BRANCH   3   4
ATOM      4  C   LIG A   1      -7.895  -2.678 129.815  0.00  0.00    +0.120 C 
BRANCH   4   5
ATOM      5  C   LIG A   1      -6.865  -3.500 130.571  0.00  0.00    +0.305 C 
ATOM      6  O   LIG A   1      -6.131  -4.336 130.094  0.00  0.00    -0.251 OA
BRANCH   5   7
ATOM      7  O   LIG A   1      -6.854  -3.242 131.900  0.00  0.00    -0.481 OA
ATOM      8  H   LIG A   1      -6.315  -3.966 132.280  0.00  0.00    +0.295 HD
ENDBRANCH   5   7
ENDBRANCH   4   5
ENDBRANCH   3   4
ENDBRANCH   2   3
ENDBRANCH   1   2
BRANCH   1   9
ATOM      9  C   LIG A   1      -9.098  -2.308 125.060  0.00  0.00    -0.000 C 
BRANCH   9  10
ATOM     10  C   LIG A   1      -9.057  -2.941 123.663  0.00  0.00    -0.000 C 
BRANCH  10  11
ATOM     11  C   LIG A   1      -8.186  -2.217 122.631  0.00  0.00    -0.000 C 
BRANCH  11  12
ATOM     12  C   LIG A   1      -6.878  -1.647 123.192  0.00  0.00    -0.000 C 
BRANCH  12  13
ATOM     13  C   LIG A   1      -5.667  -2.538 122.898  0.00  0.00    -0.000 C 
BRANCH  13  14
ATOM     14  C   LIG A   1      -5.370  -3.490 124.056  0.00  0.00    -0.003 C 
ATOM     15  C   LIG A   1      -4.391  -4.581 123.648  0.00  0.00    +0.004 C 
ENDBRANCH  13  14
ENDBRANCH  12  13
ENDBRANCH  11  12
ENDBRANCH  10  11
ENDBRANCH   9  10
ENDBRANCH   1   9
TORSDOF 11
ENDMDL
MODEL 8
REMARK VINA RESULT:      -4.7      1.704      2.693
REMARK  Name = NuBBE_2143
REMARK  12 active torsions:
REMARK  status: ('A' for Active; 'I' for Inactive)
REMARK    1  A    between atoms: O_1  and  C_2
REMARK    2  A    between atoms: C_2  and  C_3
REMARK    3  A    between atoms: C_3  and  C_4
REMARK    4  A    between atoms: C_4  and  C_5
REMARK    5  A    between atoms: C_5  and  C_6
REMARK    6  A    between atoms: C_6  and  C_7
REMARK    7  A    between atoms: C_7  and  C_8
REMARK    8  A    between atoms: C_8  and  C_9
REMARK    9  A    between atoms: C_9  and  C_10
REMARK   10  A    between atoms: C_10  and  C_11
REMARK   11  A    between atoms: C_11  and  C_12
REMARK   12  A    between atoms: C_12  and  C_13
REMARK                            x       y       z     vdW  Elec       q    Type
REMARK                         _______ _______ _______ _____ _____    ______ ____
ROOT
ATOM      1  C   LIG A   1      -8.942  -2.934 126.385  0.00  0.00    +0.000 C 
ENDROOT
BRANCH   1   2
ATOM      2  C   LIG A   1      -8.464  -3.666 125.113  0.00  0.00    +0.000 C 
BRANCH   2   3
ATOM      3  C   LIG A   1      -9.269  -3.296 123.865  0.00  0.00    +0.011 C 
BRANCH   3   4
ATOM      4  C   LIG A   1      -8.546  -2.307 122.939  0.00  0.00    +0.120 C 
BRANCH   4   5
ATOM      5  C   LIG A   1      -9.049  -0.886 123.124  0.00  0.00    +0.305 C 
ATOM      6  O   LIG A   1      -8.497  -0.010 123.752  0.00  0.00    -0.251 OA
BRANCH   5   7
ATOM      7  O   LIG A   1     -10.247  -0.667 122.534  0.00  0.00    -0.481 OA
ATOM      8  H   LIG A   1     -10.314  -1.371 121.857  0.00  0.00    +0.295 HD
ENDBRANCH   5   7
ENDBRANCH   4   5
ENDBRANCH   3   4
ENDBRANCH   2   3
ENDBRANCH   1   2
BRANCH   1   9
ATOM      9  C   LIG A   1      -8.975  -3.908 127.573  0.00  0.00    -0.000 C 
BRANCH   9  10
ATOM     10  C   LIG A   1      -8.471  -3.349 128.910  0.00  0.00    -0.000 C 
BRANCH  10  11
ATOM     11  C   LIG A   1      -7.545  -2.133 128.816  0.00  0.00    -0.000 C 
BRANCH  11  12
ATOM     12  C   LIG A   1      -6.053  -2.459 128.956  0.00  0.00    -0.000 C 
BRANCH  12  13
ATOM     13  C   LIG A   1      -5.287  -2.321 127.636  0.00  0.00    -0.000 C 
BRANCH  13  14
ATOM     14  C   LIG A   1      -5.737  -1.092 126.848  0.00  0.00    -0.003 C 
ATOM     15  C   LIG A   1      -5.598  -1.306 125.348  0.00  0.00    +0.004 C 
ENDBRANCH  13  14
ENDBRANCH  12  13
ENDBRANCH  11  12
ENDBRANCH  10  11
ENDBRANCH   9  10
ENDBRANCH   1   9
TORSDOF 11
ENDMDL
MODEL 9
REMARK VINA RESULT:      -4.7      7.217      8.158
REMARK  Name = NuBBE_2143
REMARK  12 active torsions:
REMARK  status: ('A' for Active; 'I' for Inactive)
REMARK    1  A    between atoms: O_1  and  C_2
REMARK    2  A    between atoms: C_2  and  C_3
REMARK    3  A    between atoms: C_3  and  C_4
REMARK    4  A    between atoms: C_4  and  C_5
REMARK    5  A    between atoms: C_5  and  C_6
REMARK    6  A    between atoms: C_6  and  C_7
REMARK    7  A    between atoms: C_7  and  C_8
REMARK    8  A    between atoms: C_8  and  C_9
REMARK    9  A    between atoms: C_9  and  C_10
REMARK   10  A    between atoms: C_10  and  C_11
REMARK   11  A    between atoms: C_11  and  C_12
REMARK   12  A    between atoms: C_12  and  C_13
REMARK                            x       y       z     vdW  Elec       q    Type
REMARK                         _______ _______ _______ _____ _____    ______ ____
ROOT
ATOM      1  C   LIG A   1      -5.396   4.223 123.589  0.00  0.00    +0.000 C 
ENDROOT
BRANCH   1   2
ATOM      2  C   LIG A   1      -6.082   3.475 122.426  0.00  0.00    +0.000 C 
BRANCH   2   3
ATOM      3  C   LIG A   1      -5.363   3.653 121.086  0.00  0.00    +0.011 C 
BRANCH   3   4
ATOM      4  C   LIG A   1      -6.249   4.264 119.991  0.00  0.00    +0.120 C 
BRANCH   4   5
ATOM      5  C   LIG A   1      -5.629   5.515 119.392  0.00  0.00    +0.305 C 
ATOM      6  O   LIG A   1      -5.818   5.939 118.273  0.00  0.00    -0.251 OA
BRANCH   5   7
ATOM      7  O   LIG A   1      -4.771   6.136 120.234  0.00  0.00    -0.481 OA
ATOM      8  H   LIG A   1      -5.287   6.253 121.058  0.00  0.00    +0.295 HD
ENDBRANCH   5   7
ENDBRANCH   4   5
ENDBRANCH   3   4
ENDBRANCH   2   3
ENDBRANCH   1   2
BRANCH   1   9
ATOM      9  C   LIG A   1      -6.020   3.803 124.928  0.00  0.00    -0.000 C 
BRANCH   9  10
ATOM     10  C   LIG A   1      -5.903   4.821 126.070  0.00  0.00    -0.000 C 
BRANCH  10  11
ATOM     11  C   LIG A   1      -4.960   4.433 127.213  0.00  0.00    -0.000 C 
BRANCH  11  12
ATOM     12  C   LIG A   1      -3.913   5.498 127.562  0.00  0.00    -0.000 C 
BRANCH  12  13
ATOM     13  C   LIG A   1      -2.526   4.904 127.826  0.00  0.00    -0.000 C 
BRANCH  13  14
ATOM     14  C   LIG A   1      -2.505   3.394 127.602  0.00  0.00    -0.003 C 
ATOM     15  C   LIG A   1      -1.583   3.011 126.454  0.00  0.00    +0.004 C 
ENDBRANCH  13  14
ENDBRANCH  12  13
ENDBRANCH  11  12
ENDBRANCH  10  11
ENDBRANCH   9  10
ENDBRANCH   1   9
TORSDOF 11
ENDMDL
