MODEL 1
REMARK VINA RESULT:      -6.4      0.000      0.000
REMARK  Name = NuBBE_1239
REMARK  5 active torsions:
REMARK  status: ('A' for Active; 'I' for Inactive)
REMARK    1  A    between atoms: C_3  and  C_4
REMARK    2  A    between atoms: C_4  and  O_5
REMARK    3  A    between atoms: O_5  and  C_6
REMARK    4  A    between atoms: C_11  and  O_12
REMARK    5  A    between atoms: O_12  and  C_13
REMARK                            x       y       z     vdW  Elec       q    Type
REMARK                         _______ _______ _______ _____ _____    ______ ____
ROOT
ATOM      1  O   LIG A   1      -9.389  -3.686 124.815  0.00  0.00    -0.286 OA
ATOM      2  C   LIG A   1      -8.819  -2.692 125.255  0.00  0.00    +0.204 A 
ATOM      3  C   LIG A   1      -8.398  -1.552 124.389  0.00  0.00    +0.130 A 
ATOM      4  C   LIG A   1      -7.647  -0.590 124.960  0.00  0.00    +0.071 A 
ATOM      5  N   LIG A   1      -7.285  -0.600 126.298  0.00  0.00    -0.273 N 
ATOM      6  C   LIG A   1      -6.508   0.518 126.613  0.00  0.00    +0.298 C 
ATOM      7  C   LIG A   1      -6.388   1.291 125.341  0.00  0.00    +0.187 C 
ATOM      8  C   LIG A   1      -7.071   0.606 124.404  0.00  0.00    +0.078 C 
ATOM      9  O   LIG A   1      -5.987   0.852 127.669  0.00  0.00    -0.263 OA
ATOM     10  C   LIG A   1      -7.703  -1.607 127.199  0.00  0.00    +0.061 A 
ATOM     11  C   LIG A   1      -7.378  -1.611 128.559  0.00  0.00    +0.027 A 
ATOM     12  C   LIG A   1      -7.857  -2.623 129.399  0.00  0.00    +0.002 A 
ATOM     13  C   LIG A   1      -8.661  -3.640 128.893  0.00  0.00    +0.001 A 
ATOM     14  C   LIG A   1      -8.978  -3.654 127.539  0.00  0.00    +0.014 A 
ATOM     15  C   LIG A   1      -8.496  -2.642 126.698  0.00  0.00    +0.046 A 
ENDROOT
BRANCH   3  16
ATOM     16  C   LIG A   1      -8.778  -1.493 122.953  0.00  0.00    +0.345 C 
ATOM     17  O   LIG A   1      -8.052  -1.810 122.027  0.00  0.00    -0.245 OA
BRANCH  16  18
ATOM     18  O   LIG A   1     -10.034  -0.999 122.827  0.00  0.00    -0.464 OA
ATOM     19  C   LIG A   1     -10.137   0.361 122.412  0.00  0.00    +0.280 C 
ENDBRANCH  16  18
ENDBRANCH   3  16
BRANCH   7  20
ATOM     20  O   LIG A   1      -5.680   2.453 125.274  0.00  0.00    -0.490 OA
ATOM     21  C   LIG A   1      -6.054   3.346 124.236  0.00  0.00    +0.277 C 
ENDBRANCH   7  20
TORSDOF 3
ENDMDL
MODEL 2
REMARK VINA RESULT:      -6.4      2.955      6.304
REMARK  Name = NuBBE_1239
REMARK  5 active torsions:
REMARK  status: ('A' for Active; 'I' for Inactive)
REMARK    1  A    between atoms: C_3  and  C_4
REMARK    2  A    between atoms: C_4  and  O_5
REMARK    3  A    between atoms: O_5  and  C_6
REMARK    4  A    between atoms: C_11  and  O_12
REMARK    5  A    between atoms: O_12  and  C_13
REMARK                            x       y       z     vdW  Elec       q    Type
REMARK                         _______ _______ _______ _____ _____    ______ ____
ROOT
ATOM      1  O   LIG A   1      -9.276   2.692 121.340  0.00  0.00    -0.286 OA
ATOM      2  C   LIG A   1      -8.365   2.757 122.161  0.00  0.00    +0.204 A 
ATOM      3  C   LIG A   1      -8.471   2.176 123.532  0.00  0.00    +0.130 A 
ATOM      4  C   LIG A   1      -7.469   2.442 124.391  0.00  0.00    +0.071 A 
ATOM      5  N   LIG A   1      -6.351   3.190 124.051  0.00  0.00    -0.273 N 
ATOM      6  C   LIG A   1      -5.479   3.304 125.137  0.00  0.00    +0.298 C 
ATOM      7  C   LIG A   1      -6.125   2.546 126.249  0.00  0.00    +0.187 C 
ATOM      8  C   LIG A   1      -7.283   2.058 125.766  0.00  0.00    +0.078 C 
ATOM      9  O   LIG A   1      -4.412   3.894 125.239  0.00  0.00    -0.263 OA
ATOM     10  C   LIG A   1      -6.145   3.713 122.755  0.00  0.00    +0.061 A 
ATOM     11  C   LIG A   1      -5.006   4.437 122.386  0.00  0.00    +0.027 A 
ATOM     12  C   LIG A   1      -4.853   4.896 121.072  0.00  0.00    +0.002 A 
ATOM     13  C   LIG A   1      -5.831   4.640 120.115  0.00  0.00    +0.001 A 
ATOM     14  C   LIG A   1      -6.975   3.935 120.475  0.00  0.00    +0.014 A 
ATOM     15  C   LIG A   1      -7.129   3.479 121.791  0.00  0.00    +0.046 A 
ENDROOT
BRANCH   3  16
ATOM     16  C   LIG A   1      -9.644   1.355 123.933  0.00  0.00    +0.345 C 
ATOM     17  O   LIG A   1     -10.517   1.717 124.702  0.00  0.00    -0.245 OA
BRANCH  16  18
ATOM     18  O   LIG A   1      -9.575   0.134 123.350  0.00  0.00    -0.464 OA
ATOM     19  C   LIG A   1      -8.891  -0.878 124.085  0.00  0.00    +0.280 C 
ENDBRANCH  16  18
ENDBRANCH   3  16
BRANCH   7  20
ATOM     20  O   LIG A   1      -5.548   2.452 127.480  0.00  0.00    -0.490 OA
ATOM     21  C   LIG A   1      -6.305   1.766 128.467  0.00  0.00    +0.277 C 
ENDBRANCH   7  20
TORSDOF 3
ENDMDL
MODEL 3
REMARK VINA RESULT:      -6.2      2.404      3.582
REMARK  Name = NuBBE_1239
REMARK  5 active torsions:
REMARK  status: ('A' for Active; 'I' for Inactive)
REMARK    1  A    between atoms: C_3  and  C_4
REMARK    2  A    between atoms: C_4  and  O_5
REMARK    3  A    between atoms: O_5  and  C_6
REMARK    4  A    between atoms: C_11  and  O_12
REMARK    5  A    between atoms: O_12  and  C_13
REMARK                            x       y       z     vdW  Elec       q    Type
REMARK                         _______ _______ _______ _____ _____    ______ ____
ROOT
ATOM      1  O   LIG A   1      -9.767   0.323 122.457  0.00  0.00    -0.286 OA
ATOM      2  C   LIG A   1      -8.917   0.181 123.332  0.00  0.00    +0.204 A 
ATOM      3  C   LIG A   1      -8.137   1.322 123.894  0.00  0.00    +0.130 A 
ATOM      4  C   LIG A   1      -7.130   1.024 124.736  0.00  0.00    +0.071 A 
ATOM      5  N   LIG A   1      -6.815  -0.272 125.119  0.00  0.00    -0.273 N 
ATOM      6  C   LIG A   1      -5.728  -0.282 125.996  0.00  0.00    +0.298 C 
ATOM      7  C   LIG A   1      -5.344   1.150 126.172  0.00  0.00    +0.187 C 
ATOM      8  C   LIG A   1      -6.192   1.876 125.418  0.00  0.00    +0.078 C 
ATOM      9  O   LIG A   1      -5.148  -1.217 126.531  0.00  0.00    -0.263 OA
ATOM     10  C   LIG A   1      -7.550  -1.399 124.686  0.00  0.00    +0.061 A 
ATOM     11  C   LIG A   1      -7.269  -2.707 125.092  0.00  0.00    +0.027 A 
ATOM     12  C   LIG A   1      -8.062  -3.773 124.650  0.00  0.00    +0.002 A 
ATOM     13  C   LIG A   1      -9.140  -3.546 123.799  0.00  0.00    +0.001 A 
ATOM     14  C   LIG A   1      -9.419  -2.251 123.375  0.00  0.00    +0.014 A 
ATOM     15  C   LIG A   1      -8.623  -1.185 123.816  0.00  0.00    +0.046 A 
ENDROOT
BRANCH   3  16
ATOM     16  C   LIG A   1      -8.453   2.727 123.523  0.00  0.00    +0.345 C 
ATOM     17  O   LIG A   1      -8.904   3.564 124.286  0.00  0.00    -0.245 OA
BRANCH  16  18
ATOM     18  O   LIG A   1      -8.203   2.925 122.206  0.00  0.00    -0.464 OA
ATOM     19  C   LIG A   1      -6.917   3.447 121.879  0.00  0.00    +0.280 C 
ENDBRANCH  16  18
ENDBRANCH   3  16
BRANCH   7  20
ATOM     20  O   LIG A   1      -4.300   1.519 126.966  0.00  0.00    -0.490 OA
ATOM     21  C   LIG A   1      -3.636   2.719 126.598  0.00  0.00    +0.277 C 
ENDBRANCH   7  20
TORSDOF 3
ENDMDL
MODEL 4
REMARK VINA RESULT:      -6.1      2.572      7.057
REMARK  Name = NuBBE_1239
REMARK  5 active torsions:
REMARK  status: ('A' for Active; 'I' for Inactive)
REMARK    1  A    between atoms: C_3  and  C_4
REMARK    2  A    between atoms: C_4  and  O_5
REMARK    3  A    between atoms: O_5  and  C_6
REMARK    4  A    between atoms: C_11  and  O_12
REMARK    5  A    between atoms: O_12  and  C_13
REMARK                            x       y       z     vdW  Elec       q    Type
REMARK                         _______ _______ _______ _____ _____    ______ ____
ROOT
ATOM      1  O   LIG A   1      -5.782   5.136 126.004  0.00  0.00    -0.286 OA
ATOM      2  C   LIG A   1      -6.427   4.187 125.565  0.00  0.00    +0.204 A 
ATOM      3  C   LIG A   1      -7.345   3.373 126.413  0.00  0.00    +0.130 A 
ATOM      4  C   LIG A   1      -7.879   2.269 125.857  0.00  0.00    +0.071 A 
ATOM      5  N   LIG A   1      -7.641   1.885 124.546  0.00  0.00    -0.273 N 
ATOM      6  C   LIG A   1      -8.322   0.703 124.242  0.00  0.00    +0.298 C 
ATOM      7  C   LIG A   1      -9.054   0.332 125.489  0.00  0.00    +0.187 C 
ATOM      8  C   LIG A   1      -8.767   1.276 126.404  0.00  0.00    +0.078 C 
ATOM      9  O   LIG A   1      -8.350   0.046 123.210  0.00  0.00    -0.263 OA
ATOM     10  C   LIG A   1      -6.842   2.640 123.659  0.00  0.00    +0.061 A 
ATOM     11  C   LIG A   1      -6.623   2.286 122.324  0.00  0.00    +0.027 A 
ATOM     12  C   LIG A   1      -5.846   3.102 121.492  0.00  0.00    +0.002 A 
ATOM     13  C   LIG A   1      -5.280   4.276 121.983  0.00  0.00    +0.001 A 
ATOM     14  C   LIG A   1      -5.478   4.629 123.313  0.00  0.00    +0.014 A 
ATOM     15  C   LIG A   1      -6.253   3.810 124.145  0.00  0.00    +0.046 A 
ENDROOT
BRANCH   3  16
ATOM     16  C   LIG A   1      -7.640   3.758 127.819  0.00  0.00    +0.345 C 
ATOM     17  O   LIG A   1      -8.585   4.445 128.168  0.00  0.00    -0.245 OA
BRANCH  16  18
ATOM     18  O   LIG A   1      -6.683   3.269 128.644  0.00  0.00    -0.464 OA
ATOM     19  C   LIG A   1      -5.985   4.226 129.438  0.00  0.00    +0.280 C 
ENDBRANCH  16  18
ENDBRANCH   3  16
BRANCH   7  20
ATOM     20  O   LIG A   1      -9.826  -0.788 125.559  0.00  0.00    -0.490 OA
ATOM     21  C   LIG A   1      -9.146  -1.989 125.896  0.00  0.00    +0.277 C 
ENDBRANCH   7  20
TORSDOF 3
ENDMDL
MODEL 5
REMARK VINA RESULT:      -6.1      1.956      4.470
REMARK  Name = NuBBE_1239
REMARK  5 active torsions:
REMARK  status: ('A' for Active; 'I' for Inactive)
REMARK    1  A    between atoms: C_3  and  C_4
REMARK    2  A    between atoms: C_4  and  O_5
REMARK    3  A    between atoms: O_5  and  C_6
REMARK    4  A    between atoms: C_11  and  O_12
REMARK    5  A    between atoms: O_12  and  C_13
REMARK                            x       y       z     vdW  Elec       q    Type
REMARK                         _______ _______ _______ _____ _____    ______ ____
ROOT
ATOM      1  O   LIG A   1      -8.478   1.078 122.921  0.00  0.00    -0.286 OA
ATOM      2  C   LIG A   1      -8.435   0.607 124.054  0.00  0.00    +0.204 A 
ATOM      3  C   LIG A   1      -8.123   1.429 125.259  0.00  0.00    +0.130 A 
ATOM      4  C   LIG A   1      -7.954   0.774 126.423  0.00  0.00    +0.071 A 
ATOM      5  N   LIG A   1      -8.088  -0.600 126.551  0.00  0.00    -0.273 N 
ATOM      6  C   LIG A   1      -7.857  -1.003 127.869  0.00  0.00    +0.298 C 
ATOM      7  C   LIG A   1      -7.559   0.250 128.623  0.00  0.00    +0.187 C 
ATOM      8  C   LIG A   1      -7.629   1.263 127.738  0.00  0.00    +0.078 C 
ATOM      9  O   LIG A   1      -7.862  -2.119 128.370  0.00  0.00    -0.263 OA
ATOM     10  C   LIG A   1      -8.450  -1.439 125.473  0.00  0.00    +0.061 A 
ATOM     11  C   LIG A   1      -8.626  -2.821 125.593  0.00  0.00    +0.027 A 
ATOM     12  C   LIG A   1      -9.020  -3.585 124.488  0.00  0.00    +0.002 A 
ATOM     13  C   LIG A   1      -9.241  -2.980 123.254  0.00  0.00    +0.001 A 
ATOM     14  C   LIG A   1      -9.055  -1.609 123.119  0.00  0.00    +0.014 A 
ATOM     15  C   LIG A   1      -8.657  -0.845 124.225  0.00  0.00    +0.046 A 
ENDROOT
BRANCH   3  16
ATOM     16  C   LIG A   1      -7.987   2.907 125.170  0.00  0.00    +0.345 C 
ATOM     17  O   LIG A   1      -8.917   3.695 125.209  0.00  0.00    -0.245 OA
BRANCH  16  18
ATOM     18  O   LIG A   1      -6.686   3.243 124.997  0.00  0.00    -0.464 OA
ATOM     19  C   LIG A   1      -6.341   3.796 123.728  0.00  0.00    +0.280 C 
ENDBRANCH  16  18
ENDBRANCH   3  16
BRANCH   7  20
ATOM     20  O   LIG A   1      -7.272   0.233 129.955  0.00  0.00    -0.490 OA
ATOM     21  C   LIG A   1      -8.369   0.467 130.827  0.00  0.00    +0.277 C 
ENDBRANCH   7  20
TORSDOF 3
ENDMDL
MODEL 6
REMARK VINA RESULT:      -6.1      2.658      5.648
REMARK  Name = NuBBE_1239
REMARK  5 active torsions:
REMARK  status: ('A' for Active; 'I' for Inactive)
REMARK    1  A    between atoms: C_3  and  C_4
REMARK    2  A    between atoms: C_4  and  O_5
REMARK    3  A    between atoms: O_5  and  C_6
REMARK    4  A    between atoms: C_11  and  O_12
REMARK    5  A    between atoms: O_12  and  C_13
REMARK                            x       y       z     vdW  Elec       q    Type
REMARK                         _______ _______ _______ _____ _____    ______ ____
ROOT
ATOM      1  O   LIG A   1      -5.693   4.932 123.796  0.00  0.00    -0.286 OA
ATOM      2  C   LIG A   1      -5.872   3.770 124.152  0.00  0.00    +0.204 A 
ATOM      3  C   LIG A   1      -6.769   2.830 123.418  0.00  0.00    +0.130 A 
ATOM      4  C   LIG A   1      -7.003   1.632 123.988  0.00  0.00    +0.071 A 
ATOM      5  N   LIG A   1      -6.431   1.234 125.187  0.00  0.00    -0.273 N 
ATOM      6  C   LIG A   1      -6.851  -0.052 125.537  0.00  0.00    +0.298 C 
ATOM      7  C   LIG A   1      -7.767  -0.485 124.440  0.00  0.00    +0.187 C 
ATOM      8  C   LIG A   1      -7.823   0.530 123.557  0.00  0.00    +0.078 C 
ATOM      9  O   LIG A   1      -6.587  -0.734 126.518  0.00  0.00    -0.263 OA
ATOM     10  C   LIG A   1      -5.517   2.038 125.905  0.00  0.00    +0.061 A 
ATOM     11  C   LIG A   1      -4.902   1.636 127.095  0.00  0.00    +0.027 A 
ATOM     12  C   LIG A   1      -3.979   2.472 127.734  0.00  0.00    +0.002 A 
ATOM     13  C   LIG A   1      -3.662   3.716 127.196  0.00  0.00    +0.001 A 
ATOM     14  C   LIG A   1      -4.278   4.133 126.021  0.00  0.00    +0.014 A 
ATOM     15  C   LIG A   1      -5.204   3.296 125.384  0.00  0.00    +0.046 A 
ENDROOT
BRANCH   3  16
ATOM     16  C   LIG A   1      -7.390   3.210 122.122  0.00  0.00    +0.345 C 
ATOM     17  O   LIG A   1      -8.560   3.518 121.974  0.00  0.00    -0.245 OA
BRANCH  16  18
ATOM     18  O   LIG A   1      -6.474   3.125 121.127  0.00  0.00    -0.464 OA
ATOM     19  C   LIG A   1      -6.418   4.227 120.224  0.00  0.00    +0.280 C 
ENDBRANCH  16  18
ENDBRANCH   3  16
BRANCH   7  20
ATOM     20  O   LIG A   1      -8.378  -1.702 124.456  0.00  0.00    -0.490 OA
ATOM     21  C   LIG A   1      -7.693  -2.747 123.782  0.00  0.00    +0.277 C 
ENDBRANCH   7  20
TORSDOF 3
ENDMDL
MODEL 7
REMARK VINA RESULT:      -6.1      2.114      5.427
REMARK  Name = NuBBE_1239
REMARK  5 active torsions:
REMARK  status: ('A' for Active; 'I' for Inactive)
REMARK    1  A    between atoms: C_3  and  C_4
REMARK    2  A    between atoms: C_4  and  O_5
REMARK    3  A    between atoms: O_5  and  C_6
REMARK    4  A    between atoms: C_11  and  O_12
REMARK    5  A    between atoms: O_12  and  C_13
REMARK                            x       y       z     vdW  Elec       q    Type
REMARK                         _______ _______ _______ _____ _____    ______ ____
ROOT
ATOM      1  O   LIG A   1      -7.921   1.284 124.730  0.00  0.00    -0.286 OA
ATOM      2  C   LIG A   1      -8.100   0.321 125.471  0.00  0.00    +0.204 A 
ATOM      3  C   LIG A   1      -7.825   0.368 126.937  0.00  0.00    +0.130 A 
ATOM      4  C   LIG A   1      -7.914  -0.790 127.617  0.00  0.00    +0.071 A 
ATOM      5  N   LIG A   1      -8.276  -1.993 127.030  0.00  0.00    -0.273 N 
ATOM      6  C   LIG A   1      -8.286  -3.025 127.971  0.00  0.00    +0.298 C 
ATOM      7  C   LIG A   1      -7.898  -2.389 129.265  0.00  0.00    +0.187 C 
ATOM      8  C   LIG A   1      -7.693  -1.083 129.009  0.00  0.00    +0.078 C 
ATOM      9  O   LIG A   1      -8.530  -4.217 127.841  0.00  0.00    -0.263 OA
ATOM     10  C   LIG A   1      -8.621  -2.106 125.663  0.00  0.00    +0.061 A 
ATOM     11  C   LIG A   1      -9.024  -3.304 125.064  0.00  0.00    +0.027 A 
ATOM     12  C   LIG A   1      -9.384  -3.333 123.711  0.00  0.00    +0.002 A 
ATOM     13  C   LIG A   1      -9.344  -2.173 122.944  0.00  0.00    +0.001 A 
ATOM     14  C   LIG A   1      -8.930  -0.979 123.525  0.00  0.00    +0.014 A 
ATOM     15  C   LIG A   1      -8.567  -0.951 124.879  0.00  0.00    +0.046 A 
ENDROOT
BRANCH   3  16
ATOM     16  C   LIG A   1      -7.450   1.640 127.610  0.00  0.00    +0.345 C 
ATOM     17  O   LIG A   1      -6.307   2.003 127.825  0.00  0.00    -0.245 OA
BRANCH  16  18
ATOM     18  O   LIG A   1      -8.566   2.312 127.985  0.00  0.00    -0.464 OA
ATOM     19  C   LIG A   1      -8.415   3.236 129.060  0.00  0.00    +0.280 C 
ENDBRANCH  16  18
ENDBRANCH   3  16
BRANCH   7  20
ATOM     20  O   LIG A   1      -7.794  -3.111 130.415  0.00  0.00    -0.490 OA
ATOM     21  C   LIG A   1      -6.484  -3.530 130.766  0.00  0.00    +0.277 C 
ENDBRANCH   7  20
TORSDOF 3
ENDMDL
MODEL 8
REMARK VINA RESULT:      -6.0      1.907      4.638
REMARK  Name = NuBBE_1239
REMARK  5 active torsions:
REMARK  status: ('A' for Active; 'I' for Inactive)
REMARK    1  A    between atoms: C_3  and  C_4
REMARK    2  A    between atoms: C_4  and  O_5
REMARK    3  A    between atoms: O_5  and  C_6
REMARK    4  A    between atoms: C_11  and  O_12
REMARK    5  A    between atoms: O_12  and  C_13
REMARK                            x       y       z     vdW  Elec       q    Type
REMARK                         _______ _______ _______ _____ _____    ______ ____
ROOT
ATOM      1  O   LIG A   1      -9.128  -3.852 127.364  0.00  0.00    -0.286 OA
ATOM      2  C   LIG A   1      -8.539  -2.864 126.933  0.00  0.00    +0.204 A 
ATOM      3  C   LIG A   1      -7.745  -1.952 127.808  0.00  0.00    +0.130 A 
ATOM      4  C   LIG A   1      -7.272  -0.822 127.250  0.00  0.00    +0.071 A 
ATOM      5  N   LIG A   1      -7.461  -0.494 125.916  0.00  0.00    -0.273 N 
ATOM      6  C   LIG A   1      -6.863   0.733 125.614  0.00  0.00    +0.298 C 
ATOM      7  C   LIG A   1      -6.243   1.198 126.890  0.00  0.00    +0.187 C 
ATOM      8  C   LIG A   1      -6.506   0.257 127.816  0.00  0.00    +0.078 C 
ATOM      9  O   LIG A   1      -6.828   1.362 124.566  0.00  0.00    -0.263 OA
ATOM     10  C   LIG A   1      -8.139  -1.338 125.007  0.00  0.00    +0.061 A 
ATOM     11  C   LIG A   1      -8.304  -1.040 123.651  0.00  0.00    +0.027 A 
ATOM     12  C   LIG A   1      -8.958  -1.941 122.801  0.00  0.00    +0.002 A 
ATOM     13  C   LIG A   1      -9.453  -3.145 123.295  0.00  0.00    +0.001 A 
ATOM     14  C   LIG A   1      -9.308  -3.445 124.645  0.00  0.00    +0.014 A 
ATOM     15  C   LIG A   1      -8.657  -2.541 125.495  0.00  0.00    +0.046 A 
ENDROOT
BRANCH   3  16
ATOM     16  C   LIG A   1      -7.506  -2.273 129.240  0.00  0.00    +0.345 C 
ATOM     17  O   LIG A   1      -8.118  -1.787 130.175  0.00  0.00    -0.245 OA
BRANCH  16  18
ATOM     18  O   LIG A   1      -6.481  -3.153 129.352  0.00  0.00    -0.464 OA
ATOM     19  C   LIG A   1      -6.318  -3.773 130.626  0.00  0.00    +0.280 C 
ENDBRANCH  16  18
ENDBRANCH   3  16
BRANCH   7  20
ATOM     20  O   LIG A   1      -5.573   2.381 126.970  0.00  0.00    -0.490 OA
ATOM     21  C   LIG A   1      -4.191   2.333 126.646  0.00  0.00    +0.277 C 
ENDBRANCH   7  20
TORSDOF 3
ENDMDL
MODEL 9
REMARK VINA RESULT:      -6.0      7.130      9.391
REMARK  Name = NuBBE_1239
REMARK  5 active torsions:
REMARK  status: ('A' for Active; 'I' for Inactive)
REMARK    1  A    between atoms: C_3  and  C_4
REMARK    2  A    between atoms: C_4  and  O_5
REMARK    3  A    between atoms: O_5  and  C_6
REMARK    4  A    between atoms: C_11  and  O_12
REMARK    5  A    between atoms: O_12  and  C_13
REMARK                            x       y       z     vdW  Elec       q    Type
REMARK                         _______ _______ _______ _____ _____    ______ ____
ROOT
ATOM      1  O   LIG A   1      -9.389   5.916 126.535  0.00  0.00    -0.286 OA
ATOM      2  C   LIG A   1      -9.500   5.994 127.755  0.00  0.00    +0.204 A 
ATOM      3  C   LIG A   1      -8.717   5.137 128.693  0.00  0.00    +0.130 A 
ATOM      4  C   LIG A   1      -9.035   5.206 130.000  0.00  0.00    +0.071 A 
ATOM      5  N   LIG A   1     -10.017   6.047 130.502  0.00  0.00    -0.273 N 
ATOM      6  C   LIG A   1     -10.132   5.909 131.887  0.00  0.00    +0.298 C 
ATOM      7  C   LIG A   1      -9.114   4.886 132.272  0.00  0.00    +0.187 C 
ATOM      8  C   LIG A   1      -8.497   4.507 131.137  0.00  0.00    +0.078 C 
ATOM      9  O   LIG A   1     -10.887   6.455 132.680  0.00  0.00    -0.263 OA
ATOM     10  C   LIG A   1     -10.753   6.939 129.688  0.00  0.00    +0.061 A 
ATOM     11  C   LIG A   1     -11.720   7.819 130.184  0.00  0.00    +0.027 A 
ATOM     12  C   LIG A   1     -12.385   8.700 129.322  0.00  0.00    +0.002 A 
ATOM     13  C   LIG A   1     -12.095   8.710 127.961  0.00  0.00    +0.001 A 
ATOM     14  C   LIG A   1     -11.147   7.828 127.454  0.00  0.00    +0.014 A 
ATOM     15  C   LIG A   1     -10.484   6.945 128.317  0.00  0.00    +0.046 A 
ENDROOT
BRANCH   3  16
ATOM     16  C   LIG A   1      -7.644   4.234 128.199  0.00  0.00    +0.345 C 
ATOM     17  O   LIG A   1      -7.816   3.084 127.834  0.00  0.00    -0.245 OA
BRANCH  16  18
ATOM     18  O   LIG A   1      -6.446   4.865 128.255  0.00  0.00    -0.464 OA
ATOM     19  C   LIG A   1      -5.391   4.283 127.492  0.00  0.00    +0.280 C 
ENDBRANCH  16  18
ENDBRANCH   3  16
BRANCH   7  20
ATOM     20  O   LIG A   1      -8.950   4.490 133.565  0.00  0.00    -0.490 OA
ATOM     21  C   LIG A   1      -7.946   5.175 134.299  0.00  0.00    +0.277 C 
ENDBRANCH   7  20
TORSDOF 3
ENDMDL
