MODEL 1
REMARK VINA RESULT:      -7.5      0.000      0.000
REMARK  Name = NuBBE_1770
REMARK  6 active torsions:
REMARK  status: ('A' for Active; 'I' for Inactive)
REMARK    1  A    between atoms: C_1  and  C_3
REMARK    2  A    between atoms: C_1  and  C_15
REMARK    3  A    between atoms: C_10  and  O_14
REMARK    4  A    between atoms: C_11  and  O_13
REMARK    5  A    between atoms: C_16  and  O_17
REMARK    6  A    between atoms: C_19  and  O_22
REMARK                            x       y       z     vdW  Elec       q    Type
REMARK                         _______ _______ _______ _____ _____    ______ ____
ROOT
ATOM      1  C   LIG A   1      -5.997   6.486 131.740  0.00  0.00    +0.169 C 
ATOM      2  C   LIG A   1      -6.903   6.786 130.795  0.00  0.00    +0.058 C 
ATOM      3  C   LIG A   1      -8.327   6.660 131.090  0.00  0.00    -0.011 A 
ATOM      4  C   LIG A   1      -8.699   6.015 132.280  0.00  0.00    +0.001 A 
ATOM      5  C   LIG A   1      -7.615   5.406 133.127  0.00  0.00    +0.265 C 
ATOM      6  O   LIG A   1      -6.327   6.021 132.999  0.00  0.00    -0.483 OA
ATOM      7  C   LIG A   1     -10.054   5.885 132.620  0.00  0.00    +0.056 A 
ATOM      8  C   LIG A   1     -11.017   6.418 131.771  0.00  0.00    +0.159 A 
ATOM      9  C   LIG A   1     -10.641   7.056 130.591  0.00  0.00    +0.159 A 
ATOM     10  C   LIG A   1      -9.304   7.178 130.238  0.00  0.00    +0.057 A 
ENDROOT
BRANCH   1  11
ATOM     11  C   LIG A   1      -4.557   6.776 131.433  0.00  0.00    +0.231 C 
ATOM     12  O   LIG A   1      -3.861   7.486 132.161  0.00  0.00    -0.283 OA
BRANCH  11  13
ATOM     13  C   LIG A   1      -3.915   6.130 130.259  0.00  0.00    +0.067 A 
ATOM     14  C   LIG A   1      -3.674   6.890 129.104  0.00  0.00    +0.131 A 
ATOM     15  C   LIG A   1      -3.035   6.329 128.000  0.00  0.00    +0.091 A 
ATOM     16  C   LIG A   1      -2.665   4.989 128.038  0.00  0.00    +0.120 A 
ATOM     17  C   LIG A   1      -2.941   4.204 129.152  0.00  0.00    +0.046 A 
ATOM     18  C   LIG A   1      -3.572   4.771 130.263  0.00  0.00    +0.019 A 
BRANCH  14  19
ATOM     19  O   LIG A   1      -4.041   8.206 128.988  0.00  0.00    -0.506 OA
ATOM     20  H   LIG A   1      -4.008   8.443 128.035  0.00  0.00    +0.292 HD
ENDBRANCH  14  19
BRANCH  16  21
ATOM     21  O   LIG A   1      -2.031   4.396 126.987  0.00  0.00    -0.507 OA
ATOM     22  H   LIG A   1      -1.653   3.553 127.290  0.00  0.00    +0.292 HD
ENDBRANCH  16  21
ENDBRANCH  11  13
ENDBRANCH   1  11
BRANCH   9  23
ATOM     23  O   LIG A   1     -11.597   7.577 129.766  0.00  0.00    -0.503 OA
ATOM     24  H   LIG A   1     -11.834   8.434 130.175  0.00  0.00    +0.292 HD
ENDBRANCH   9  23
BRANCH   8  25
ATOM     25  O   LIG A   1     -12.352   6.336 132.051  0.00  0.00    -0.503 OA
ATOM     26  H   LIG A   1     -12.594   7.088 132.617  0.00  0.00    +0.292 HD
ENDBRANCH   8  25
TORSDOF 6
ENDMDL
MODEL 2
REMARK VINA RESULT:      -7.5      2.616      7.165
REMARK  Name = NuBBE_1770
REMARK  6 active torsions:
REMARK  status: ('A' for Active; 'I' for Inactive)
REMARK    1  A    between atoms: C_1  and  C_3
REMARK    2  A    between atoms: C_1  and  C_15
REMARK    3  A    between atoms: C_10  and  O_14
REMARK    4  A    between atoms: C_11  and  O_13
REMARK    5  A    between atoms: C_16  and  O_17
REMARK    6  A    between atoms: C_19  and  O_22
REMARK                            x       y       z     vdW  Elec       q    Type
REMARK                         _______ _______ _______ _____ _____    ______ ____
ROOT
ATOM      1  C   LIG A   1      -9.677   5.664 131.177  0.00  0.00    +0.169 C 
ATOM      2  C   LIG A   1      -8.630   6.393 130.755  0.00  0.00    +0.058 C 
ATOM      3  C   LIG A   1      -7.380   6.369 131.509  0.00  0.00    -0.011 A 
ATOM      4  C   LIG A   1      -7.385   5.759 132.774  0.00  0.00    +0.001 A 
ATOM      5  C   LIG A   1      -8.695   5.259 133.317  0.00  0.00    +0.265 C 
ATOM      6  O   LIG A   1      -9.665   4.895 132.326  0.00  0.00    -0.483 OA
ATOM      7  C   LIG A   1      -6.206   5.693 133.531  0.00  0.00    +0.056 A 
ATOM      8  C   LIG A   1      -5.034   6.223 133.003  0.00  0.00    +0.159 A 
ATOM      9  C   LIG A   1      -5.036   6.827 131.747  0.00  0.00    +0.159 A 
ATOM     10  C   LIG A   1      -6.201   6.911 130.996  0.00  0.00    +0.057 A 
ENDROOT
BRANCH   1  11
ATOM     11  C   LIG A   1     -10.883   5.608 130.285  0.00  0.00    +0.231 C 
ATOM     12  O   LIG A   1     -11.391   4.542 129.934  0.00  0.00    -0.283 OA
BRANCH  11  13
ATOM     13  C   LIG A   1     -11.543   6.872 129.868  0.00  0.00    +0.067 A 
ATOM     14  C   LIG A   1     -11.387   7.324 128.549  0.00  0.00    +0.131 A 
ATOM     15  C   LIG A   1     -12.026   8.483 128.109  0.00  0.00    +0.091 A 
ATOM     16  C   LIG A   1     -12.800   9.212 129.006  0.00  0.00    +0.120 A 
ATOM     17  C   LIG A   1     -12.926   8.810 130.332  0.00  0.00    +0.046 A 
ATOM     18  C   LIG A   1     -12.293   7.642 130.767  0.00  0.00    +0.019 A 
BRANCH  14  19
ATOM     19  O   LIG A   1     -10.613   6.672 127.624  0.00  0.00    -0.506 OA
ATOM     20  H   LIG A   1     -11.019   5.791 127.461  0.00  0.00    +0.292 HD
ENDBRANCH  14  19
BRANCH  16  21
ATOM     21  O   LIG A   1     -13.451  10.347 128.624  0.00  0.00    -0.507 OA
ATOM     22  H   LIG A   1     -13.851  10.195 127.751  0.00  0.00    +0.292 HD
ENDBRANCH  16  21
ENDBRANCH  11  13
ENDBRANCH   1  11
BRANCH   9  23
ATOM     23  O   LIG A   1      -3.878   7.342 131.239  0.00  0.00    -0.503 OA
ATOM     24  H   LIG A   1      -3.324   6.559 131.046  0.00  0.00    +0.292 HD
ENDBRANCH   9  23
BRANCH   8  25
ATOM     25  O   LIG A   1      -3.850   6.178 133.683  0.00  0.00    -0.503 OA
ATOM     26  H   LIG A   1      -3.919   5.502 134.378  0.00  0.00    +0.292 HD
ENDBRANCH   8  25
TORSDOF 6
ENDMDL
MODEL 3
REMARK VINA RESULT:      -7.5      8.693     10.937
REMARK  Name = NuBBE_1770
REMARK  6 active torsions:
REMARK  status: ('A' for Active; 'I' for Inactive)
REMARK    1  A    between atoms: C_1  and  C_3
REMARK    2  A    between atoms: C_1  and  C_15
REMARK    3  A    between atoms: C_10  and  O_14
REMARK    4  A    between atoms: C_11  and  O_13
REMARK    5  A    between atoms: C_16  and  O_17
REMARK    6  A    between atoms: C_19  and  O_22
REMARK                            x       y       z     vdW  Elec       q    Type
REMARK                         _______ _______ _______ _____ _____    ______ ____
ROOT
ATOM      1  C   LIG A   1      -8.060   2.161 123.632  0.00  0.00    +0.169 C 
ATOM      2  C   LIG A   1      -8.502   2.706 122.486  0.00  0.00    +0.058 C 
ATOM      3  C   LIG A   1      -7.577   3.445 121.631  0.00  0.00    -0.011 A 
ATOM      4  C   LIG A   1      -6.307   3.751 122.144  0.00  0.00    +0.001 A 
ATOM      5  C   LIG A   1      -6.012   3.390 123.574  0.00  0.00    +0.265 C 
ATOM      6  O   LIG A   1      -6.761   2.281 124.088  0.00  0.00    -0.483 OA
ATOM      7  C   LIG A   1      -5.375   4.442 121.356  0.00  0.00    +0.056 A 
ATOM      8  C   LIG A   1      -5.721   4.801 120.059  0.00  0.00    +0.159 A 
ATOM      9  C   LIG A   1      -6.984   4.495 119.556  0.00  0.00    +0.159 A 
ATOM     10  C   LIG A   1      -7.920   3.824 120.332  0.00  0.00    +0.057 A 
ENDROOT
BRANCH   1  11
ATOM     11  C   LIG A   1      -9.014   1.289 124.395  0.00  0.00    +0.231 C 
ATOM     12  O   LIG A   1     -10.057   1.729 124.884  0.00  0.00    -0.283 OA
BRANCH  11  13
ATOM     13  C   LIG A   1      -8.744  -0.167 124.507  0.00  0.00    +0.067 A 
ATOM     14  C   LIG A   1      -9.284  -1.040 123.549  0.00  0.00    +0.131 A 
ATOM     15  C   LIG A   1      -9.017  -2.407 123.597  0.00  0.00    +0.091 A 
ATOM     16  C   LIG A   1      -8.231  -2.909 124.628  0.00  0.00    +0.120 A 
ATOM     17  C   LIG A   1      -7.729  -2.069 125.617  0.00  0.00    +0.046 A 
ATOM     18  C   LIG A   1      -7.989  -0.697 125.561  0.00  0.00    +0.019 A 
BRANCH  14  19
ATOM     19  O   LIG A   1     -10.092  -0.616 122.526  0.00  0.00    -0.506 OA
ATOM     20  H   LIG A   1      -9.740  -0.995 121.689  0.00  0.00    +0.292 HD
ENDBRANCH  14  19
BRANCH  16  21
ATOM     21  O   LIG A   1      -7.934  -4.237 124.715  0.00  0.00    -0.507 OA
ATOM     22  H   LIG A   1      -8.023  -4.632 123.832  0.00  0.00    +0.292 HD
ENDBRANCH  16  21
ENDBRANCH  11  13
ENDBRANCH   1  11
BRANCH   9  23
ATOM     23  O   LIG A   1      -7.312   4.852 118.279  0.00  0.00    -0.503 OA
ATOM     24  H   LIG A   1      -6.769   4.266 117.713  0.00  0.00    +0.292 HD
ENDBRANCH   9  23
BRANCH   8  25
ATOM     25  O   LIG A   1      -4.855   5.463 119.236  0.00  0.00    -0.503 OA
ATOM     26  H   LIG A   1      -4.155   4.845 118.965  0.00  0.00    +0.292 HD
ENDBRANCH   8  25
TORSDOF 6
ENDMDL
MODEL 4
REMARK VINA RESULT:      -7.0      8.566     10.417
REMARK  Name = NuBBE_1770
REMARK  6 active torsions:
REMARK  status: ('A' for Active; 'I' for Inactive)
REMARK    1  A    between atoms: C_1  and  C_3
REMARK    2  A    between atoms: C_1  and  C_15
REMARK    3  A    between atoms: C_10  and  O_14
REMARK    4  A    between atoms: C_11  and  O_13
REMARK    5  A    between atoms: C_16  and  O_17
REMARK    6  A    between atoms: C_19  and  O_22
REMARK                            x       y       z     vdW  Elec       q    Type
REMARK                         _______ _______ _______ _____ _____    ______ ____
ROOT
ATOM      1  C   LIG A   1      -7.792   1.752 124.064  0.00  0.00    +0.169 C 
ATOM      2  C   LIG A   1      -6.803   0.843 124.053  0.00  0.00    +0.058 C 
ATOM      3  C   LIG A   1      -7.111  -0.565 124.282  0.00  0.00    -0.011 A 
ATOM      4  C   LIG A   1      -8.402  -0.894 124.727  0.00  0.00    +0.001 A 
ATOM      5  C   LIG A   1      -9.354   0.228 125.038  0.00  0.00    +0.265 C 
ATOM      6  O   LIG A   1      -9.116   1.444 124.316  0.00  0.00    -0.483 OA
ATOM      7  C   LIG A   1      -8.754  -2.234 124.943  0.00  0.00    +0.056 A 
ATOM      8  C   LIG A   1      -7.815  -3.228 124.694  0.00  0.00    +0.159 A 
ATOM      9  C   LIG A   1      -6.536  -2.895 124.252  0.00  0.00    +0.159 A 
ATOM     10  C   LIG A   1      -6.172  -1.571 124.048  0.00  0.00    +0.057 A 
ENDROOT
BRANCH   1  11
ATOM     11  C   LIG A   1      -7.442   3.159 123.677  0.00  0.00    +0.231 C 
ATOM     12  O   LIG A   1      -7.100   4.003 124.508  0.00  0.00    -0.283 OA
BRANCH  11  13
ATOM     13  C   LIG A   1      -7.428   3.540 122.242  0.00  0.00    +0.067 A 
ATOM     14  C   LIG A   1      -6.225   3.967 121.657  0.00  0.00    +0.131 A 
ATOM     15  C   LIG A   1      -6.164   4.291 120.302  0.00  0.00    +0.091 A 
ATOM     16  C   LIG A   1      -7.321   4.220 119.535  0.00  0.00    +0.120 A 
ATOM     17  C   LIG A   1      -8.535   3.849 120.106  0.00  0.00    +0.046 A 
ATOM     18  C   LIG A   1      -8.591   3.515 121.461  0.00  0.00    +0.019 A 
BRANCH  14  19
ATOM     19  O   LIG A   1      -5.056   4.091 122.362  0.00  0.00    -0.506 OA
ATOM     20  H   LIG A   1      -5.178   3.637 123.226  0.00  0.00    +0.292 HD
ENDBRANCH  14  19
BRANCH  16  21
ATOM     21  O   LIG A   1      -7.313   4.519 118.205  0.00  0.00    -0.507 OA
ATOM     22  H   LIG A   1      -8.228   4.677 117.918  0.00  0.00    +0.292 HD
ENDBRANCH  16  21
ENDBRANCH  11  13
ENDBRANCH   1  11
BRANCH   9  23
ATOM     23  O   LIG A   1      -5.623  -3.882 124.008  0.00  0.00    -0.503 OA
ATOM     24  H   LIG A   1      -5.490  -4.313 124.876  0.00  0.00    +0.292 HD
ENDBRANCH   9  23
BRANCH   8  25
ATOM     25  O   LIG A   1      -8.100  -4.553 124.871  0.00  0.00    -0.503 OA
ATOM     26  H   LIG A   1      -7.622  -4.868 125.658  0.00  0.00    +0.292 HD
ENDBRANCH   8  25
TORSDOF 6
ENDMDL
MODEL 5
REMARK VINA RESULT:      -7.0      3.051      7.220
REMARK  Name = NuBBE_1770
REMARK  6 active torsions:
REMARK  status: ('A' for Active; 'I' for Inactive)
REMARK    1  A    between atoms: C_1  and  C_3
REMARK    2  A    between atoms: C_1  and  C_15
REMARK    3  A    between atoms: C_10  and  O_14
REMARK    4  A    between atoms: C_11  and  O_13
REMARK    5  A    between atoms: C_16  and  O_17
REMARK    6  A    between atoms: C_19  and  O_22
REMARK                            x       y       z     vdW  Elec       q    Type
REMARK                         _______ _______ _______ _____ _____    ______ ____
ROOT
ATOM      1  C   LIG A   1      -8.957   5.569 130.899  0.00  0.00    +0.169 C 
ATOM      2  C   LIG A   1      -8.954   5.262 132.208  0.00  0.00    +0.058 C 
ATOM      3  C   LIG A   1      -7.754   5.496 133.004  0.00  0.00    -0.011 A 
ATOM      4  C   LIG A   1      -6.569   5.827 132.328  0.00  0.00    +0.001 A 
ATOM      5  C   LIG A   1      -6.583   5.820 130.824  0.00  0.00    +0.265 C 
ATOM      6  O   LIG A   1      -7.861   6.075 130.227  0.00  0.00    -0.483 OA
ATOM      7  C   LIG A   1      -5.392   6.080 133.048  0.00  0.00    +0.056 A 
ATOM      8  C   LIG A   1      -5.422   6.017 134.436  0.00  0.00    +0.159 A 
ATOM      9  C   LIG A   1      -6.602   5.688 135.101  0.00  0.00    +0.159 A 
ATOM     10  C   LIG A   1      -7.769   5.421 134.398  0.00  0.00    +0.057 A 
ENDROOT
BRANCH   1  11
ATOM     11  C   LIG A   1     -10.261   5.448 130.165  0.00  0.00    +0.231 C 
ATOM     12  O   LIG A   1     -10.768   4.355 129.905  0.00  0.00    -0.283 OA
BRANCH  11  13
ATOM     13  C   LIG A   1     -11.011   6.676 129.801  0.00  0.00    +0.067 A 
ATOM     14  C   LIG A   1     -12.069   7.102 130.619  0.00  0.00    +0.131 A 
ATOM     15  C   LIG A   1     -12.768   8.273 130.334  0.00  0.00    +0.091 A 
ATOM     16  C   LIG A   1     -12.429   9.007 129.202  0.00  0.00    +0.120 A 
ATOM     17  C   LIG A   1     -11.418   8.576 128.349  0.00  0.00    +0.046 A 
ATOM     18  C   LIG A   1     -10.711   7.407 128.643  0.00  0.00    +0.019 A 
BRANCH  14  19
ATOM     19  O   LIG A   1     -12.476   6.409 131.731  0.00  0.00    -0.506 OA
ATOM     20  H   LIG A   1     -13.412   6.142 131.591  0.00  0.00    +0.292 HD
ENDBRANCH  14  19
BRANCH  16  21
ATOM     21  O   LIG A   1     -13.076  10.163 128.883  0.00  0.00    -0.507 OA
ATOM     22  H   LIG A   1     -12.437  10.774 128.478  0.00  0.00    +0.292 HD
ENDBRANCH  16  21
ENDBRANCH  11  13
ENDBRANCH   1  11
BRANCH   9  23
ATOM     23  O   LIG A   1      -6.619   5.631 136.465  0.00  0.00    -0.503 OA
ATOM     24  H   LIG A   1      -7.473   6.037 136.717  0.00  0.00    +0.292 HD
ENDBRANCH   9  23
BRANCH   8  25
ATOM     25  O   LIG A   1      -4.314   6.266 135.195  0.00  0.00    -0.503 OA
ATOM     26  H   LIG A   1      -3.931   7.114 134.912  0.00  0.00    +0.292 HD
ENDBRANCH   8  25
TORSDOF 6
ENDMDL
MODEL 6
REMARK VINA RESULT:      -7.0      6.034      8.703
REMARK  Name = NuBBE_1770
REMARK  6 active torsions:
REMARK  status: ('A' for Active; 'I' for Inactive)
REMARK    1  A    between atoms: C_1  and  C_3
REMARK    2  A    between atoms: C_1  and  C_15
REMARK    3  A    between atoms: C_10  and  O_14
REMARK    4  A    between atoms: C_11  and  O_13
REMARK    5  A    between atoms: C_16  and  O_17
REMARK    6  A    between atoms: C_19  and  O_22
REMARK                            x       y       z     vdW  Elec       q    Type
REMARK                         _______ _______ _______ _____ _____    ______ ____
ROOT
ATOM      1  C   LIG A   1      -6.527   2.986 124.698  0.00  0.00    +0.169 C 
ATOM      2  C   LIG A   1      -5.622   3.437 123.814  0.00  0.00    +0.058 C 
ATOM      3  C   LIG A   1      -6.036   3.754 122.451  0.00  0.00    -0.011 A 
ATOM      4  C   LIG A   1      -7.324   3.367 122.046  0.00  0.00    +0.001 A 
ATOM      5  C   LIG A   1      -8.157   2.561 123.004  0.00  0.00    +0.265 C 
ATOM      6  O   LIG A   1      -7.856   2.765 124.391  0.00  0.00    -0.483 OA
ATOM      7  C   LIG A   1      -7.777   3.665 120.753  0.00  0.00    +0.056 A 
ATOM      8  C   LIG A   1      -6.942   4.362 119.888  0.00  0.00    +0.159 A 
ATOM      9  C   LIG A   1      -5.666   4.744 120.296  0.00  0.00    +0.159 A 
ATOM     10  C   LIG A   1      -5.201   4.442 121.569  0.00  0.00    +0.057 A 
ENDROOT
BRANCH   1  11
ATOM     11  C   LIG A   1      -6.079   2.818 126.121  0.00  0.00    +0.231 C 
ATOM     12  O   LIG A   1      -6.532   1.936 126.852  0.00  0.00    -0.283 OA
BRANCH  11  13
ATOM     13  C   LIG A   1      -4.999   3.687 126.654  0.00  0.00    +0.067 A 
ATOM     14  C   LIG A   1      -3.712   3.153 126.828  0.00  0.00    +0.131 A 
ATOM     15  C   LIG A   1      -2.663   3.950 127.285  0.00  0.00    +0.091 A 
ATOM     16  C   LIG A   1      -2.911   5.281 127.603  0.00  0.00    +0.120 A 
ATOM     17  C   LIG A   1      -4.189   5.816 127.487  0.00  0.00    +0.046 A 
ATOM     18  C   LIG A   1      -5.237   5.019 127.019  0.00  0.00    +0.019 A 
BRANCH  14  19
ATOM     19  O   LIG A   1      -3.407   1.843 126.565  0.00  0.00    -0.506 OA
ATOM     20  H   LIG A   1      -2.562   1.827 126.061  0.00  0.00    +0.292 HD
ENDBRANCH  14  19
BRANCH  16  21
ATOM     21  O   LIG A   1      -1.918   6.103 128.046  0.00  0.00    -0.507 OA
ATOM     22  H   LIG A   1      -2.226   7.023 127.981  0.00  0.00    +0.292 HD
ENDBRANCH  16  21
ENDBRANCH  11  13
ENDBRANCH   1  11
BRANCH   9  23
ATOM     23  O   LIG A   1      -4.855   5.431 119.438  0.00  0.00    -0.503 OA
ATOM     24  H   LIG A   1      -5.414   5.600 118.653  0.00  0.00    +0.292 HD
ENDBRANCH   9  23
BRANCH   8  25
ATOM     25  O   LIG A   1      -7.329   4.696 118.621  0.00  0.00    -0.503 OA
ATOM     26  H   LIG A   1      -7.572   3.881 118.149  0.00  0.00    +0.292 HD
ENDBRANCH   8  25
TORSDOF 6
ENDMDL
MODEL 7
REMARK VINA RESULT:      -6.9      3.900      7.435
REMARK  Name = NuBBE_1770
REMARK  6 active torsions:
REMARK  status: ('A' for Active; 'I' for Inactive)
REMARK    1  A    between atoms: C_1  and  C_3
REMARK    2  A    between atoms: C_1  and  C_15
REMARK    3  A    between atoms: C_10  and  O_14
REMARK    4  A    between atoms: C_11  and  O_13
REMARK    5  A    between atoms: C_16  and  O_17
REMARK    6  A    between atoms: C_19  and  O_22
REMARK                            x       y       z     vdW  Elec       q    Type
REMARK                         _______ _______ _______ _____ _____    ______ ____
ROOT
ATOM      1  C   LIG A   1      -8.810   5.048 130.358  0.00  0.00    +0.169 C 
ATOM      2  C   LIG A   1      -9.220   3.831 130.751  0.00  0.00    +0.058 C 
ATOM      3  C   LIG A   1      -8.564   2.639 130.222  0.00  0.00    -0.011 A 
ATOM      4  C   LIG A   1      -7.673   2.799 129.149  0.00  0.00    +0.001 A 
ATOM      5  C   LIG A   1      -7.526   4.168 128.545  0.00  0.00    +0.265 C 
ATOM      6  O   LIG A   1      -7.802   5.258 129.435  0.00  0.00    -0.483 OA
ATOM      7  C   LIG A   1      -7.003   1.688 128.616  0.00  0.00    +0.056 A 
ATOM      8  C   LIG A   1      -7.221   0.435 129.177  0.00  0.00    +0.159 A 
ATOM      9  C   LIG A   1      -8.106   0.284 130.242  0.00  0.00    +0.159 A 
ATOM     10  C   LIG A   1      -8.786   1.374 130.768  0.00  0.00    +0.057 A 
ENDROOT
BRANCH   1  11
ATOM     11  C   LIG A   1      -9.416   6.238 131.044  0.00  0.00    +0.231 C 
ATOM     12  O   LIG A   1      -9.035   6.622 132.151  0.00  0.00    -0.283 OA
BRANCH  11  13
ATOM     13  C   LIG A   1     -10.458   7.032 130.344  0.00  0.00    +0.067 A 
ATOM     14  C   LIG A   1     -11.775   7.014 130.828  0.00  0.00    +0.131 A 
ATOM     15  C   LIG A   1     -12.770   7.781 130.223  0.00  0.00    +0.091 A 
ATOM     16  C   LIG A   1     -12.452   8.546 129.107  0.00  0.00    +0.120 A 
ATOM     17  C   LIG A   1     -11.165   8.539 128.579  0.00  0.00    +0.046 A 
ATOM     18  C   LIG A   1     -10.167   7.778 129.193  0.00  0.00    +0.019 A 
BRANCH  14  19
ATOM     19  O   LIG A   1     -12.163   6.257 131.904  0.00  0.00    -0.506 OA
ATOM     20  H   LIG A   1     -12.000   6.786 132.716  0.00  0.00    +0.292 HD
ENDBRANCH  14  19
BRANCH  16  21
ATOM     21  O   LIG A   1     -13.386   9.319 128.484  0.00  0.00    -0.507 OA
ATOM     22  H   LIG A   1     -13.108   9.458 127.563  0.00  0.00    +0.292 HD
ENDBRANCH  16  21
ENDBRANCH  11  13
ENDBRANCH   1  11
BRANCH   9  23
ATOM     23  O   LIG A   1      -8.309  -0.953 130.787  0.00  0.00    -0.503 OA
ATOM     24  H   LIG A   1      -7.531  -1.100 131.361  0.00  0.00    +0.292 HD
ENDBRANCH   9  23
BRANCH   8  25
ATOM     25  O   LIG A   1      -6.589  -0.684 128.714  0.00  0.00    -0.503 OA
ATOM     26  H   LIG A   1      -6.853  -0.826 127.789  0.00  0.00    +0.292 HD
ENDBRANCH   8  25
TORSDOF 6
ENDMDL
MODEL 8
REMARK VINA RESULT:      -6.9      8.415     10.496
REMARK  Name = NuBBE_1770
REMARK  6 active torsions:
REMARK  status: ('A' for Active; 'I' for Inactive)
REMARK    1  A    between atoms: C_1  and  C_3
REMARK    2  A    between atoms: C_1  and  C_15
REMARK    3  A    between atoms: C_10  and  O_14
REMARK    4  A    between atoms: C_11  and  O_13
REMARK    5  A    between atoms: C_16  and  O_17
REMARK    6  A    between atoms: C_19  and  O_22
REMARK                            x       y       z     vdW  Elec       q    Type
REMARK                         _______ _______ _______ _____ _____    ______ ____
ROOT
ATOM      1  C   LIG A   1      -8.301  -2.329 126.552  0.00  0.00    +0.169 C 
ATOM      2  C   LIG A   1      -7.078  -1.855 126.845  0.00  0.00    +0.058 C 
ATOM      3  C   LIG A   1      -6.353  -2.382 127.996  0.00  0.00    -0.011 A 
ATOM      4  C   LIG A   1      -7.049  -3.211 128.891  0.00  0.00    +0.001 A 
ATOM      5  C   LIG A   1      -8.521  -3.421 128.666  0.00  0.00    +0.265 C 
ATOM      6  O   LIG A   1      -8.953  -3.287 127.305  0.00  0.00    -0.483 OA
ATOM      7  C   LIG A   1      -6.393  -3.759 130.002  0.00  0.00    +0.056 A 
ATOM      8  C   LIG A   1      -5.043  -3.485 130.193  0.00  0.00    +0.159 A 
ATOM      9  C   LIG A   1      -4.358  -2.662 129.302  0.00  0.00    +0.159 A 
ATOM     10  C   LIG A   1      -5.001  -2.102 128.206  0.00  0.00    +0.057 A 
ENDROOT
BRANCH   1  11
ATOM     11  C   LIG A   1      -8.937  -1.859 125.276  0.00  0.00    +0.231 C 
ATOM     12  O   LIG A   1      -9.639  -2.597 124.583  0.00  0.00    -0.283 OA
BRANCH  11  13
ATOM     13  C   LIG A   1      -8.787  -0.441 124.864  0.00  0.00    +0.067 A 
ATOM     14  C   LIG A   1      -7.978  -0.129 123.759  0.00  0.00    +0.131 A 
ATOM     15  C   LIG A   1      -7.848   1.186 123.316  0.00  0.00    +0.091 A 
ATOM     16  C   LIG A   1      -8.504   2.201 124.004  0.00  0.00    +0.120 A 
ATOM     17  C   LIG A   1      -9.269   1.921 125.132  0.00  0.00    +0.046 A 
ATOM     18  C   LIG A   1      -9.407   0.601 125.567  0.00  0.00    +0.019 A 
BRANCH  14  19
ATOM     19  O   LIG A   1      -7.279  -1.077 123.057  0.00  0.00    -0.506 OA
ATOM     20  H   LIG A   1      -7.240  -1.890 123.608  0.00  0.00    +0.292 HD
ENDBRANCH  14  19
BRANCH  16  21
ATOM     21  O   LIG A   1      -8.416   3.502 123.607  0.00  0.00    -0.507 OA
ATOM     22  H   LIG A   1      -9.300   3.902 123.657  0.00  0.00    +0.292 HD
ENDBRANCH  16  21
ENDBRANCH  11  13
ENDBRANCH   1  11
BRANCH   9  23
ATOM     23  O   LIG A   1      -3.032  -2.402 129.499  0.00  0.00    -0.503 OA
ATOM     24  H   LIG A   1      -2.669  -3.235 129.864  0.00  0.00    +0.292 HD
ENDBRANCH   9  23
BRANCH   8  25
ATOM     25  O   LIG A   1      -4.343  -3.999 131.248  0.00  0.00    -0.503 OA
ATOM     26  H   LIG A   1      -4.618  -4.923 131.379  0.00  0.00    +0.292 HD
ENDBRANCH   8  25
TORSDOF 6
ENDMDL
MODEL 9
REMARK VINA RESULT:      -6.8      2.250      7.534
REMARK  Name = NuBBE_1770
REMARK  6 active torsions:
REMARK  status: ('A' for Active; 'I' for Inactive)
REMARK    1  A    between atoms: C_1  and  C_3
REMARK    2  A    between atoms: C_1  and  C_15
REMARK    3  A    between atoms: C_10  and  O_14
REMARK    4  A    between atoms: C_11  and  O_13
REMARK    5  A    between atoms: C_16  and  O_17
REMARK    6  A    between atoms: C_19  and  O_22
REMARK                            x       y       z     vdW  Elec       q    Type
REMARK                         _______ _______ _______ _____ _____    ______ ____
ROOT
ATOM      1  C   LIG A   1      -8.872   5.629 130.280  0.00  0.00    +0.169 C 
ATOM      2  C   LIG A   1      -8.059   4.791 129.615  0.00  0.00    +0.058 C 
ATOM      3  C   LIG A   1      -6.634   4.762 129.930  0.00  0.00    -0.011 A 
ATOM      4  C   LIG A   1      -6.122   5.771 130.762  0.00  0.00    +0.001 A 
ATOM      5  C   LIG A   1      -7.049   6.873 131.195  0.00  0.00    +0.265 C 
ATOM      6  O   LIG A   1      -8.436   6.515 131.247  0.00  0.00    -0.483 OA
ATOM      7  C   LIG A   1      -4.763   5.778 131.110  0.00  0.00    +0.056 A 
ATOM      8  C   LIG A   1      -3.939   4.764 130.634  0.00  0.00    +0.159 A 
ATOM      9  C   LIG A   1      -4.453   3.767 129.809  0.00  0.00    +0.159 A 
ATOM     10  C   LIG A   1      -5.793   3.758 129.446  0.00  0.00    +0.057 A 
ENDROOT
BRANCH   1  11
ATOM     11  C   LIG A   1     -10.346   5.511 130.022  0.00  0.00    +0.231 C 
ATOM     12  O   LIG A   1     -10.946   4.440 130.126  0.00  0.00    -0.283 OA
BRANCH  11  13
ATOM     13  C   LIG A   1     -11.132   6.730 129.706  0.00  0.00    +0.067 A 
ATOM     14  C   LIG A   1     -12.124   7.158 130.602  0.00  0.00    +0.131 A 
ATOM     15  C   LIG A   1     -12.853   8.322 130.360  0.00  0.00    +0.091 A 
ATOM     16  C   LIG A   1     -12.610   9.044 129.197  0.00  0.00    +0.120 A 
ATOM     17  C   LIG A   1     -11.668   8.611 128.271  0.00  0.00    +0.046 A 
ATOM     18  C   LIG A   1     -10.931   7.450 128.520  0.00  0.00    +0.019 A 
BRANCH  14  19
ATOM     19  O   LIG A   1     -12.436   6.476 131.750  0.00  0.00    -0.506 OA
ATOM     20  H   LIG A   1     -11.605   6.353 132.260  0.00  0.00    +0.292 HD
ENDBRANCH  14  19
BRANCH  16  21
ATOM     21  O   LIG A   1     -13.290  10.193 128.919  0.00  0.00    -0.507 OA
ATOM     22  H   LIG A   1     -14.039   9.976 128.339  0.00  0.00    +0.292 HD
ENDBRANCH  16  21
ENDBRANCH  11  13
ENDBRANCH   1  11
BRANCH   9  23
ATOM     23  O   LIG A   1      -3.633   2.775 129.350  0.00  0.00    -0.503 OA
ATOM     24  H   LIG A   1      -2.787   3.226 129.156  0.00  0.00    +0.292 HD
ENDBRANCH   9  23
BRANCH   8  25
ATOM     25  O   LIG A   1      -2.610   4.706 130.948  0.00  0.00    -0.503 OA
ATOM     26  H   LIG A   1      -2.493   4.075 131.678  0.00  0.00    +0.292 HD
ENDBRANCH   8  25
TORSDOF 6
ENDMDL
