MODEL 1
REMARK VINA RESULT:      -6.6      0.000      0.000
REMARK  Name = NuBBE_560
REMARK  19 active torsions:
REMARK  status: ('A' for Active; 'I' for Inactive)
REMARK    1  A    between atoms: C_1  and  C_2
REMARK    2  A    between atoms: C_2  and  C_4
REMARK    3  A    between atoms: C_2  and  C_18
REMARK    4  A    between atoms: C_4  and  C_5
REMARK    5  A    between atoms: C_5  and  C_6
REMARK    6  A    between atoms: C_6  and  C_7
REMARK    7  A    between atoms: C_7  and  C_9
REMARK    8  A    between atoms: C_7  and  C_10
REMARK    9  A    between atoms: C_10  and  C_11
REMARK   10  A    between atoms: C_11  and  C_12
REMARK   11  A    between atoms: C_12  and  C_13
REMARK   12  A    between atoms: C_13  and  C_17
REMARK   13  A    between atoms: C_14  and  C_15
REMARK   14  A    between atoms: C_15  and  O_16
REMARK   15  A    between atoms: C_18  and  C_19
REMARK   16  A    between atoms: C_19  and  C_20
REMARK   17  A    between atoms: C_20  and  C_21
REMARK   18  A    between atoms: C_21  and  C_22
REMARK   19  A    between atoms: C_21  and  C_23
REMARK                            x       y       z     vdW  Elec       q    Type
REMARK                         _______ _______ _______ _____ _____    ______ ____
ROOT
ATOM      1  C   LIG A   1      -9.345  -3.106 125.824  0.00  0.00    +0.003 C 
ENDROOT
BRANCH   1   2
ATOM      2  C   LIG A   1      -8.633  -3.668 124.516  0.00  0.00    -0.014 C 
ATOM      3  C   LIG A   1      -9.398  -3.185 123.261  0.00  0.00    +0.007 C 
BRANCH   2   4
ATOM      4  C   LIG A   1      -7.033  -3.491 124.421  0.00  0.00    +0.003 C 
BRANCH   4   5
ATOM      5  C   LIG A   1      -6.786  -2.234 123.657  0.00  0.00    +0.005 C 
BRANCH   5   6
ATOM      6  C   LIG A   1      -6.920  -0.678 124.105  0.00  0.00    +0.030 C 
BRANCH   6   7
ATOM      7  C   LIG A   1      -8.387   0.113 124.538  0.00  0.00    -0.074 C 
ATOM      8  C   LIG A   1      -9.125   0.577 123.377  0.00  0.00    -0.001 C 
ATOM      9  C   LIG A   1      -9.252   0.647 125.965  0.00  0.00    +0.038 C 
BRANCH   8  10
ATOM     10  C   LIG A   1     -10.360   1.329 123.533  0.00  0.00    +0.183 C 
BRANCH  10  11
ATOM     11  O   LIG A   1     -11.438   0.673 122.874  0.00  0.00    -0.391 OA
ATOM     12  H   LIG A   1     -12.218   0.734 123.441  0.00  0.00    +0.210 HD
ENDBRANCH  10  11
ENDBRANCH   8  10
ENDBRANCH   6   7
ENDBRANCH   5   6
ENDBRANCH   4   5
ENDBRANCH   2   4
ENDBRANCH   1   2
BRANCH   1  13
ATOM     13  C   LIG A   1      -9.032  -3.543 127.308  0.00  0.00    +0.000 C 
BRANCH  13  14
ATOM     14  C   LIG A   1      -7.706  -3.249 128.069  0.00  0.00    +0.003 C 
BRANCH  14  16
ATOM     15  C   LIG A   1      -6.389  -0.952 127.738  0.00  0.00    +0.007 C 
ATOM     16  C   LIG A   1      -7.453  -1.887 128.705  0.00  0.00    -0.014 C 
BRANCH  16  17
ATOM     17  C   LIG A   1      -7.717  -2.048 130.570  0.00  0.00    +0.003 C 
BRANCH  17  18
ATOM     18  C   LIG A   1      -6.741  -2.874 131.740  0.00  0.00    +0.000 C 
BRANCH  18  19
ATOM     19  C   LIG A   1      -5.228  -2.761 131.680  0.00  0.00    +0.003 C 
BRANCH  19  20
ATOM     20  C   LIG A   1      -4.617  -3.950 130.853  0.00  0.00    -0.017 C 
ATOM     21  C   LIG A   1      -5.630  -5.084 130.759  0.00  0.00    +0.007 C 
ATOM     22  C   LIG A   1      -4.182  -3.569 129.424  0.00  0.00    +0.007 C 
ENDBRANCH  19  20
ENDBRANCH  18  19
ENDBRANCH  17  18
ENDBRANCH  16  17
ENDBRANCH  14  16
ENDBRANCH  13  14
ENDBRANCH   1  13
TORSDOF 14
ENDMDL
MODEL 2
REMARK VINA RESULT:      -6.4      2.278      3.627
REMARK  Name = NuBBE_560
REMARK  19 active torsions:
REMARK  status: ('A' for Active; 'I' for Inactive)
REMARK    1  A    between atoms: C_1  and  C_2
REMARK    2  A    between atoms: C_2  and  C_4
REMARK    3  A    between atoms: C_2  and  C_18
REMARK    4  A    between atoms: C_4  and  C_5
REMARK    5  A    between atoms: C_5  and  C_6
REMARK    6  A    between atoms: C_6  and  C_7
REMARK    7  A    between atoms: C_7  and  C_9
REMARK    8  A    between atoms: C_7  and  C_10
REMARK    9  A    between atoms: C_10  and  C_11
REMARK   10  A    between atoms: C_11  and  C_12
REMARK   11  A    between atoms: C_12  and  C_13
REMARK   12  A    between atoms: C_13  and  C_17
REMARK   13  A    between atoms: C_14  and  C_15
REMARK   14  A    between atoms: C_15  and  O_16
REMARK   15  A    between atoms: C_18  and  C_19
REMARK   16  A    between atoms: C_19  and  C_20
REMARK   17  A    between atoms: C_20  and  C_21
REMARK   18  A    between atoms: C_21  and  C_22
REMARK   19  A    between atoms: C_21  and  C_23
REMARK                            x       y       z     vdW  Elec       q    Type
REMARK                         _______ _______ _______ _____ _____    ______ ____
ROOT
ATOM      1  C   LIG A   1      -9.018  -3.150 126.161  0.00  0.00    +0.003 C 
ENDROOT
BRANCH   1   2
ATOM      2  C   LIG A   1      -8.482  -3.702 124.767  0.00  0.00    -0.014 C 
ATOM      3  C   LIG A   1      -9.434  -3.257 123.633  0.00  0.00    +0.007 C 
BRANCH   2   4
ATOM      4  C   LIG A   1      -6.919  -3.473 124.443  0.00  0.00    +0.003 C 
BRANCH   4   5
ATOM      5  C   LIG A   1      -6.505  -2.241 125.176  0.00  0.00    +0.005 C 
BRANCH   5   6
ATOM      6  C   LIG A   1      -6.737  -0.671 124.824  0.00  0.00    +0.030 C 
BRANCH   6   7
ATOM      7  C   LIG A   1      -8.263   0.126 124.776  0.00  0.00    -0.074 C 
ATOM      8  C   LIG A   1      -8.672   0.448 123.421  0.00  0.00    -0.001 C 
ATOM      9  C   LIG A   1      -9.465   0.787 125.866  0.00  0.00    +0.038 C 
BRANCH   8  10
ATOM     10  C   LIG A   1      -9.902   1.182 123.172  0.00  0.00    +0.183 C 
BRANCH  10  11
ATOM     11  O   LIG A   1     -10.871   0.349 122.543  0.00  0.00    -0.391 OA
ATOM     12  H   LIG A   1     -10.669   0.314 121.600  0.00  0.00    +0.210 HD
ENDBRANCH  10  11
ENDBRANCH   8  10
ENDBRANCH   6   7
ENDBRANCH   5   6
ENDBRANCH   4   5
ENDBRANCH   2   4
ENDBRANCH   1   2
BRANCH   1  13
ATOM     13  C   LIG A   1      -8.989  -3.926 127.536  0.00  0.00    +0.000 C 
BRANCH  13  14
ATOM     14  C   LIG A   1      -8.376  -3.381 128.859  0.00  0.00    +0.003 C 
BRANCH  14  16
ATOM     15  C   LIG A   1      -5.819  -3.367 129.623  0.00  0.00    +0.007 C 
ATOM     16  C   LIG A   1      -7.106  -2.539 128.846  0.00  0.00    -0.014 C 
BRANCH  16  17
ATOM     17  C   LIG A   1      -7.604  -0.719 128.732  0.00  0.00    +0.003 C 
BRANCH  17  18
ATOM     18  C   LIG A   1      -8.024   0.376 130.009  0.00  0.00    +0.000 C 
BRANCH  18  19
ATOM     19  C   LIG A   1      -8.343   1.825 129.689  0.00  0.00    +0.003 C 
BRANCH  19  20
ATOM     20  C   LIG A   1      -9.430   2.382 130.678  0.00  0.00    -0.017 C 
ATOM     21  C   LIG A   1      -9.555   1.455 131.880  0.00  0.00    +0.007 C 
ATOM     22  C   LIG A   1      -9.146   3.808 131.193  0.00  0.00    +0.007 C 
ENDBRANCH  19  20
ENDBRANCH  18  19
ENDBRANCH  17  18
ENDBRANCH  16  17
ENDBRANCH  14  16
ENDBRANCH  13  14
ENDBRANCH   1  13
TORSDOF 14
ENDMDL
MODEL 3
REMARK VINA RESULT:      -6.3      1.757      3.122
REMARK  Name = NuBBE_560
REMARK  19 active torsions:
REMARK  status: ('A' for Active; 'I' for Inactive)
REMARK    1  A    between atoms: C_1  and  C_2
REMARK    2  A    between atoms: C_2  and  C_4
REMARK    3  A    between atoms: C_2  and  C_18
REMARK    4  A    between atoms: C_4  and  C_5
REMARK    5  A    between atoms: C_5  and  C_6
REMARK    6  A    between atoms: C_6  and  C_7
REMARK    7  A    between atoms: C_7  and  C_9
REMARK    8  A    between atoms: C_7  and  C_10
REMARK    9  A    between atoms: C_10  and  C_11
REMARK   10  A    between atoms: C_11  and  C_12
REMARK   11  A    between atoms: C_12  and  C_13
REMARK   12  A    between atoms: C_13  and  C_17
REMARK   13  A    between atoms: C_14  and  C_15
REMARK   14  A    between atoms: C_15  and  O_16
REMARK   15  A    between atoms: C_18  and  C_19
REMARK   16  A    between atoms: C_19  and  C_20
REMARK   17  A    between atoms: C_20  and  C_21
REMARK   18  A    between atoms: C_21  and  C_22
REMARK   19  A    between atoms: C_21  and  C_23
REMARK                            x       y       z     vdW  Elec       q    Type
REMARK                         _______ _______ _______ _____ _____    ______ ____
ROOT
ATOM      1  C   LIG A   1      -9.059  -3.186 126.061  0.00  0.00    +0.003 C 
ENDROOT
BRANCH   1   2
ATOM      2  C   LIG A   1      -8.527  -3.725 124.660  0.00  0.00    -0.014 C 
ATOM      3  C   LIG A   1      -9.445  -3.214 123.526  0.00  0.00    +0.007 C 
BRANCH   2   4
ATOM      4  C   LIG A   1      -6.952  -3.553 124.361  0.00  0.00    +0.003 C 
BRANCH   4   5
ATOM      5  C   LIG A   1      -6.521  -2.297 125.041  0.00  0.00    +0.005 C 
BRANCH   5   6
ATOM      6  C   LIG A   1      -6.765  -0.739 124.644  0.00  0.00    +0.030 C 
BRANCH   6   7
ATOM      7  C   LIG A   1      -8.278   0.081 124.707  0.00  0.00    -0.074 C 
ATOM      8  C   LIG A   1      -8.769   0.430 123.387  0.00  0.00    -0.001 C 
ATOM      9  C   LIG A   1      -9.397   0.742 125.883  0.00  0.00    +0.038 C 
BRANCH   8  10
ATOM     10  C   LIG A   1     -10.001   1.187 123.229  0.00  0.00    +0.183 C 
BRANCH  10  11
ATOM     11  O   LIG A   1     -11.004   0.395 122.599  0.00  0.00    -0.391 OA
ATOM     12  H   LIG A   1     -10.842   0.408 121.648  0.00  0.00    +0.210 HD
ENDBRANCH  10  11
ENDBRANCH   8  10
ENDBRANCH   6   7
ENDBRANCH   5   6
ENDBRANCH   4   5
ENDBRANCH   2   4
ENDBRANCH   1   2
BRANCH   1  13
ATOM     13  C   LIG A   1      -8.992  -3.958 127.435  0.00  0.00    +0.000 C 
BRANCH  13  14
ATOM     14  C   LIG A   1      -8.532  -3.341 128.789  0.00  0.00    +0.003 C 
BRANCH  14  16
ATOM     15  C   LIG A   1      -6.351  -3.943 130.204  0.00  0.00    +0.007 C 
ATOM     16  C   LIG A   1      -7.079  -2.943 129.015  0.00  0.00    -0.014 C 
BRANCH  16  17
ATOM     17  C   LIG A   1      -6.886  -1.121 128.549  0.00  0.00    +0.003 C 
BRANCH  17  18
ATOM     18  C   LIG A   1      -5.464  -0.276 128.031  0.00  0.00    +0.000 C 
BRANCH  18  19
ATOM     19  C   LIG A   1      -5.539   1.206 127.707  0.00  0.00    +0.003 C 
BRANCH  19  20
ATOM     20  C   LIG A   1      -4.713   2.042 128.750  0.00  0.00    -0.017 C 
ATOM     21  C   LIG A   1      -4.211   1.128 129.860  0.00  0.00    +0.007 C 
ATOM     22  C   LIG A   1      -3.503   2.784 128.149  0.00  0.00    +0.007 C 
ENDBRANCH  19  20
ENDBRANCH  18  19
ENDBRANCH  17  18
ENDBRANCH  16  17
ENDBRANCH  14  16
ENDBRANCH  13  14
ENDBRANCH   1  13
TORSDOF 14
ENDMDL
MODEL 4
REMARK VINA RESULT:      -6.2      2.214      3.742
REMARK  Name = NuBBE_560
REMARK  19 active torsions:
REMARK  status: ('A' for Active; 'I' for Inactive)
REMARK    1  A    between atoms: C_1  and  C_2
REMARK    2  A    between atoms: C_2  and  C_4
REMARK    3  A    between atoms: C_2  and  C_18
REMARK    4  A    between atoms: C_4  and  C_5
REMARK    5  A    between atoms: C_5  and  C_6
REMARK    6  A    between atoms: C_6  and  C_7
REMARK    7  A    between atoms: C_7  and  C_9
REMARK    8  A    between atoms: C_7  and  C_10
REMARK    9  A    between atoms: C_10  and  C_11
REMARK   10  A    between atoms: C_11  and  C_12
REMARK   11  A    between atoms: C_12  and  C_13
REMARK   12  A    between atoms: C_13  and  C_17
REMARK   13  A    between atoms: C_14  and  C_15
REMARK   14  A    between atoms: C_15  and  O_16
REMARK   15  A    between atoms: C_18  and  C_19
REMARK   16  A    between atoms: C_19  and  C_20
REMARK   17  A    between atoms: C_20  and  C_21
REMARK   18  A    between atoms: C_21  and  C_22
REMARK   19  A    between atoms: C_21  and  C_23
REMARK                            x       y       z     vdW  Elec       q    Type
REMARK                         _______ _______ _______ _____ _____    ______ ____
ROOT
ATOM      1  C   LIG A   1      -9.238  -3.191 126.017  0.00  0.00    +0.003 C 
ENDROOT
BRANCH   1   2
ATOM      2  C   LIG A   1      -8.638  -3.698 124.632  0.00  0.00    -0.014 C 
ATOM      3  C   LIG A   1      -9.526  -3.198 123.469  0.00  0.00    +0.007 C 
BRANCH   2   4
ATOM      4  C   LIG A   1      -7.058  -3.479 124.396  0.00  0.00    +0.003 C 
BRANCH   4   5
ATOM      5  C   LIG A   1      -6.922  -2.351 123.430  0.00  0.00    +0.005 C 
BRANCH   5   6
ATOM      6  C   LIG A   1      -6.794  -0.750 123.681  0.00  0.00    +0.030 C 
BRANCH   6   7
ATOM      7  C   LIG A   1      -8.034   0.262 124.316  0.00  0.00    -0.074 C 
ATOM      8  C   LIG A   1      -7.991   1.601 123.756  0.00  0.00    -0.001 C 
ATOM      9  C   LIG A   1      -9.298   0.233 125.529  0.00  0.00    +0.038 C 
BRANCH   8  10
ATOM     10  C   LIG A   1      -8.915   2.627 124.214  0.00  0.00    +0.183 C 
BRANCH  10  11
ATOM     11  O   LIG A   1      -8.259   3.886 124.322  0.00  0.00    -0.391 OA
ATOM     12  H   LIG A   1      -8.278   4.309 123.454  0.00  0.00    +0.210 HD
ENDBRANCH  10  11
ENDBRANCH   8  10
ENDBRANCH   6   7
ENDBRANCH   5   6
ENDBRANCH   4   5
ENDBRANCH   2   4
ENDBRANCH   1   2
BRANCH   1  13
ATOM     13  C   LIG A   1      -8.845  -3.730 127.448  0.00  0.00    +0.000 C 
BRANCH  13  14
ATOM     14  C   LIG A   1      -7.703  -3.158 128.338  0.00  0.00    +0.003 C 
BRANCH  14  16
ATOM     15  C   LIG A   1      -5.694  -1.799 127.227  0.00  0.00    +0.007 C 
ATOM     16  C   LIG A   1      -7.162  -1.751 128.112  0.00  0.00    -0.014 C 
BRANCH  16  17
ATOM     17  C   LIG A   1      -7.818  -0.636 129.490  0.00  0.00    +0.003 C 
BRANCH  17  18
ATOM     18  C   LIG A   1      -7.732   1.090 129.627  0.00  0.00    +0.000 C 
BRANCH  18  19
ATOM     19  C   LIG A   1      -8.548   1.965 128.692  0.00  0.00    +0.003 C 
BRANCH  19  20
ATOM     20  C   LIG A   1      -7.605   2.777 127.732  0.00  0.00    -0.017 C 
ATOM     21  C   LIG A   1      -7.113   4.034 128.438  0.00  0.00    +0.007 C 
ATOM     22  C   LIG A   1      -6.378   1.988 127.234  0.00  0.00    +0.007 C 
ENDBRANCH  19  20
ENDBRANCH  18  19
ENDBRANCH  17  18
ENDBRANCH  16  17
ENDBRANCH  14  16
ENDBRANCH  13  14
ENDBRANCH   1  13
TORSDOF 14
ENDMDL
MODEL 5
REMARK VINA RESULT:      -6.2      3.078      7.802
REMARK  Name = NuBBE_560
REMARK  19 active torsions:
REMARK  status: ('A' for Active; 'I' for Inactive)
REMARK    1  A    between atoms: C_1  and  C_2
REMARK    2  A    between atoms: C_2  and  C_4
REMARK    3  A    between atoms: C_2  and  C_18
REMARK    4  A    between atoms: C_4  and  C_5
REMARK    5  A    between atoms: C_5  and  C_6
REMARK    6  A    between atoms: C_6  and  C_7
REMARK    7  A    between atoms: C_7  and  C_9
REMARK    8  A    between atoms: C_7  and  C_10
REMARK    9  A    between atoms: C_10  and  C_11
REMARK   10  A    between atoms: C_11  and  C_12
REMARK   11  A    between atoms: C_12  and  C_13
REMARK   12  A    between atoms: C_13  and  C_17
REMARK   13  A    between atoms: C_14  and  C_15
REMARK   14  A    between atoms: C_15  and  O_16
REMARK   15  A    between atoms: C_18  and  C_19
REMARK   16  A    between atoms: C_19  and  C_20
REMARK   17  A    between atoms: C_20  and  C_21
REMARK   18  A    between atoms: C_21  and  C_22
REMARK   19  A    between atoms: C_21  and  C_23
REMARK                            x       y       z     vdW  Elec       q    Type
REMARK                         _______ _______ _______ _____ _____    ______ ____
ROOT
ATOM      1  C   LIG A   1      -9.445  -2.821 125.565  0.00  0.00    +0.003 C 
ENDROOT
BRANCH   1   2
ATOM      2  C   LIG A   1      -8.285  -3.012 126.640  0.00  0.00    -0.014 C 
ATOM      3  C   LIG A   1      -7.640  -1.643 126.955  0.00  0.00    +0.007 C 
BRANCH   2   4
ATOM      4  C   LIG A   1      -8.636  -3.891 127.945  0.00  0.00    +0.003 C 
BRANCH   4   5
ATOM      5  C   LIG A   1      -8.531  -2.976 129.119  0.00  0.00    +0.005 C 
BRANCH   5   6
ATOM      6  C   LIG A   1      -7.491  -2.969 130.368  0.00  0.00    +0.030 C 
BRANCH   6   7
ATOM      7  C   LIG A   1      -5.982  -3.799 130.414  0.00  0.00    -0.074 C 
ATOM      8  C   LIG A   1      -4.954  -3.113 129.652  0.00  0.00    -0.001 C 
ATOM      9  C   LIG A   1      -5.293  -5.296 131.009  0.00  0.00    +0.038 C 
BRANCH   8  10
ATOM     10  C   LIG A   1      -3.626  -3.688 129.512  0.00  0.00    +0.183 C 
BRANCH  10  11
ATOM     11  O   LIG A   1      -2.630  -2.670 129.521  0.00  0.00    -0.391 OA
ATOM     12  H   LIG A   1      -1.849  -3.019 129.968  0.00  0.00    +0.210 HD
ENDBRANCH  10  11
ENDBRANCH   8  10
ENDBRANCH   6   7
ENDBRANCH   5   6
ENDBRANCH   4   5
ENDBRANCH   2   4
ENDBRANCH   1   2
BRANCH   1  13
ATOM     13  C   LIG A   1      -9.464  -3.427 124.108  0.00  0.00    +0.000 C 
BRANCH  13  14
ATOM     14  C   LIG A   1      -8.694  -2.847 122.886  0.00  0.00    +0.003 C 
BRANCH  14  16
ATOM     15  C   LIG A   1      -6.179  -2.311 123.599  0.00  0.00    +0.007 C 
ATOM     16  C   LIG A   1      -7.692  -1.711 123.058  0.00  0.00    -0.014 C 
BRANCH  16  17
ATOM     17  C   LIG A   1      -8.655  -0.118 123.385  0.00  0.00    +0.003 C 
BRANCH  17  18
ATOM     18  C   LIG A   1      -8.101   1.361 124.100  0.00  0.00    +0.000 C 
BRANCH  18  19
ATOM     19  C   LIG A   1      -6.852   2.039 123.565  0.00  0.00    +0.003 C 
BRANCH  19  20
ATOM     20  C   LIG A   1      -7.230   3.321 122.738  0.00  0.00    -0.017 C 
ATOM     21  C   LIG A   1      -6.086   3.684 121.801  0.00  0.00    +0.007 C 
ATOM     22  C   LIG A   1      -8.516   3.175 121.899  0.00  0.00    +0.007 C 
ENDBRANCH  19  20
ENDBRANCH  18  19
ENDBRANCH  17  18
ENDBRANCH  16  17
ENDBRANCH  14  16
ENDBRANCH  13  14
ENDBRANCH   1  13
TORSDOF 14
ENDMDL
MODEL 6
REMARK VINA RESULT:      -6.1      1.881      2.866
REMARK  Name = NuBBE_560
REMARK  19 active torsions:
REMARK  status: ('A' for Active; 'I' for Inactive)
REMARK    1  A    between atoms: C_1  and  C_2
REMARK    2  A    between atoms: C_2  and  C_4
REMARK    3  A    between atoms: C_2  and  C_18
REMARK    4  A    between atoms: C_4  and  C_5
REMARK    5  A    between atoms: C_5  and  C_6
REMARK    6  A    between atoms: C_6  and  C_7
REMARK    7  A    between atoms: C_7  and  C_9
REMARK    8  A    between atoms: C_7  and  C_10
REMARK    9  A    between atoms: C_10  and  C_11
REMARK   10  A    between atoms: C_11  and  C_12
REMARK   11  A    between atoms: C_12  and  C_13
REMARK   12  A    between atoms: C_13  and  C_17
REMARK   13  A    between atoms: C_14  and  C_15
REMARK   14  A    between atoms: C_15  and  O_16
REMARK   15  A    between atoms: C_18  and  C_19
REMARK   16  A    between atoms: C_19  and  C_20
REMARK   17  A    between atoms: C_20  and  C_21
REMARK   18  A    between atoms: C_21  and  C_22
REMARK   19  A    between atoms: C_21  and  C_23
REMARK                            x       y       z     vdW  Elec       q    Type
REMARK                         _______ _______ _______ _____ _____    ______ ____
ROOT
ATOM      1  C   LIG A   1      -5.724  -2.910 125.118  0.00  0.00    +0.003 C 
ENDROOT
BRANCH   1   2
ATOM      2  C   LIG A   1      -4.952  -2.834 123.728  0.00  0.00    -0.014 C 
ATOM      3  C   LIG A   1      -4.211  -4.167 123.473  0.00  0.00    +0.007 C 
BRANCH   2   4
ATOM      4  C   LIG A   1      -5.784  -2.290 122.459  0.00  0.00    +0.003 C 
BRANCH   4   5
ATOM      5  C   LIG A   1      -7.229  -2.420 122.806  0.00  0.00    +0.005 C 
BRANCH   5   6
ATOM      6  C   LIG A   1      -8.379  -1.287 123.000  0.00  0.00    +0.030 C 
BRANCH   6   7
ATOM      7  C   LIG A   1      -8.124   0.294 123.634  0.00  0.00    -0.074 C 
ATOM      8  C   LIG A   1      -9.154   0.679 124.582  0.00  0.00    -0.001 C 
ATOM      9  C   LIG A   1      -7.056   1.667 123.423  0.00  0.00    +0.038 C 
BRANCH   8  10
ATOM     10  C   LIG A   1      -9.155   2.004 125.180  0.00  0.00    +0.183 C 
BRANCH  10  11
ATOM     11  O   LIG A   1      -8.929   1.926 126.584  0.00  0.00    -0.391 OA
ATOM     12  H   LIG A   1      -9.398   2.658 127.004  0.00  0.00    +0.210 HD
ENDBRANCH  10  11
ENDBRANCH   8  10
ENDBRANCH   6   7
ENDBRANCH   5   6
ENDBRANCH   4   5
ENDBRANCH   2   4
ENDBRANCH   1   2
BRANCH   1  13
ATOM     13  C   LIG A   1      -6.088  -1.684 126.043  0.00  0.00    +0.000 C 
BRANCH  13  14
ATOM     14  C   LIG A   1      -7.346  -1.591 126.955  0.00  0.00    +0.003 C 
BRANCH  14  16
ATOM     15  C   LIG A   1      -9.488  -2.918 126.075  0.00  0.00    +0.007 C 
ATOM     16  C   LIG A   1      -8.215  -2.815 127.220  0.00  0.00    -0.014 C 
BRANCH  16  17
ATOM     17  C   LIG A   1      -8.070  -3.257 129.052  0.00  0.00    +0.003 C 
BRANCH  17  18
ATOM     18  C   LIG A   1      -6.682  -3.808 129.932  0.00  0.00    +0.000 C 
BRANCH  18  19
ATOM     19  C   LIG A   1      -5.904  -2.837 130.804  0.00  0.00    +0.003 C 
BRANCH  19  20
ATOM     20  C   LIG A   1      -4.413  -2.734 130.319  0.00  0.00    -0.017 C 
ATOM     21  C   LIG A   1      -4.300  -3.250 128.890  0.00  0.00    +0.007 C 
ATOM     22  C   LIG A   1      -3.829  -1.308 130.367  0.00  0.00    +0.007 C 
ENDBRANCH  19  20
ENDBRANCH  18  19
ENDBRANCH  17  18
ENDBRANCH  16  17
ENDBRANCH  14  16
ENDBRANCH  13  14
ENDBRANCH   1  13
TORSDOF 14
ENDMDL
MODEL 7
REMARK VINA RESULT:      -6.0      6.776     10.048
REMARK  Name = NuBBE_560
REMARK  19 active torsions:
REMARK  status: ('A' for Active; 'I' for Inactive)
REMARK    1  A    between atoms: C_1  and  C_2
REMARK    2  A    between atoms: C_2  and  C_4
REMARK    3  A    between atoms: C_2  and  C_18
REMARK    4  A    between atoms: C_4  and  C_5
REMARK    5  A    between atoms: C_5  and  C_6
REMARK    6  A    between atoms: C_6  and  C_7
REMARK    7  A    between atoms: C_7  and  C_9
REMARK    8  A    between atoms: C_7  and  C_10
REMARK    9  A    between atoms: C_10  and  C_11
REMARK   10  A    between atoms: C_11  and  C_12
REMARK   11  A    between atoms: C_12  and  C_13
REMARK   12  A    between atoms: C_13  and  C_17
REMARK   13  A    between atoms: C_14  and  C_15
REMARK   14  A    between atoms: C_15  and  O_16
REMARK   15  A    between atoms: C_18  and  C_19
REMARK   16  A    between atoms: C_19  and  C_20
REMARK   17  A    between atoms: C_20  and  C_21
REMARK   18  A    between atoms: C_21  and  C_22
REMARK   19  A    between atoms: C_21  and  C_23
REMARK                            x       y       z     vdW  Elec       q    Type
REMARK                         _______ _______ _______ _____ _____    ______ ____
ROOT
ATOM      1  C   LIG A   1      -9.114   3.008 133.181  0.00  0.00    +0.003 C 
ENDROOT
BRANCH   1   2
ATOM      2  C   LIG A   1      -9.921   2.060 132.189  0.00  0.00    -0.014 C 
ATOM      3  C   LIG A   1     -10.333   2.858 130.930  0.00  0.00    +0.007 C 
BRANCH   2   4
ATOM      4  C   LIG A   1      -9.278   0.616 131.873  0.00  0.00    +0.003 C 
BRANCH   4   5
ATOM      5  C   LIG A   1      -7.804   0.819 131.759  0.00  0.00    +0.005 C 
BRANCH   5   6
ATOM      6  C   LIG A   1      -6.888   1.242 130.484  0.00  0.00    +0.030 C 
BRANCH   6   7
ATOM      7  C   LIG A   1      -6.754   2.832 129.837  0.00  0.00    -0.074 C 
ATOM      8  C   LIG A   1      -7.446   2.970 128.568  0.00  0.00    -0.001 C 
ATOM      9  C   LIG A   1      -5.943   4.350 130.168  0.00  0.00    +0.038 C 
BRANCH   8  10
ATOM     10  C   LIG A   1      -7.395   4.220 127.826  0.00  0.00    +0.183 C 
BRANCH  10  11
ATOM     11  O   LIG A   1      -8.645   4.899 127.892  0.00  0.00    -0.391 OA
ATOM     12  H   LIG A   1      -8.475   5.817 128.136  0.00  0.00    +0.210 HD
ENDBRANCH  10  11
ENDBRANCH   8  10
ENDBRANCH   6   7
ENDBRANCH   5   6
ENDBRANCH   4   5
ENDBRANCH   2   4
ENDBRANCH   1   2
BRANCH   1  13
ATOM     13  C   LIG A   1      -8.499   4.416 132.819  0.00  0.00    +0.000 C 
BRANCH  13  14
ATOM     14  C   LIG A   1      -9.286   5.759 132.794  0.00  0.00    +0.003 C 
BRANCH  14  16
ATOM     15  C   LIG A   1      -8.631   7.155 130.617  0.00  0.00    +0.007 C 
ATOM     16  C   LIG A   1      -9.845   6.316 131.491  0.00  0.00    -0.014 C 
BRANCH  16  17
ATOM     17  C   LIG A   1     -11.706   6.568 131.706  0.00  0.00    +0.003 C 
BRANCH  17  18
ATOM     18  C   LIG A   1     -12.845   7.261 130.598  0.00  0.00    +0.000 C 
BRANCH  18  19
ATOM     19  C   LIG A   1     -12.618   8.660 130.054  0.00  0.00    +0.003 C 
BRANCH  19  20
ATOM     20  C   LIG A   1     -12.549   8.638 128.484  0.00  0.00    -0.017 C 
ATOM     21  C   LIG A   1     -11.118   8.370 128.036  0.00  0.00    +0.007 C 
ATOM     22  C   LIG A   1     -13.468   7.589 127.825  0.00  0.00    +0.007 C 
ENDBRANCH  19  20
ENDBRANCH  18  19
ENDBRANCH  17  18
ENDBRANCH  16  17
ENDBRANCH  14  16
ENDBRANCH  13  14
ENDBRANCH   1  13
TORSDOF 14
ENDMDL
MODEL 8
REMARK VINA RESULT:      -6.0      2.262      5.776
REMARK  Name = NuBBE_560
REMARK  19 active torsions:
REMARK  status: ('A' for Active; 'I' for Inactive)
REMARK    1  A    between atoms: C_1  and  C_2
REMARK    2  A    between atoms: C_2  and  C_4
REMARK    3  A    between atoms: C_2  and  C_18
REMARK    4  A    between atoms: C_4  and  C_5
REMARK    5  A    between atoms: C_5  and  C_6
REMARK    6  A    between atoms: C_6  and  C_7
REMARK    7  A    between atoms: C_7  and  C_9
REMARK    8  A    between atoms: C_7  and  C_10
REMARK    9  A    between atoms: C_10  and  C_11
REMARK   10  A    between atoms: C_11  and  C_12
REMARK   11  A    between atoms: C_12  and  C_13
REMARK   12  A    between atoms: C_13  and  C_17
REMARK   13  A    between atoms: C_14  and  C_15
REMARK   14  A    between atoms: C_15  and  O_16
REMARK   15  A    between atoms: C_18  and  C_19
REMARK   16  A    between atoms: C_19  and  C_20
REMARK   17  A    between atoms: C_20  and  C_21
REMARK   18  A    between atoms: C_21  and  C_22
REMARK   19  A    between atoms: C_21  and  C_23
REMARK                            x       y       z     vdW  Elec       q    Type
REMARK                         _______ _______ _______ _____ _____    ______ ____
ROOT
ATOM      1  C   LIG A   1      -7.659  -3.478 129.320  0.00  0.00    +0.003 C 
ENDROOT
BRANCH   1   2
ATOM      2  C   LIG A   1      -7.654  -2.219 130.295  0.00  0.00    -0.014 C 
ATOM      3  C   LIG A   1      -7.440  -2.694 131.751  0.00  0.00    +0.007 C 
BRANCH   2   4
ATOM      4  C   LIG A   1      -6.733  -0.967 129.868  0.00  0.00    +0.003 C 
BRANCH   4   5
ATOM      5  C   LIG A   1      -7.656   0.176 129.609  0.00  0.00    +0.005 C 
BRANCH   5   6
ATOM      6  C   LIG A   1      -7.359   1.674 129.054  0.00  0.00    +0.030 C 
BRANCH   6   7
ATOM      7  C   LIG A   1      -6.927   2.070 127.434  0.00  0.00    -0.074 C 
ATOM      8  C   LIG A   1      -7.862   2.999 126.827  0.00  0.00    -0.001 C 
ATOM      9  C   LIG A   1      -5.753   1.622 126.212  0.00  0.00    +0.038 C 
BRANCH   8  10
ATOM     10  C   LIG A   1      -7.709   3.406 125.439  0.00  0.00    +0.183 C 
BRANCH  10  11
ATOM     11  O   LIG A   1      -8.661   4.409 125.098  0.00  0.00    -0.391 OA
ATOM     12  H   LIG A   1      -8.718   5.031 125.834  0.00  0.00    +0.210 HD
ENDBRANCH  10  11
ENDBRANCH   8  10
ENDBRANCH   6   7
ENDBRANCH   5   6
ENDBRANCH   4   5
ENDBRANCH   2   4
ENDBRANCH   1   2
BRANCH   1  13
ATOM     13  C   LIG A   1      -8.720  -3.766 128.187  0.00  0.00    +0.000 C 
BRANCH  13  14
ATOM     14  C   LIG A   1      -8.740  -3.090 126.785  0.00  0.00    +0.003 C 
BRANCH  14  16
ATOM     15  C   LIG A   1      -9.201  -0.587 125.983  0.00  0.00    +0.007 C 
ATOM     16  C   LIG A   1      -8.068  -1.741 126.555  0.00  0.00    -0.014 C 
BRANCH  16  17
ATOM     17  C   LIG A   1      -6.233  -2.045 126.218  0.00  0.00    +0.003 C 
BRANCH  17  18
ATOM     18  C   LIG A   1      -5.367  -1.919 124.722  0.00  0.00    +0.000 C 
BRANCH  18  19
ATOM     19  C   LIG A   1      -5.881  -2.637 123.487  0.00  0.00    +0.003 C 
BRANCH  19  20
ATOM     20  C   LIG A   1      -6.818  -1.693 122.650  0.00  0.00    -0.017 C 
ATOM     21  C   LIG A   1      -8.236  -2.248 122.646  0.00  0.00    +0.007 C 
ATOM     22  C   LIG A   1      -6.868  -0.238 123.159  0.00  0.00    +0.007 C 
ENDBRANCH  19  20
ENDBRANCH  18  19
ENDBRANCH  17  18
ENDBRANCH  16  17
ENDBRANCH  14  16
ENDBRANCH  13  14
ENDBRANCH   1  13
TORSDOF 14
ENDMDL
MODEL 9
REMARK VINA RESULT:      -5.9      2.389      3.125
REMARK  Name = NuBBE_560
REMARK  19 active torsions:
REMARK  status: ('A' for Active; 'I' for Inactive)
REMARK    1  A    between atoms: C_1  and  C_2
REMARK    2  A    between atoms: C_2  and  C_4
REMARK    3  A    between atoms: C_2  and  C_18
REMARK    4  A    between atoms: C_4  and  C_5
REMARK    5  A    between atoms: C_5  and  C_6
REMARK    6  A    between atoms: C_6  and  C_7
REMARK    7  A    between atoms: C_7  and  C_9
REMARK    8  A    between atoms: C_7  and  C_10
REMARK    9  A    between atoms: C_10  and  C_11
REMARK   10  A    between atoms: C_11  and  C_12
REMARK   11  A    between atoms: C_12  and  C_13
REMARK   12  A    between atoms: C_13  and  C_17
REMARK   13  A    between atoms: C_14  and  C_15
REMARK   14  A    between atoms: C_15  and  O_16
REMARK   15  A    between atoms: C_18  and  C_19
REMARK   16  A    between atoms: C_19  and  C_20
REMARK   17  A    between atoms: C_20  and  C_21
REMARK   18  A    between atoms: C_21  and  C_22
REMARK   19  A    between atoms: C_21  and  C_23
REMARK                            x       y       z     vdW  Elec       q    Type
REMARK                         _______ _______ _______ _____ _____    ______ ____
ROOT
ATOM      1  C   LIG A   1      -6.327  -2.893 124.695  0.00  0.00    +0.003 C 
ENDROOT
BRANCH   1   2
ATOM      2  C   LIG A   1      -7.502  -2.705 123.636  0.00  0.00    -0.014 C 
ATOM      3  C   LIG A   1      -8.844  -3.139 124.270  0.00  0.00    +0.007 C 
BRANCH   2   4
ATOM      4  C   LIG A   1      -7.566  -1.295 122.858  0.00  0.00    +0.003 C 
BRANCH   4   5
ATOM      5  C   LIG A   1      -8.632  -0.488 123.520  0.00  0.00    +0.005 C 
BRANCH   5   6
ATOM      6  C   LIG A   1      -8.581   0.993 124.188  0.00  0.00    +0.030 C 
BRANCH   6   7
ATOM      7  C   LIG A   1      -7.164   1.954 124.374  0.00  0.00    -0.074 C 
ATOM      8  C   LIG A   1      -7.024   2.939 123.317  0.00  0.00    -0.001 C 
ATOM      9  C   LIG A   1      -5.742   2.062 125.392  0.00  0.00    +0.038 C 
BRANCH   8  10
ATOM     10  C   LIG A   1      -5.857   3.805 123.258  0.00  0.00    +0.183 C 
BRANCH  10  11
ATOM     11  O   LIG A   1      -6.112   5.043 123.914  0.00  0.00    -0.391 OA
ATOM     12  H   LIG A   1      -5.270   5.501 124.028  0.00  0.00    +0.210 HD
ENDBRANCH  10  11
ENDBRANCH   8  10
ENDBRANCH   6   7
ENDBRANCH   5   6
ENDBRANCH   4   5
ENDBRANCH   2   4
ENDBRANCH   1   2
BRANCH   1  13
ATOM     13  C   LIG A   1      -5.654  -1.744 125.543  0.00  0.00    +0.000 C 
BRANCH  13  14
ATOM     14  C   LIG A   1      -6.108  -1.294 126.962  0.00  0.00    +0.003 C 
BRANCH  14  16
ATOM     15  C   LIG A   1      -7.995   0.443 127.701  0.00  0.00    +0.007 C 
ATOM     16  C   LIG A   1      -7.588  -1.177 127.312  0.00  0.00    -0.014 C 
BRANCH  16  17
ATOM     17  C   LIG A   1      -8.181  -2.858 127.941  0.00  0.00    +0.003 C 
BRANCH  17  18
ATOM     18  C   LIG A   1      -8.094  -3.511 129.545  0.00  0.00    +0.000 C 
BRANCH  18  19
ATOM     19  C   LIG A   1      -6.897  -3.200 130.426  0.00  0.00    +0.003 C 
BRANCH  19  20
ATOM     20  C   LIG A   1      -5.789  -4.303 130.262  0.00  0.00    -0.017 C 
ATOM     21  C   LIG A   1      -4.523  -3.679 129.688  0.00  0.00    +0.007 C 
ATOM     22  C   LIG A   1      -5.421  -5.029 131.571  0.00  0.00    +0.007 C 
ENDBRANCH  19  20
ENDBRANCH  18  19
ENDBRANCH  17  18
ENDBRANCH  16  17
ENDBRANCH  14  16
ENDBRANCH  13  14
ENDBRANCH   1  13
TORSDOF 14
ENDMDL
