MODEL 1
REMARK VINA RESULT:      -7.1      0.000      0.000
REMARK  Name = NuBBE_1408
REMARK  0 active torsions:
REMARK  status: ('A' for Active; 'I' for Inactive)
REMARK                            x       y       z     vdW  Elec       q    Type
REMARK                         _______ _______ _______ _____ _____    ______ ____
ROOT
ATOM      1  O   LIG A   1     -10.579   7.932 125.788  0.00  0.00    -0.245 OA
ATOM      2  C   LIG A   1     -11.025   7.694 126.904  0.00  0.00    +0.337 A 
ATOM      3  C   LIG A   1     -12.477   7.698 127.150  0.00  0.00    +0.092 A 
ATOM      4  C   LIG A   1     -13.002   7.442 128.352  0.00  0.00    +0.018 A 
ATOM      5  O   LIG A   1     -10.207   7.409 127.988  0.00  0.00    -0.421 OA
ATOM      6  C   LIG A   1     -10.739   7.135 129.269  0.00  0.00    +0.150 A 
ATOM      7  C   LIG A   1     -12.126   7.146 129.476  0.00  0.00    +0.018 A 
ATOM      8  C   LIG A   1     -12.648   6.874 130.747  0.00  0.00    +0.015 A 
ATOM      9  C   LIG A   1     -11.808   6.587 131.832  0.00  0.00    +0.048 A 
ATOM     10  C   LIG A   1     -10.438   6.588 131.580  0.00  0.00    +0.138 A 
ATOM     11  C   LIG A   1      -9.872   6.851 130.338  0.00  0.00    +0.063 A 
ATOM     12  C   LIG A   1      -8.468   6.750 130.524  0.00  0.00    +0.053 A 
ATOM     13  C   LIG A   1      -8.274   6.436 131.850  0.00  0.00    +0.196 A 
ATOM     14  O   LIG A   1      -9.464   6.336 132.498  0.00  0.00    -0.463 OA
ENDROOT
TORSDOF 0
ENDMDL
MODEL 2
REMARK VINA RESULT:      -6.9      1.661      4.380
REMARK  Name = NuBBE_1408
REMARK  0 active torsions:
REMARK  status: ('A' for Active; 'I' for Inactive)
REMARK                            x       y       z     vdW  Elec       q    Type
REMARK                         _______ _______ _______ _____ _____    ______ ____
ROOT
ATOM      1  O   LIG A   1      -6.156   6.835 130.950  0.00  0.00    -0.245 OA
ATOM      2  C   LIG A   1      -7.362   6.729 131.138  0.00  0.00    +0.337 A 
ATOM      3  C   LIG A   1      -7.879   6.050 132.338  0.00  0.00    +0.092 A 
ATOM      4  C   LIG A   1      -9.186   5.915 132.579  0.00  0.00    +0.018 A 
ATOM      5  O   LIG A   1      -8.302   7.235 130.251  0.00  0.00    -0.421 OA
ATOM      6  C   LIG A   1      -9.691   7.105 130.485  0.00  0.00    +0.150 A 
ATOM      7  C   LIG A   1     -10.156   6.452 131.636  0.00  0.00    +0.018 A 
ATOM      8  C   LIG A   1     -11.532   6.326 131.863  0.00  0.00    +0.015 A 
ATOM      9  C   LIG A   1     -12.469   6.843 130.958  0.00  0.00    +0.048 A 
ATOM     10  C   LIG A   1     -11.961   7.482 129.828  0.00  0.00    +0.138 A 
ATOM     11  C   LIG A   1     -10.606   7.632 129.559  0.00  0.00    +0.063 A 
ATOM     12  C   LIG A   1     -10.533   8.332 128.325  0.00  0.00    +0.053 A 
ATOM     13  C   LIG A   1     -11.832   8.559 127.930  0.00  0.00    +0.196 A 
ATOM     14  O   LIG A   1     -12.705   8.046 128.836  0.00  0.00    -0.463 OA
ENDROOT
TORSDOF 0
ENDMDL
MODEL 3
REMARK VINA RESULT:      -6.4      8.377     10.555
REMARK  Name = NuBBE_1408
REMARK  0 active torsions:
REMARK  status: ('A' for Active; 'I' for Inactive)
REMARK                            x       y       z     vdW  Elec       q    Type
REMARK                         _______ _______ _______ _____ _____    ______ ____
ROOT
ATOM      1  O   LIG A   1      -9.800   1.735 123.081  0.00  0.00    -0.245 OA
ATOM      2  C   LIG A   1      -8.730   2.319 122.952  0.00  0.00    +0.337 A 
ATOM      3  C   LIG A   1      -7.778   2.399 124.072  0.00  0.00    +0.092 A 
ATOM      4  C   LIG A   1      -6.601   3.024 123.971  0.00  0.00    +0.018 A 
ATOM      5  O   LIG A   1      -8.353   2.929 121.764  0.00  0.00    -0.421 OA
ATOM      6  C   LIG A   1      -7.113   3.597 121.632  0.00  0.00    +0.150 A 
ATOM      7  C   LIG A   1      -6.224   3.659 122.716  0.00  0.00    +0.018 A 
ATOM      8  C   LIG A   1      -4.998   4.321 122.580  0.00  0.00    +0.015 A 
ATOM      9  C   LIG A   1      -4.631   4.933 121.374  0.00  0.00    +0.048 A 
ATOM     10  C   LIG A   1      -5.545   4.847 120.325  0.00  0.00    +0.138 A 
ATOM     11  C   LIG A   1      -6.772   4.201 120.411  0.00  0.00    +0.063 A 
ATOM     12  C   LIG A   1      -7.378   4.351 119.134  0.00  0.00    +0.053 A 
ATOM     13  C   LIG A   1      -6.489   5.069 118.366  0.00  0.00    +0.196 A 
ATOM     14  O   LIG A   1      -5.375   5.374 119.081  0.00  0.00    -0.463 OA
ENDROOT
TORSDOF 0
ENDMDL
MODEL 4
REMARK VINA RESULT:      -6.2      2.099      2.789
REMARK  Name = NuBBE_1408
REMARK  0 active torsions:
REMARK  status: ('A' for Active; 'I' for Inactive)
REMARK                            x       y       z     vdW  Elec       q    Type
REMARK                         _______ _______ _______ _____ _____    ______ ____
ROOT
ATOM      1  O   LIG A   1     -13.448   7.112 127.380  0.00  0.00    -0.245 OA
ATOM      2  C   LIG A   1     -12.420   7.131 128.047  0.00  0.00    +0.337 A 
ATOM      3  C   LIG A   1     -11.577   8.337 128.094  0.00  0.00    +0.092 A 
ATOM      4  C   LIG A   1     -10.451   8.397 128.810  0.00  0.00    +0.018 A 
ATOM      5  O   LIG A   1     -11.994   6.039 128.789  0.00  0.00    -0.421 OA
ATOM      6  C   LIG A   1     -10.805   6.078 129.555  0.00  0.00    +0.150 A 
ATOM      7  C   LIG A   1     -10.020   7.240 129.581  0.00  0.00    +0.018 A 
ATOM      8  C   LIG A   1      -8.844   7.275 130.341  0.00  0.00    +0.015 A 
ATOM      9  C   LIG A   1      -8.426   6.163 131.086  0.00  0.00    +0.048 A 
ATOM     10  C   LIG A   1      -9.237   5.031 131.029  0.00  0.00    +0.138 A 
ATOM     11  C   LIG A   1     -10.412   4.948 130.291  0.00  0.00    +0.063 A 
ATOM     12  C   LIG A   1     -10.915   3.639 130.511  0.00  0.00    +0.053 A 
ATOM     13  C   LIG A   1     -10.025   3.019 131.358  0.00  0.00    +0.196 A 
ATOM     14  O   LIG A   1      -9.003   3.856 131.677  0.00  0.00    -0.463 OA
ENDROOT
TORSDOF 0
ENDMDL
MODEL 5
REMARK VINA RESULT:      -6.1     10.769     11.728
REMARK  Name = NuBBE_1408
REMARK  0 active torsions:
REMARK  status: ('A' for Active; 'I' for Inactive)
REMARK                            x       y       z     vdW  Elec       q    Type
REMARK                         _______ _______ _______ _____ _____    ______ ____
ROOT
ATOM      1  O   LIG A   1      -5.438  -2.398 129.254  0.00  0.00    -0.245 OA
ATOM      2  C   LIG A   1      -6.325  -2.600 128.432  0.00  0.00    +0.337 A 
ATOM      3  C   LIG A   1      -7.624  -3.152 128.850  0.00  0.00    +0.092 A 
ATOM      4  C   LIG A   1      -8.616  -3.385 127.985  0.00  0.00    +0.018 A 
ATOM      5  O   LIG A   1      -6.165  -2.325 127.082  0.00  0.00    -0.421 OA
ATOM      6  C   LIG A   1      -7.200  -2.564 126.147  0.00  0.00    +0.150 A 
ATOM      7  C   LIG A   1      -8.429  -3.091 126.572  0.00  0.00    +0.018 A 
ATOM      8  C   LIG A   1      -9.450  -3.325 125.643  0.00  0.00    +0.015 A 
ATOM      9  C   LIG A   1      -9.274  -3.042 124.282  0.00  0.00    +0.048 A 
ATOM     10  C   LIG A   1      -8.037  -2.520 123.906  0.00  0.00    +0.138 A 
ATOM     11  C   LIG A   1      -6.995  -2.270 124.789  0.00  0.00    +0.063 A 
ATOM     12  C   LIG A   1      -5.935  -1.749 123.999  0.00  0.00    +0.053 A 
ATOM     13  C   LIG A   1      -6.399  -1.717 122.703  0.00  0.00    +0.196 A 
ATOM     14  O   LIG A   1      -7.673  -2.183 122.637  0.00  0.00    -0.463 OA
ENDROOT
TORSDOF 0
ENDMDL
MODEL 6
REMARK VINA RESULT:      -6.0      2.360      4.964
REMARK  Name = NuBBE_1408
REMARK  0 active torsions:
REMARK  status: ('A' for Active; 'I' for Inactive)
REMARK                            x       y       z     vdW  Elec       q    Type
REMARK                         _______ _______ _______ _____ _____    ______ ____
ROOT
ATOM      1  O   LIG A   1      -4.730   7.686 130.083  0.00  0.00    -0.245 OA
ATOM      2  C   LIG A   1      -5.650   7.211 130.739  0.00  0.00    +0.337 A 
ATOM      3  C   LIG A   1      -5.381   6.458 131.975  0.00  0.00    +0.092 A 
ATOM      4  C   LIG A   1      -6.356   5.925 132.718  0.00  0.00    +0.018 A 
ATOM      5  O   LIG A   1      -6.979   7.350 130.367  0.00  0.00    -0.421 OA
ATOM      6  C   LIG A   1      -8.028   6.796 131.136  0.00  0.00    +0.150 A 
ATOM      7  C   LIG A   1      -7.744   6.082 132.310  0.00  0.00    +0.018 A 
ATOM      8  C   LIG A   1      -8.787   5.536 133.068  0.00  0.00    +0.015 A 
ATOM      9  C   LIG A   1     -10.125   5.685 132.680  0.00  0.00    +0.048 A 
ATOM     10  C   LIG A   1     -10.359   6.400 131.507  0.00  0.00    +0.138 A 
ATOM     11  C   LIG A   1      -9.360   6.961 130.721  0.00  0.00    +0.063 A 
ATOM     12  C   LIG A   1     -10.028   7.591 129.637  0.00  0.00    +0.053 A 
ATOM     13  C   LIG A   1     -11.374   7.374 129.833  0.00  0.00    +0.196 A 
ATOM     14  O   LIG A   1     -11.584   6.652 130.965  0.00  0.00    -0.463 OA
ENDROOT
TORSDOF 0
ENDMDL
MODEL 7
REMARK VINA RESULT:      -5.9     10.575     10.792
REMARK  Name = NuBBE_1408
REMARK  0 active torsions:
REMARK  status: ('A' for Active; 'I' for Inactive)
REMARK                            x       y       z     vdW  Elec       q    Type
REMARK                         _______ _______ _______ _____ _____    ______ ____
ROOT
ATOM      1  O   LIG A   1      -6.620  -1.784 122.568  0.00  0.00    -0.245 OA
ATOM      2  C   LIG A   1      -7.152  -2.185 123.596  0.00  0.00    +0.337 A 
ATOM      3  C   LIG A   1      -8.452  -2.875 123.551  0.00  0.00    +0.092 A 
ATOM      4  C   LIG A   1      -9.063  -3.327 124.650  0.00  0.00    +0.018 A 
ATOM      5  O   LIG A   1      -6.574  -2.019 124.846  0.00  0.00    -0.421 OA
ATOM      6  C   LIG A   1      -7.202  -2.488 126.024  0.00  0.00    +0.150 A 
ATOM      7  C   LIG A   1      -8.441  -3.142 125.953  0.00  0.00    +0.018 A 
ATOM      8  C   LIG A   1      -9.057  -3.606 127.121  0.00  0.00    +0.015 A 
ATOM      9  C   LIG A   1      -8.461  -3.431 128.377  0.00  0.00    +0.048 A 
ATOM     10  C   LIG A   1      -7.231  -2.776 128.400  0.00  0.00    +0.138 A 
ATOM     11  C   LIG A   1      -6.580  -2.299 127.269  0.00  0.00    +0.063 A 
ATOM     12  C   LIG A   1      -5.376  -1.708 127.737  0.00  0.00    +0.053 A 
ATOM     13  C   LIG A   1      -5.374  -1.863 129.105  0.00  0.00    +0.196 A 
ATOM     14  O   LIG A   1      -6.496  -2.510 129.516  0.00  0.00    -0.463 OA
ENDROOT
TORSDOF 0
ENDMDL
MODEL 8
REMARK VINA RESULT:      -5.7      9.767     10.527
REMARK  Name = NuBBE_1408
REMARK  0 active torsions:
REMARK  status: ('A' for Active; 'I' for Inactive)
REMARK                            x       y       z     vdW  Elec       q    Type
REMARK                         _______ _______ _______ _____ _____    ______ ____
ROOT
ATOM      1  O   LIG A   1      -7.368   3.208 123.626  0.00  0.00    -0.245 OA
ATOM      2  C   LIG A   1      -7.836   2.082 123.504  0.00  0.00    +0.337 A 
ATOM      3  C   LIG A   1      -9.214   1.888 123.024  0.00  0.00    +0.092 A 
ATOM      4  C   LIG A   1      -9.759   0.677 122.876  0.00  0.00    +0.018 A 
ATOM      5  O   LIG A   1      -7.110   0.938 123.803  0.00  0.00    -0.421 OA
ATOM      6  C   LIG A   1      -7.665  -0.354 123.655  0.00  0.00    +0.150 A 
ATOM      7  C   LIG A   1      -8.981  -0.511 123.196  0.00  0.00    +0.018 A 
ATOM      8  C   LIG A   1      -9.525  -1.792 123.051  0.00  0.00    +0.015 A 
ATOM      9  C   LIG A   1      -8.779  -2.939 123.357  0.00  0.00    +0.048 A 
ATOM     10  C   LIG A   1      -7.477  -2.735 123.810  0.00  0.00    +0.138 A 
ATOM     11  C   LIG A   1      -6.893  -1.485 123.970  0.00  0.00    +0.063 A 
ATOM     12  C   LIG A   1      -5.577  -1.732 124.445  0.00  0.00    +0.053 A 
ATOM     13  C   LIG A   1      -5.450  -3.099 124.541  0.00  0.00    +0.196 A 
ATOM     14  O   LIG A   1      -6.598  -3.716 124.158  0.00  0.00    -0.463 OA
ENDROOT
TORSDOF 0
ENDMDL
MODEL 9
REMARK VINA RESULT:      -5.5      9.579     10.978
REMARK  Name = NuBBE_1408
REMARK  0 active torsions:
REMARK  status: ('A' for Active; 'I' for Inactive)
REMARK                            x       y       z     vdW  Elec       q    Type
REMARK                         _______ _______ _______ _____ _____    ______ ____
ROOT
ATOM      1  O   LIG A   1      -4.830   0.821 126.430  0.00  0.00    -0.245 OA
ATOM      2  C   LIG A   1      -5.535  -0.012 125.875  0.00  0.00    +0.337 A 
ATOM      3  C   LIG A   1      -5.247  -1.450 126.007  0.00  0.00    +0.092 A 
ATOM      4  C   LIG A   1      -5.993  -2.389 125.419  0.00  0.00    +0.018 A 
ATOM      5  O   LIG A   1      -6.633   0.337 125.102  0.00  0.00    -0.421 OA
ATOM      6  C   LIG A   1      -7.438  -0.638 124.469  0.00  0.00    +0.150 A 
ATOM      7  C   LIG A   1      -7.140  -2.002 124.611  0.00  0.00    +0.018 A 
ATOM      8  C   LIG A   1      -7.940  -2.964 123.983  0.00  0.00    +0.015 A 
ATOM      9  C   LIG A   1      -9.046  -2.595 123.205  0.00  0.00    +0.048 A 
ATOM     10  C   LIG A   1      -9.304  -1.230 123.091  0.00  0.00    +0.138 A 
ATOM     11  C   LIG A   1      -8.540  -0.239 123.695  0.00  0.00    +0.063 A 
ATOM     12  C   LIG A   1      -9.143   0.993 123.324  0.00  0.00    +0.053 A 
ATOM     13  C   LIG A   1     -10.221   0.673 122.529  0.00  0.00    +0.196 A 
ATOM     14  O   LIG A   1     -10.325  -0.674 122.382  0.00  0.00    -0.463 OA
ENDROOT
TORSDOF 0
ENDMDL
