MODEL 1
REMARK VINA RESULT:      -8.7      0.000      0.000
REMARK  Name = NuBBE_1611
REMARK  9 active torsions:
REMARK  status: ('A' for Active; 'I' for Inactive)
REMARK    1  A    between atoms: C_1  and  C_2
REMARK    2  A    between atoms: C_7  and  C_33
REMARK    3  A    between atoms: C_9  and  C_10
REMARK    4  A    between atoms: C_15  and  C_16
REMARK    5  A    between atoms: C_20  and  O_22
REMARK    6  A    between atoms: O_22  and  C_23
REMARK    7  A    between atoms: C_23  and  C_25
REMARK    8  A    between atoms: C_26  and  C_27
REMARK    9  A    between atoms: C_26  and  C_28
REMARK                            x       y       z     vdW  Elec       q    Type
REMARK                         _______ _______ _______ _____ _____    ______ ____
ROOT
ATOM      1  C   LIG A   1      -7.045   0.372 129.145  0.00  0.00    +0.020 C 
ATOM      2  C   LIG A   1      -6.370  -0.788 128.359  0.00  0.00    +0.030 C 
ATOM      3  C   LIG A   1      -5.454  -1.491 129.392  0.00  0.00    -0.050 C 
ATOM      4  C   LIG A   1      -4.210  -1.131 129.748  0.00  0.00    +0.047 C 
ATOM      5  C   LIG A   1      -3.894  -1.882 130.980  0.00  0.00    +0.164 C 
ATOM      6  O   LIG A   1      -2.782  -1.883 131.475  0.00  0.00    -0.292 OA
ATOM      7  C   LIG A   1      -5.145  -2.521 131.562  0.00  0.00    +0.102 C 
ATOM      8  C   LIG A   1      -5.986  -2.652 130.248  0.00  0.00    +0.004 C 
ATOM      9  C   LIG A   1      -5.612  -4.038 129.637  0.00  0.00    +0.017 C 
ATOM     10  C   LIG A   1      -7.518  -2.577 130.378  0.00  0.00    +0.012 C 
ATOM     11  C   LIG A   1      -8.256  -2.426 129.027  0.00  0.00    +0.006 C 
ATOM     12  C   LIG A   1      -7.370  -1.900 127.861  0.00  0.00    +0.012 C 
ATOM     13  C   LIG A   1      -8.094  -1.631 126.483  0.00  0.00    -0.006 C 
ATOM     14  C   LIG A   1      -9.083  -0.441 126.572  0.00  0.00    +0.016 C 
ATOM     15  C   LIG A   1      -7.008  -1.317 125.359  0.00  0.00    +0.016 C 
ATOM     16  C   LIG A   1      -5.583  -1.123 125.952  0.00  0.00    +0.051 C 
ATOM     17  C   LIG A   1      -5.579  -0.173 127.147  0.00  0.00    +0.187 C 
ATOM     18  C   LIG A   1      -6.951  -2.283 124.121  0.00  0.00    +0.031 C 
ATOM     19  C   LIG A   1      -6.388  -1.521 122.898  0.00  0.00    +0.019 C 
ATOM     20  C   LIG A   1      -6.076  -3.533 124.347  0.00  0.00    +0.019 C 
ATOM     21  C   LIG A   1      -8.345  -2.792 123.771  0.00  0.00    +0.162 C 
ATOM     22  O   LIG A   1      -8.770  -2.899 122.624  0.00  0.00    -0.292 OA
ATOM     23  C   LIG A   1      -9.167  -3.300 124.880  0.00  0.00    +0.043 C 
ATOM     24  C   LIG A   1      -9.006  -2.796 126.107  0.00  0.00    -0.016 C 
ENDROOT
BRANCH   7  25
ATOM     25  C   LIG A   1      -5.707  -1.675 132.678  0.00  0.00    +0.002 A 
ATOM     26  C   LIG A   1      -5.719  -0.250 132.769  0.00  0.00    +0.045 A 
ATOM     27  C   LIG A   1      -6.346   0.070 133.948  0.00  0.00    +0.195 A 
ATOM     28  O   LIG A   1      -6.762  -1.053 134.580  0.00  0.00    -0.471 OA
ATOM     29  C   LIG A   1      -6.393  -2.100 133.804  0.00  0.00    +0.199 A 
ENDBRANCH   7  25
BRANCH  17  30
ATOM     30  O   LIG A   1      -6.142   1.088 126.713  0.00  0.00    -0.461 OA
BRANCH  30  31
ATOM     31  C   LIG A   1      -5.302   1.918 126.034  0.00  0.00    +0.304 C 
ATOM     32  O   LIG A   1      -4.106   2.059 126.259  0.00  0.00    -0.251 OA
ATOM     33  C   LIG A   1      -6.012   2.613 124.919  0.00  0.00    +0.136 C 
ENDBRANCH  30  31
ENDBRANCH  17  30
TORSDOF 3
ENDMDL
MODEL 2
REMARK VINA RESULT:      -8.7      2.137      7.090
REMARK  Name = NuBBE_1611
REMARK  9 active torsions:
REMARK  status: ('A' for Active; 'I' for Inactive)
REMARK    1  A    between atoms: C_1  and  C_2
REMARK    2  A    between atoms: C_7  and  C_33
REMARK    3  A    between atoms: C_9  and  C_10
REMARK    4  A    between atoms: C_15  and  C_16
REMARK    5  A    between atoms: C_20  and  O_22
REMARK    6  A    between atoms: O_22  and  C_23
REMARK    7  A    between atoms: C_23  and  C_25
REMARK    8  A    between atoms: C_26  and  C_27
REMARK    9  A    between atoms: C_26  and  C_28
REMARK                            x       y       z     vdW  Elec       q    Type
REMARK                         _______ _______ _______ _____ _____    ______ ____
ROOT
ATOM      1  C   LIG A   1      -5.867   0.790 126.534  0.00  0.00    +0.020 C 
ATOM      2  C   LIG A   1      -7.039   0.352 127.456  0.00  0.00    +0.030 C 
ATOM      3  C   LIG A   1      -7.750  -0.788 126.685  0.00  0.00    -0.050 C 
ATOM      4  C   LIG A   1      -8.677  -0.659 125.722  0.00  0.00    +0.047 C 
ATOM      5  C   LIG A   1      -8.793  -1.980 125.072  0.00  0.00    +0.164 C 
ATOM      6  O   LIG A   1      -9.656  -2.229 124.250  0.00  0.00    -0.292 OA
ATOM      7  C   LIG A   1      -7.648  -2.891 125.487  0.00  0.00    +0.102 C 
ATOM      8  C   LIG A   1      -7.319  -2.252 126.878  0.00  0.00    +0.004 C 
ATOM      9  C   LIG A   1      -8.226  -2.988 127.912  0.00  0.00    +0.017 C 
ATOM     10  C   LIG A   1      -5.862  -2.332 127.368  0.00  0.00    +0.012 C 
ATOM     11  C   LIG A   1      -5.562  -1.440 128.594  0.00  0.00    +0.006 C 
ATOM     12  C   LIG A   1      -6.583  -0.289 128.823  0.00  0.00    +0.012 C 
ATOM     13  C   LIG A   1      -6.272   0.714 130.003  0.00  0.00    -0.006 C 
ATOM     14  C   LIG A   1      -5.018   1.578 129.711  0.00  0.00    +0.016 C 
ATOM     15  C   LIG A   1      -7.521   1.679 130.231  0.00  0.00    +0.016 C 
ATOM     16  C   LIG A   1      -8.585   1.542 129.104  0.00  0.00    +0.051 C 
ATOM     17  C   LIG A   1      -7.964   1.598 127.711  0.00  0.00    +0.187 C 
ATOM     18  C   LIG A   1      -8.215   1.639 131.639  0.00  0.00    +0.031 C 
ATOM     19  C   LIG A   1      -8.896   3.000 131.917  0.00  0.00    +0.019 C 
ATOM     20  C   LIG A   1      -9.285   0.536 131.774  0.00  0.00    +0.019 C 
ATOM     21  C   LIG A   1      -7.191   1.379 132.737  0.00  0.00    +0.162 C 
ATOM     22  O   LIG A   1      -7.183   1.956 133.821  0.00  0.00    -0.292 OA
ATOM     23  C   LIG A   1      -6.240   0.278 132.516  0.00  0.00    +0.043 C 
ATOM     24  C   LIG A   1      -5.873  -0.037 131.270  0.00  0.00    -0.016 C 
ENDROOT
BRANCH   7  25
ATOM     25  C   LIG A   1      -6.563  -2.896 124.439  0.00  0.00    +0.002 A 
ATOM     26  C   LIG A   1      -5.519  -3.856 124.272  0.00  0.00    +0.045 A 
ATOM     27  C   LIG A   1      -4.782  -3.460 123.182  0.00  0.00    +0.195 A 
ATOM     28  O   LIG A   1      -5.317  -2.345 122.632  0.00  0.00    -0.471 OA
ATOM     29  C   LIG A   1      -6.399  -2.019 123.379  0.00  0.00    +0.199 A 
ENDBRANCH   7  25
BRANCH  17  30
ATOM     30  O   LIG A   1      -7.239   2.846 127.598  0.00  0.00    -0.461 OA
BRANCH  30  31
ATOM     31  C   LIG A   1      -7.892   3.864 126.971  0.00  0.00    +0.304 C 
ATOM     32  O   LIG A   1      -8.284   4.893 127.506  0.00  0.00    -0.251 OA
ATOM     33  C   LIG A   1      -8.029   3.598 125.507  0.00  0.00    +0.136 C 
ENDBRANCH  30  31
ENDBRANCH  17  30
TORSDOF 3
ENDMDL
MODEL 3
REMARK VINA RESULT:      -8.5      3.323      4.295
REMARK  Name = NuBBE_1611
REMARK  9 active torsions:
REMARK  status: ('A' for Active; 'I' for Inactive)
REMARK    1  A    between atoms: C_1  and  C_2
REMARK    2  A    between atoms: C_7  and  C_33
REMARK    3  A    between atoms: C_9  and  C_10
REMARK    4  A    between atoms: C_15  and  C_16
REMARK    5  A    between atoms: C_20  and  O_22
REMARK    6  A    between atoms: O_22  and  C_23
REMARK    7  A    between atoms: C_23  and  C_25
REMARK    8  A    between atoms: C_26  and  C_27
REMARK    9  A    between atoms: C_26  and  C_28
REMARK                            x       y       z     vdW  Elec       q    Type
REMARK                         _______ _______ _______ _____ _____    ______ ____
ROOT
ATOM      1  C   LIG A   1      -7.746   2.956 126.207  0.00  0.00    +0.020 C 
ATOM      2  C   LIG A   1      -6.922   1.671 125.912  0.00  0.00    +0.030 C 
ATOM      3  C   LIG A   1      -5.594   1.860 126.686  0.00  0.00    -0.050 C 
ATOM      4  C   LIG A   1      -4.509   2.538 126.277  0.00  0.00    +0.047 C 
ATOM      5  C   LIG A   1      -3.656   2.720 127.469  0.00  0.00    +0.164 C 
ATOM      6  O   LIG A   1      -2.529   3.175 127.401  0.00  0.00    -0.292 OA
ATOM      7  C   LIG A   1      -4.418   2.377 128.739  0.00  0.00    +0.102 C 
ATOM      8  C   LIG A   1      -5.456   1.370 128.137  0.00  0.00    +0.004 C 
ATOM      9  C   LIG A   1      -4.781  -0.034 128.209  0.00  0.00    +0.017 C 
ATOM     10  C   LIG A   1      -6.834   1.282 128.817  0.00  0.00    +0.012 C 
ATOM     11  C   LIG A   1      -7.886   0.494 128.003  0.00  0.00    +0.006 C 
ATOM     12  C   LIG A   1      -7.558   0.349 126.489  0.00  0.00    +0.012 C 
ATOM     13  C   LIG A   1      -8.646  -0.362 125.590  0.00  0.00    -0.006 C 
ATOM     14  C   LIG A   1      -9.935   0.489 125.463  0.00  0.00    +0.016 C 
ATOM     15  C   LIG A   1      -8.052  -0.621 124.134  0.00  0.00    +0.016 C 
ATOM     16  C   LIG A   1      -6.687   0.094 123.917  0.00  0.00    +0.051 C 
ATOM     17  C   LIG A   1      -6.723   1.555 124.356  0.00  0.00    +0.187 C 
ATOM     18  C   LIG A   1      -7.967  -2.111 123.644  0.00  0.00    +0.031 C 
ATOM     19  C   LIG A   1      -8.026  -2.150 122.099  0.00  0.00    +0.019 C 
ATOM     20  C   LIG A   1      -6.682  -2.839 124.089  0.00  0.00    +0.019 C 
ATOM     21  C   LIG A   1      -9.133  -2.925 124.192  0.00  0.00    +0.162 C 
ATOM     22  O   LIG A   1      -9.762  -3.752 123.538  0.00  0.00    -0.292 OA
ATOM     23  C   LIG A   1      -9.424  -2.791 125.628  0.00  0.00    +0.043 C 
ATOM     24  C   LIG A   1      -9.153  -1.640 126.252  0.00  0.00    -0.016 C 
ENDROOT
BRANCH   7  25
ATOM     25  C   LIG A   1      -4.948   3.625 129.399  0.00  0.00    +0.002 A 
ATOM     26  C   LIG A   1      -5.052   3.894 130.798  0.00  0.00    +0.045 A 
ATOM     27  C   LIG A   1      -5.574   5.157 130.925  0.00  0.00    +0.195 A 
ATOM     28  O   LIG A   1      -5.766   5.713 129.706  0.00  0.00    -0.471 OA
ATOM     29  C   LIG A   1      -5.370   4.796 128.790  0.00  0.00    +0.199 A 
ENDBRANCH   7  25
BRANCH  17  30
ATOM     30  O   LIG A   1      -7.781   2.214 123.621  0.00  0.00    -0.461 OA
BRANCH  30  31
ATOM     31  C   LIG A   1      -7.385   3.070 122.638  0.00  0.00    +0.304 C 
ATOM     32  O   LIG A   1      -8.062   3.407 121.675  0.00  0.00    -0.251 OA
ATOM     33  C   LIG A   1      -6.017   3.606 122.905  0.00  0.00    +0.136 C 
ENDBRANCH  30  31
ENDBRANCH  17  30
TORSDOF 3
ENDMDL
MODEL 4
REMARK VINA RESULT:      -8.3      2.062      7.447
REMARK  Name = NuBBE_1611
REMARK  9 active torsions:
REMARK  status: ('A' for Active; 'I' for Inactive)
REMARK    1  A    between atoms: C_1  and  C_2
REMARK    2  A    between atoms: C_7  and  C_33
REMARK    3  A    between atoms: C_9  and  C_10
REMARK    4  A    between atoms: C_15  and  C_16
REMARK    5  A    between atoms: C_20  and  O_22
REMARK    6  A    between atoms: O_22  and  C_23
REMARK    7  A    between atoms: C_23  and  C_25
REMARK    8  A    between atoms: C_26  and  C_27
REMARK    9  A    between atoms: C_26  and  C_28
REMARK                            x       y       z     vdW  Elec       q    Type
REMARK                         _______ _______ _______ _____ _____    ______ ____
ROOT
ATOM      1  C   LIG A   1      -8.139  -2.395 128.222  0.00  0.00    +0.020 C 
ATOM      2  C   LIG A   1      -6.884  -1.480 128.283  0.00  0.00    +0.030 C 
ATOM      3  C   LIG A   1      -6.359  -1.422 126.827  0.00  0.00    -0.050 C 
ATOM      4  C   LIG A   1      -5.565  -2.316 126.217  0.00  0.00    +0.047 C 
ATOM      5  C   LIG A   1      -5.623  -2.011 124.773  0.00  0.00    +0.164 C 
ATOM      6  O   LIG A   1      -4.897  -2.556 123.962  0.00  0.00    -0.292 OA
ATOM      7  C   LIG A   1      -6.758  -1.047 124.468  0.00  0.00    +0.102 C 
ATOM      8  C   LIG A   1      -6.854  -0.334 125.859  0.00  0.00    +0.004 C 
ATOM      9  C   LIG A   1      -5.866   0.871 125.792  0.00  0.00    +0.017 C 
ATOM     10  C   LIG A   1      -8.234   0.194 126.291  0.00  0.00    +0.012 C 
ATOM     11  C   LIG A   1      -8.308   0.618 127.776  0.00  0.00    +0.006 C 
ATOM     12  C   LIG A   1      -7.193   0.015 128.677  0.00  0.00    +0.012 C 
ATOM     13  C   LIG A   1      -7.276   0.335 130.222  0.00  0.00    -0.006 C 
ATOM     14  C   LIG A   1      -8.499  -0.346 130.888  0.00  0.00    +0.016 C 
ATOM     15  C   LIG A   1      -5.948  -0.167 130.947  0.00  0.00    +0.016 C 
ATOM     16  C   LIG A   1      -5.056  -1.033 130.010  0.00  0.00    +0.051 C 
ATOM     17  C   LIG A   1      -5.855  -2.115 129.288  0.00  0.00    +0.187 C 
ATOM     18  C   LIG A   1      -5.074   0.912 131.681  0.00  0.00    +0.031 C 
ATOM     19  C   LIG A   1      -4.275   0.240 132.821  0.00  0.00    +0.019 C 
ATOM     20  C   LIG A   1      -4.070   1.632 130.756  0.00  0.00    +0.019 C 
ATOM     21  C   LIG A   1      -5.956   1.999 132.284  0.00  0.00    +0.162 C 
ATOM     22  O   LIG A   1      -5.780   2.488 133.396  0.00  0.00    -0.292 OA
ATOM     23  C   LIG A   1      -6.997   2.571 131.417  0.00  0.00    +0.043 C 
ATOM     24  C   LIG A   1      -7.548   1.818 130.460  0.00  0.00    -0.016 C 
ENDROOT
BRANCH   7  25
ATOM     25  C   LIG A   1      -7.973  -1.791 123.971  0.00  0.00    +0.002 A 
ATOM     26  C   LIG A   1      -8.350  -3.136 124.265  0.00  0.00    +0.045 A 
ATOM     27  C   LIG A   1      -9.532  -3.374 123.607  0.00  0.00    +0.195 A 
ATOM     28  O   LIG A   1      -9.940  -2.259 122.955  0.00  0.00    -0.471 OA
ATOM     29  C   LIG A   1      -9.010  -1.303 123.193  0.00  0.00    +0.199 A 
ENDBRANCH   7  25
BRANCH  17  30
ATOM     30  O   LIG A   1      -6.505  -2.930 130.292  0.00  0.00    -0.461 OA
BRANCH  30  31
ATOM     31  C   LIG A   1      -5.722  -3.856 130.913  0.00  0.00    +0.304 C 
ATOM     32  O   LIG A   1      -4.959  -4.632 130.352  0.00  0.00    -0.251 OA
ATOM     33  C   LIG A   1      -5.865  -3.777 132.398  0.00  0.00    +0.136 C 
ENDBRANCH  30  31
ENDBRANCH  17  30
TORSDOF 3
ENDMDL
MODEL 5
REMARK VINA RESULT:      -8.3      3.006      6.962
REMARK  Name = NuBBE_1611
REMARK  9 active torsions:
REMARK  status: ('A' for Active; 'I' for Inactive)
REMARK    1  A    between atoms: C_1  and  C_2
REMARK    2  A    between atoms: C_7  and  C_33
REMARK    3  A    between atoms: C_9  and  C_10
REMARK    4  A    between atoms: C_15  and  C_16
REMARK    5  A    between atoms: C_20  and  O_22
REMARK    6  A    between atoms: O_22  and  C_23
REMARK    7  A    between atoms: C_23  and  C_25
REMARK    8  A    between atoms: C_26  and  C_27
REMARK    9  A    between atoms: C_26  and  C_28
REMARK                            x       y       z     vdW  Elec       q    Type
REMARK                         _______ _______ _______ _____ _____    ______ ____
ROOT
ATOM      1  C   LIG A   1      -8.021   1.525 126.350  0.00  0.00    +0.020 C 
ATOM      2  C   LIG A   1      -7.019   1.343 127.525  0.00  0.00    +0.030 C 
ATOM      3  C   LIG A   1      -7.125  -0.153 127.913  0.00  0.00    -0.050 C 
ATOM      4  C   LIG A   1      -8.036  -0.717 128.723  0.00  0.00    +0.047 C 
ATOM      5  C   LIG A   1      -7.937  -2.175 128.512  0.00  0.00    +0.164 C 
ATOM      6  O   LIG A   1      -8.536  -2.976 129.207  0.00  0.00    -0.292 OA
ATOM      7  C   LIG A   1      -7.106  -2.490 127.278  0.00  0.00    +0.102 C 
ATOM      8  C   LIG A   1      -6.218  -1.201 127.246  0.00  0.00    +0.004 C 
ATOM      9  C   LIG A   1      -4.967  -1.521 128.121  0.00  0.00    +0.017 C 
ATOM     10  C   LIG A   1      -5.735  -0.708 125.870  0.00  0.00    +0.012 C 
ATOM     11  C   LIG A   1      -5.117   0.709 125.892  0.00  0.00    +0.006 C 
ATOM     12  C   LIG A   1      -5.510   1.567 127.129  0.00  0.00    +0.012 C 
ATOM     13  C   LIG A   1      -4.987   3.058 127.156  0.00  0.00    -0.006 C 
ATOM     14  C   LIG A   1      -5.655   3.924 126.057  0.00  0.00    +0.016 C 
ATOM     15  C   LIG A   1      -5.290   3.707 128.580  0.00  0.00    +0.016 C 
ATOM     16  C   LIG A   1      -6.211   2.809 129.455  0.00  0.00    +0.051 C 
ATOM     17  C   LIG A   1      -7.436   2.316 128.688  0.00  0.00    +0.187 C 
ATOM     18  C   LIG A   1      -4.061   4.205 129.422  0.00  0.00    +0.031 C 
ATOM     19  C   LIG A   1      -4.512   5.339 130.372  0.00  0.00    +0.019 C 
ATOM     20  C   LIG A   1      -3.406   3.101 130.278  0.00  0.00    +0.019 C 
ATOM     21  C   LIG A   1      -2.967   4.746 128.509  0.00  0.00    +0.162 C 
ATOM     22  O   LIG A   1      -2.318   5.762 128.741  0.00  0.00    -0.292 OA
ATOM     23  C   LIG A   1      -2.594   3.918 127.352  0.00  0.00    +0.043 C 
ATOM     24  C   LIG A   1      -3.509   3.127 126.783  0.00  0.00    -0.016 C 
ENDROOT
BRANCH   7  25
ATOM     25  C   LIG A   1      -7.996  -2.764 126.090  0.00  0.00    +0.002 A 
ATOM     26  C   LIG A   1      -7.736  -3.638 124.992  0.00  0.00    +0.045 A 
ATOM     27  C   LIG A   1      -8.831  -3.578 124.165  0.00  0.00    +0.195 A 
ATOM     28  O   LIG A   1      -9.773  -2.759 124.690  0.00  0.00    -0.471 OA
ATOM     29  C   LIG A   1      -9.275  -2.286 125.858  0.00  0.00    +0.199 A 
ENDBRANCH   7  25
BRANCH  17  30
ATOM     30  O   LIG A   1      -8.149   3.476 128.199  0.00  0.00    -0.461 OA
BRANCH  30  31
ATOM     31  C   LIG A   1      -8.718   4.274 129.145  0.00  0.00    +0.304 C 
ATOM     32  O   LIG A   1      -8.547   5.482 129.251  0.00  0.00    -0.251 OA
ATOM     33  C   LIG A   1      -9.639   3.497 130.026  0.00  0.00    +0.136 C 
ENDBRANCH  30  31
ENDBRANCH  17  30
TORSDOF 3
ENDMDL
MODEL 6
REMARK VINA RESULT:      -8.1      2.640      7.054
REMARK  Name = NuBBE_1611
REMARK  9 active torsions:
REMARK  status: ('A' for Active; 'I' for Inactive)
REMARK    1  A    between atoms: C_1  and  C_2
REMARK    2  A    between atoms: C_7  and  C_33
REMARK    3  A    between atoms: C_9  and  C_10
REMARK    4  A    between atoms: C_15  and  C_16
REMARK    5  A    between atoms: C_20  and  O_22
REMARK    6  A    between atoms: O_22  and  C_23
REMARK    7  A    between atoms: C_23  and  C_25
REMARK    8  A    between atoms: C_26  and  C_27
REMARK    9  A    between atoms: C_26  and  C_28
REMARK                            x       y       z     vdW  Elec       q    Type
REMARK                         _______ _______ _______ _____ _____    ______ ____
ROOT
ATOM      1  C   LIG A   1      -5.200  -0.359 128.030  0.00  0.00    +0.020 C 
ATOM      2  C   LIG A   1      -6.414   0.610 127.955  0.00  0.00    +0.030 C 
ATOM      3  C   LIG A   1      -6.941   0.480 126.504  0.00  0.00    -0.050 C 
ATOM      4  C   LIG A   1      -6.481   1.117 125.416  0.00  0.00    +0.047 C 
ATOM      5  C   LIG A   1      -7.060   0.423 124.248  0.00  0.00    +0.164 C 
ATOM      6  O   LIG A   1      -6.948   0.849 123.113  0.00  0.00    -0.292 OA
ATOM      7  C   LIG A   1      -7.682  -0.903 124.659  0.00  0.00    +0.102 C 
ATOM      8  C   LIG A   1      -8.013  -0.565 126.152  0.00  0.00    +0.004 C 
ATOM      9  C   LIG A   1      -9.443   0.058 126.142  0.00  0.00    +0.017 C 
ATOM     10  C   LIG A   1      -7.996  -1.727 127.161  0.00  0.00    +0.012 C 
ATOM     11  C   LIG A   1      -8.046  -1.275 128.639  0.00  0.00    +0.006 C 
ATOM     12  C   LIG A   1      -7.625   0.203 128.879  0.00  0.00    +0.012 C 
ATOM     13  C   LIG A   1      -7.562   0.691 130.380  0.00  0.00    -0.006 C 
ATOM     14  C   LIG A   1      -6.418  -0.002 131.164  0.00  0.00    +0.016 C 
ATOM     15  C   LIG A   1      -7.336   2.268 130.423  0.00  0.00    +0.016 C 
ATOM     16  C   LIG A   1      -7.002   2.855 129.021  0.00  0.00    +0.051 C 
ATOM     17  C   LIG A   1      -5.914   2.060 128.305  0.00  0.00    +0.187 C 
ATOM     18  C   LIG A   1      -8.441   3.137 131.124  0.00  0.00    +0.031 C 
ATOM     19  C   LIG A   1      -7.809   4.442 131.660  0.00  0.00    +0.019 C 
ATOM     20  C   LIG A   1      -9.611   3.522 130.195  0.00  0.00    +0.019 C 
ATOM     21  C   LIG A   1      -9.055   2.381 132.297  0.00  0.00    +0.162 C 
ATOM     22  O   LIG A   1      -9.321   2.893 133.381  0.00  0.00    -0.292 OA
ATOM     23  C   LIG A   1      -9.463   0.989 132.053  0.00  0.00    +0.043 C 
ATOM     24  C   LIG A   1      -8.806   0.256 131.149  0.00  0.00    -0.016 C 
ENDROOT
BRANCH   7  25
ATOM     25  C   LIG A   1      -6.735  -2.045 124.387  0.00  0.00    +0.002 A 
ATOM     26  C   LIG A   1      -5.307  -2.008 124.375  0.00  0.00    +0.045 A 
ATOM     27  C   LIG A   1      -4.876  -3.282 124.098  0.00  0.00    +0.195 A 
ATOM     28  O   LIG A   1      -5.932  -4.121 123.978  0.00  0.00    -0.471 OA
ATOM     29  C   LIG A   1      -7.048  -3.377 124.172  0.00  0.00    +0.199 A 
ENDBRANCH   7  25
BRANCH  17  30
ATOM     30  O   LIG A   1      -4.744   2.041 129.156  0.00  0.00    -0.461 OA
BRANCH  30  31
ATOM     31  C   LIG A   1      -3.862   3.066 128.986  0.00  0.00    +0.304 C 
ATOM     32  O   LIG A   1      -3.622   3.941 129.809  0.00  0.00    -0.251 OA
ATOM     33  C   LIG A   1      -3.164   2.966 127.670  0.00  0.00    +0.136 C 
ENDBRANCH  30  31
ENDBRANCH  17  30
TORSDOF 3
ENDMDL
MODEL 7
REMARK VINA RESULT:      -7.8      2.844      5.266
REMARK  Name = NuBBE_1611
REMARK  9 active torsions:
REMARK  status: ('A' for Active; 'I' for Inactive)
REMARK    1  A    between atoms: C_1  and  C_2
REMARK    2  A    between atoms: C_7  and  C_33
REMARK    3  A    between atoms: C_9  and  C_10
REMARK    4  A    between atoms: C_15  and  C_16
REMARK    5  A    between atoms: C_20  and  O_22
REMARK    6  A    between atoms: O_22  and  C_23
REMARK    7  A    between atoms: C_23  and  C_25
REMARK    8  A    between atoms: C_26  and  C_27
REMARK    9  A    between atoms: C_26  and  C_28
REMARK                            x       y       z     vdW  Elec       q    Type
REMARK                         _______ _______ _______ _____ _____    ______ ____
ROOT
ATOM      1  C   LIG A   1      -5.108   1.040 129.423  0.00  0.00    +0.020 C 
ATOM      2  C   LIG A   1      -6.388   1.434 128.633  0.00  0.00    +0.030 C 
ATOM      3  C   LIG A   1      -7.513   1.494 129.697  0.00  0.00    -0.050 C 
ATOM      4  C   LIG A   1      -8.233   0.465 130.172  0.00  0.00    +0.047 C 
ATOM      5  C   LIG A   1      -8.920   0.958 131.382  0.00  0.00    +0.164 C 
ATOM      6  O   LIG A   1      -9.765   0.304 131.966  0.00  0.00    -0.292 OA
ATOM      7  C   LIG A   1      -8.345   2.294 131.826  0.00  0.00    +0.102 C 
ATOM      8  C   LIG A   1      -7.816   2.804 130.443  0.00  0.00    +0.004 C 
ATOM      9  C   LIG A   1      -9.003   3.577 129.790  0.00  0.00    +0.017 C 
ATOM     10  C   LIG A   1      -6.583   3.725 130.452  0.00  0.00    +0.012 C 
ATOM     11  C   LIG A   1      -5.956   3.948 129.056  0.00  0.00    +0.006 C 
ATOM     12  C   LIG A   1      -6.337   2.875 127.996  0.00  0.00    +0.012 C 
ATOM     13  C   LIG A   1      -5.647   2.997 126.581  0.00  0.00    -0.006 C 
ATOM     14  C   LIG A   1      -4.125   2.712 126.654  0.00  0.00    +0.016 C 
ATOM     15  C   LIG A   1      -6.316   1.965 125.567  0.00  0.00    +0.016 C 
ATOM     16  C   LIG A   1      -7.275   0.971 126.283  0.00  0.00    +0.051 C 
ATOM     17  C   LIG A   1      -6.641   0.348 127.524  0.00  0.00    +0.187 C 
ATOM     18  C   LIG A   1      -7.009   2.556 124.287  0.00  0.00    +0.031 C 
ATOM     19  C   LIG A   1      -6.994   1.500 123.157  0.00  0.00    +0.019 C 
ATOM     20  C   LIG A   1      -8.472   2.988 124.515  0.00  0.00    +0.019 C 
ATOM     21  C   LIG A   1      -6.267   3.795 123.798  0.00  0.00    +0.162 C 
ATOM     22  O   LIG A   1      -6.039   4.039 122.617  0.00  0.00    -0.292 OA
ATOM     23  C   LIG A   1      -5.925   4.810 124.808  0.00  0.00    +0.043 C 
ATOM     24  C   LIG A   1      -5.695   4.434 126.070  0.00  0.00    -0.016 C 
ENDROOT
BRANCH   7  25
ATOM     25  C   LIG A   1      -7.342   2.102 132.937  0.00  0.00    +0.002 A 
ATOM     26  C   LIG A   1      -6.441   1.009 133.117  0.00  0.00    +0.045 A 
ATOM     27  C   LIG A   1      -5.714   1.273 134.252  0.00  0.00    +0.195 A 
ATOM     28  O   LIG A   1      -6.068   2.473 134.770  0.00  0.00    -0.471 OA
ATOM     29  C   LIG A   1      -7.034   2.978 133.965  0.00  0.00    +0.199 A 
ENDBRANCH   7  25
BRANCH  17  30
ATOM     30  O   LIG A   1      -5.417  -0.308 127.116  0.00  0.00    -0.461 OA
BRANCH  30  31
ATOM     31  C   LIG A   1      -5.501  -1.650 126.895  0.00  0.00    +0.304 C 
ATOM     32  O   LIG A   1      -5.676  -2.181 125.805  0.00  0.00    -0.251 OA
ATOM     33  C   LIG A   1      -5.294  -2.420 128.158  0.00  0.00    +0.136 C 
ENDBRANCH  30  31
ENDBRANCH  17  30
TORSDOF 3
ENDMDL
MODEL 8
REMARK VINA RESULT:      -7.8      3.976      7.037
REMARK  Name = NuBBE_1611
REMARK  9 active torsions:
REMARK  status: ('A' for Active; 'I' for Inactive)
REMARK    1  A    between atoms: C_1  and  C_2
REMARK    2  A    between atoms: C_7  and  C_33
REMARK    3  A    between atoms: C_9  and  C_10
REMARK    4  A    between atoms: C_15  and  C_16
REMARK    5  A    between atoms: C_20  and  O_22
REMARK    6  A    between atoms: O_22  and  C_23
REMARK    7  A    between atoms: C_23  and  C_25
REMARK    8  A    between atoms: C_26  and  C_27
REMARK    9  A    between atoms: C_26  and  C_28
REMARK                            x       y       z     vdW  Elec       q    Type
REMARK                         _______ _______ _______ _____ _____    ______ ____
ROOT
ATOM      1  C   LIG A   1      -7.169   0.688 129.617  0.00  0.00    +0.020 C 
ATOM      2  C   LIG A   1      -6.544   1.564 130.739  0.00  0.00    +0.030 C 
ATOM      3  C   LIG A   1      -6.173   0.568 131.866  0.00  0.00    -0.050 C 
ATOM      4  C   LIG A   1      -6.985   0.086 132.820  0.00  0.00    +0.047 C 
ATOM      5  C   LIG A   1      -6.282  -1.062 133.428  0.00  0.00    +0.164 C 
ATOM      6  O   LIG A   1      -6.696  -1.628 134.424  0.00  0.00    -0.292 OA
ATOM      7  C   LIG A   1      -5.085  -1.474 132.584  0.00  0.00    +0.102 C 
ATOM      8  C   LIG A   1      -4.788  -0.099 131.896  0.00  0.00    +0.004 C 
ATOM      9  C   LIG A   1      -3.807   0.653 132.847  0.00  0.00    +0.017 C 
ATOM     10  C   LIG A   1      -4.167  -0.133 130.487  0.00  0.00    +0.012 C 
ATOM     11  C   LIG A   1      -4.171   1.235 129.767  0.00  0.00    +0.006 C 
ATOM     12  C   LIG A   1      -5.190   2.264 130.336  0.00  0.00    +0.012 C 
ATOM     13  C   LIG A   1      -5.308   3.644 129.576  0.00  0.00    -0.006 C 
ATOM     14  C   LIG A   1      -5.922   3.474 128.163  0.00  0.00    +0.016 C 
ATOM     15  C   LIG A   1      -6.220   4.644 130.419  0.00  0.00    +0.016 C 
ATOM     16  C   LIG A   1      -6.931   3.935 131.607  0.00  0.00    +0.051 C 
ATOM     17  C   LIG A   1      -7.608   2.634 131.184  0.00  0.00    +0.187 C 
ATOM     18  C   LIG A   1      -5.563   5.986 130.903  0.00  0.00    +0.031 C 
ATOM     19  C   LIG A   1      -6.659   7.063 131.080  0.00  0.00    +0.019 C 
ATOM     20  C   LIG A   1      -4.802   5.857 132.239  0.00  0.00    +0.019 C 
ATOM     21  C   LIG A   1      -4.552   6.490 129.880  0.00  0.00    +0.162 C 
ATOM     22  O   LIG A   1      -4.434   7.667 129.552  0.00  0.00    -0.292 OA
ATOM     23  C   LIG A   1      -3.584   5.511 129.361  0.00  0.00    +0.043 C 
ATOM     24  C   LIG A   1      -3.928   4.222 129.275  0.00  0.00    -0.016 C 
ENDROOT
BRANCH   7  25
ATOM     25  C   LIG A   1      -5.433  -2.645 131.700  0.00  0.00    +0.002 A 
ATOM     26  C   LIG A   1      -6.622  -2.833 130.932  0.00  0.00    +0.045 A 
ATOM     27  C   LIG A   1      -6.489  -4.033 130.276  0.00  0.00    +0.195 A 
ATOM     28  O   LIG A   1      -5.284  -4.587 130.548  0.00  0.00    -0.471 OA
ATOM     29  C   LIG A   1      -4.643  -3.740 131.390  0.00  0.00    +0.199 A 
ENDBRANCH   7  25
BRANCH  17  30
ATOM     30  O   LIG A   1      -8.544   2.945 130.125  0.00  0.00    -0.461 OA
BRANCH  30  31
ATOM     31  C   LIG A   1      -9.856   3.019 130.486  0.00  0.00    +0.304 C 
ATOM     32  O   LIG A   1     -10.710   3.692 129.924  0.00  0.00    -0.251 OA
ATOM     33  C   LIG A   1     -10.151   2.120 131.642  0.00  0.00    +0.136 C 
ENDBRANCH  30  31
ENDBRANCH  17  30
TORSDOF 3
ENDMDL
MODEL 9
REMARK VINA RESULT:      -7.7      3.754      6.873
REMARK  Name = NuBBE_1611
REMARK  9 active torsions:
REMARK  status: ('A' for Active; 'I' for Inactive)
REMARK    1  A    between atoms: C_1  and  C_2
REMARK    2  A    between atoms: C_7  and  C_33
REMARK    3  A    between atoms: C_9  and  C_10
REMARK    4  A    between atoms: C_15  and  C_16
REMARK    5  A    between atoms: C_20  and  O_22
REMARK    6  A    between atoms: O_22  and  C_23
REMARK    7  A    between atoms: C_23  and  C_25
REMARK    8  A    between atoms: C_26  and  C_27
REMARK    9  A    between atoms: C_26  and  C_28
REMARK                            x       y       z     vdW  Elec       q    Type
REMARK                         _______ _______ _______ _____ _____    ______ ____
ROOT
ATOM      1  C   LIG A   1      -5.633   2.514 130.857  0.00  0.00    +0.020 C 
ATOM      2  C   LIG A   1      -6.443   1.457 131.658  0.00  0.00    +0.030 C 
ATOM      3  C   LIG A   1      -7.539   2.266 132.396  0.00  0.00    -0.050 C 
ATOM      4  C   LIG A   1      -7.415   2.920 133.561  0.00  0.00    +0.047 C 
ATOM      5  C   LIG A   1      -8.595   3.801 133.675  0.00  0.00    +0.164 C 
ATOM      6  O   LIG A   1      -8.851   4.422 134.690  0.00  0.00    -0.292 OA
ATOM      7  C   LIG A   1      -9.334   3.892 132.348  0.00  0.00    +0.102 C 
ATOM      8  C   LIG A   1      -8.905   2.516 131.736  0.00  0.00    +0.004 C 
ATOM      9  C   LIG A   1      -9.973   1.484 132.213  0.00  0.00    +0.017 C 
ATOM     10  C   LIG A   1      -8.796   2.427 130.203  0.00  0.00    +0.012 C 
ATOM     11  C   LIG A   1      -8.099   1.143 129.697  0.00  0.00    +0.006 C 
ATOM     12  C   LIG A   1      -7.221   0.421 130.759  0.00  0.00    +0.012 C 
ATOM     13  C   LIG A   1      -6.406  -0.841 130.270  0.00  0.00    -0.006 C 
ATOM     14  C   LIG A   1      -5.284  -0.453 129.274  0.00  0.00    +0.016 C 
ATOM     15  C   LIG A   1      -5.752  -1.576 131.525  0.00  0.00    +0.016 C 
ATOM     16  C   LIG A   1      -5.882  -0.741 132.832  0.00  0.00    +0.051 C 
ATOM     17  C   LIG A   1      -5.460   0.712 132.634  0.00  0.00    +0.187 C 
ATOM     18  C   LIG A   1      -6.174  -3.065 131.790  0.00  0.00    +0.031 C 
ATOM     19  C   LIG A   1      -5.040  -3.798 132.543  0.00  0.00    +0.019 C 
ATOM     20  C   LIG A   1      -7.466  -3.206 132.622  0.00  0.00    +0.019 C 
ATOM     21  C   LIG A   1      -6.430  -3.794 130.476  0.00  0.00    +0.162 C 
ATOM     22  O   LIG A   1      -6.067  -4.944 130.245  0.00  0.00    -0.292 OA
ATOM     23  C   LIG A   1      -7.273  -3.107 129.485  0.00  0.00    +0.043 C 
ATOM     24  C   LIG A   1      -7.285  -1.772 129.439  0.00  0.00    -0.016 C 
ENDROOT
BRANCH   7  25
ATOM     25  C   LIG A   1      -8.946   5.146 131.606  0.00  0.00    +0.002 A 
ATOM     26  C   LIG A   1      -9.804   6.202 131.172  0.00  0.00    +0.045 A 
ATOM     27  C   LIG A   1      -9.009   7.137 130.556  0.00  0.00    +0.195 A 
ATOM     28  O   LIG A   1      -7.710   6.759 130.610  0.00  0.00    -0.471 OA
ATOM     29  C   LIG A   1      -7.673   5.571 131.260  0.00  0.00    +0.199 A 
ENDBRANCH   7  25
BRANCH  17  30
ATOM     30  O   LIG A   1      -4.099   0.717 132.144  0.00  0.00    -0.461 OA
BRANCH  30  31
ATOM     31  C   LIG A   1      -3.127   0.940 133.073  0.00  0.00    +0.304 C 
ATOM     32  O   LIG A   1      -2.465   0.074 133.630  0.00  0.00    -0.251 OA
ATOM     33  C   LIG A   1      -2.919   2.402 133.298  0.00  0.00    +0.136 C 
ENDBRANCH  30  31
ENDBRANCH  17  30
TORSDOF 3
ENDMDL
