MODEL 1
REMARK VINA RESULT:      -6.6      0.000      0.000
REMARK  Name = NuBBE_2195
REMARK  9 active torsions:
REMARK  status: ('A' for Active; 'I' for Inactive)
REMARK    1  A    between atoms: C_1  and  C_2
REMARK    2  A    between atoms: C_2  and  C_3
REMARK    3  A    between atoms: C_7  and  C_8
REMARK    4  A    between atoms: C_7  and  C_10
REMARK    5  A    between atoms: C_14  and  C_15
REMARK    6  A    between atoms: C_15  and  C_16
REMARK    7  A    between atoms: C_16  and  O_17
REMARK    8  A    between atoms: C_20  and  C_21
REMARK    9  A    between atoms: C_20  and  C_22
REMARK                            x       y       z     vdW  Elec       q    Type
REMARK                         _______ _______ _______ _____ _____    ______ ____
ROOT
ATOM      1  C   LIG A   1      -7.646   6.053 132.313  0.00  0.00    +0.012 C 
ATOM      2  C   LIG A   1      -8.821   5.140 131.854  0.00  0.00    -0.019 C 
ATOM      3  C   LIG A   1      -8.274   3.968 130.869  0.00  0.00    +0.012 C 
ATOM      4  C   LIG A   1      -7.633   2.688 131.584  0.00  0.00    -0.031 C 
ATOM      5  C   LIG A   1      -6.138   2.827 131.939  0.00  0.00    +0.011 C 
ATOM      6  C   LIG A   1      -7.765   1.433 130.672  0.00  0.00    +0.011 C 
ATOM      7  C   LIG A   1      -8.405   2.312 132.870  0.00  0.00    +0.007 C 
ATOM      8  C   LIG A   1      -8.614   3.479 133.808  0.00  0.00    +0.001 C 
ATOM      9  C   LIG A   1      -9.478   4.512 133.117  0.00  0.00    +0.007 C 
ENDROOT
BRANCH   2  10
ATOM     10  C   LIG A   1      -9.905   6.086 131.132  0.00  0.00    +0.061 C 
ATOM     11  C   LIG A   1     -10.909   5.331 130.228  0.00  0.00    +0.138 C 
ATOM     12  C   LIG A   1     -11.896   6.172 129.458  0.00  0.00    +0.085 C 
ATOM     13  C   LIG A   1     -11.174   7.181 128.557  0.00  0.00    -0.008 C 
ATOM     14  C   LIG A   1     -10.329   6.441 127.495  0.00  0.00    +0.016 C 
ATOM     15  C   LIG A   1     -10.279   8.053 129.465  0.00  0.00    +0.012 C 
ATOM     16  C   LIG A   1      -9.286   7.251 130.322  0.00  0.00    +0.012 C 
ATOM     17  O   LIG A   1     -11.007   4.107 130.172  0.00  0.00    -0.297 OA
BRANCH  13  18
ATOM     18  C   LIG A   1     -12.141   8.088 127.798  0.00  0.00    -0.028 C 
ATOM     19  C   LIG A   1     -13.369   8.471 128.179  0.00  0.00    +0.004 C 
ENDBRANCH  13  18
ENDBRANCH   2  10
BRANCH   3  20
ATOM     20  C   LIG A   1      -7.423   4.563 129.710  0.00  0.00    +0.125 C 
BRANCH  20  21
ATOM     21  C   LIG A   1      -7.792   4.175 128.297  0.00  0.00    +0.305 C 
ATOM     22  O   LIG A   1      -7.250   4.559 127.281  0.00  0.00    -0.251 OA
BRANCH  21  23
ATOM     23  O   LIG A   1      -8.841   3.332 128.231  0.00  0.00    -0.481 OA
ATOM     24  H   LIG A   1      -9.584   3.882 128.565  0.00  0.00    +0.295 HD
ENDBRANCH  21  23
ENDBRANCH  20  21
ENDBRANCH   3  20
TORSDOF 5
ENDMDL
MODEL 2
REMARK VINA RESULT:      -6.5      6.922      8.717
REMARK  Name = NuBBE_2195
REMARK  9 active torsions:
REMARK  status: ('A' for Active; 'I' for Inactive)
REMARK    1  A    between atoms: C_1  and  C_2
REMARK    2  A    between atoms: C_2  and  C_3
REMARK    3  A    between atoms: C_7  and  C_8
REMARK    4  A    between atoms: C_7  and  C_10
REMARK    5  A    between atoms: C_14  and  C_15
REMARK    6  A    between atoms: C_15  and  C_16
REMARK    7  A    between atoms: C_16  and  O_17
REMARK    8  A    between atoms: C_20  and  C_21
REMARK    9  A    between atoms: C_20  and  C_22
REMARK                            x       y       z     vdW  Elec       q    Type
REMARK                         _______ _______ _______ _____ _____    ______ ____
ROOT
ATOM      1  C   LIG A   1      -8.027  -2.129 130.250  0.00  0.00    +0.012 C 
ATOM      2  C   LIG A   1      -6.993  -2.537 129.158  0.00  0.00    -0.019 C 
ATOM      3  C   LIG A   1      -5.594  -1.739 129.379  0.00  0.00    +0.012 C 
ATOM      4  C   LIG A   1      -4.598  -2.351 130.472  0.00  0.00    -0.031 C 
ATOM      5  C   LIG A   1      -4.870  -1.896 131.922  0.00  0.00    +0.011 C 
ATOM      6  C   LIG A   1      -3.127  -1.962 130.145  0.00  0.00    +0.011 C 
ATOM      7  C   LIG A   1      -4.604  -3.897 130.439  0.00  0.00    +0.007 C 
ATOM      8  C   LIG A   1      -5.991  -4.495 130.494  0.00  0.00    +0.001 C 
ATOM      9  C   LIG A   1      -6.754  -4.071 129.257  0.00  0.00    +0.007 C 
ENDROOT
BRANCH   2  10
ATOM     10  C   LIG A   1      -7.658  -2.215 127.729  0.00  0.00    +0.061 C 
ATOM     11  C   LIG A   1      -8.799  -3.178 127.323  0.00  0.00    +0.138 C 
ATOM     12  C   LIG A   1      -9.404  -2.979 125.956  0.00  0.00    +0.085 C 
ATOM     13  C   LIG A   1      -8.337  -3.085 124.862  0.00  0.00    -0.008 C 
ATOM     14  C   LIG A   1      -7.721  -4.502 124.849  0.00  0.00    +0.016 C 
ATOM     15  C   LIG A   1      -7.260  -2.018 125.161  0.00  0.00    +0.012 C 
ATOM     16  C   LIG A   1      -6.642  -2.130 126.564  0.00  0.00    +0.012 C 
ATOM     17  O   LIG A   1      -9.292  -4.022 128.070  0.00  0.00    -0.297 OA
BRANCH  13  18
ATOM     18  C   LIG A   1      -8.903  -2.837 123.464  0.00  0.00    -0.028 C 
ATOM     19  C   LIG A   1      -8.906  -1.684 122.778  0.00  0.00    +0.004 C 
ENDBRANCH  13  18
ENDBRANCH   2  10
BRANCH   3  20
ATOM     20  C   LIG A   1      -5.838  -0.207 129.504  0.00  0.00    +0.125 C 
BRANCH  20  21
ATOM     21  C   LIG A   1      -5.122   0.699 128.530  0.00  0.00    +0.305 C 
ATOM     22  O   LIG A   1      -5.475   0.961 127.398  0.00  0.00    -0.251 OA
BRANCH  21  23
ATOM     23  O   LIG A   1      -3.982   1.220 129.024  0.00  0.00    -0.481 OA
ATOM     24  H   LIG A   1      -4.050   2.169 128.777  0.00  0.00    +0.295 HD
ENDBRANCH  21  23
ENDBRANCH  20  21
ENDBRANCH   3  20
TORSDOF 5
ENDMDL
MODEL 3
REMARK VINA RESULT:      -6.5      7.179     10.290
REMARK  Name = NuBBE_2195
REMARK  9 active torsions:
REMARK  status: ('A' for Active; 'I' for Inactive)
REMARK    1  A    between atoms: C_1  and  C_2
REMARK    2  A    between atoms: C_2  and  C_3
REMARK    3  A    between atoms: C_7  and  C_8
REMARK    4  A    between atoms: C_7  and  C_10
REMARK    5  A    between atoms: C_14  and  C_15
REMARK    6  A    between atoms: C_15  and  C_16
REMARK    7  A    between atoms: C_16  and  O_17
REMARK    8  A    between atoms: C_20  and  C_21
REMARK    9  A    between atoms: C_20  and  C_22
REMARK                            x       y       z     vdW  Elec       q    Type
REMARK                         _______ _______ _______ _____ _____    ______ ____
ROOT
ATOM      1  C   LIG A   1      -8.929  -3.346 126.324  0.00  0.00    +0.012 C 
ATOM      2  C   LIG A   1      -7.732  -2.352 126.404  0.00  0.00    -0.019 C 
ATOM      3  C   LIG A   1      -7.050  -2.171 124.939  0.00  0.00    +0.012 C 
ATOM      4  C   LIG A   1      -7.769  -1.139 123.949  0.00  0.00    -0.031 C 
ATOM      5  C   LIG A   1      -8.931  -1.734 123.127  0.00  0.00    +0.011 C 
ATOM      6  C   LIG A   1      -6.744  -0.561 122.930  0.00  0.00    +0.011 C 
ATOM      7  C   LIG A   1      -8.296   0.100 124.710  0.00  0.00    +0.007 C 
ATOM      8  C   LIG A   1      -9.132  -0.248 125.920  0.00  0.00    +0.001 C 
ATOM      9  C   LIG A   1      -8.264  -0.983 126.919  0.00  0.00    +0.007 C 
ENDROOT
BRANCH   2  10
ATOM     10  C   LIG A   1      -6.698  -2.939 127.488  0.00  0.00    +0.061 C 
ATOM     11  C   LIG A   1      -7.317  -3.207 128.881  0.00  0.00    +0.138 C 
ATOM     12  C   LIG A   1      -6.378  -3.677 129.964  0.00  0.00    +0.085 C 
ATOM     13  C   LIG A   1      -5.241  -2.673 130.180  0.00  0.00    -0.008 C 
ATOM     14  C   LIG A   1      -5.807  -1.320 130.669  0.00  0.00    +0.016 C 
ATOM     15  C   LIG A   1      -4.506  -2.508 128.831  0.00  0.00    +0.012 C 
ATOM     16  C   LIG A   1      -5.420  -2.084 127.669  0.00  0.00    +0.012 C 
ATOM     17  O   LIG A   1      -8.520  -3.147 129.128  0.00  0.00    -0.297 OA
BRANCH  13  18
ATOM     18  C   LIG A   1      -4.238  -3.139 131.234  0.00  0.00    -0.028 C 
ATOM     19  C   LIG A   1      -4.337  -4.208 132.038  0.00  0.00    +0.004 C 
ENDBRANCH  13  18
ENDBRANCH   2  10
BRANCH   3  20
ATOM     20  C   LIG A   1      -6.708  -3.551 124.307  0.00  0.00    +0.125 C 
BRANCH  20  21
ATOM     21  C   LIG A   1      -5.273  -3.803 123.906  0.00  0.00    +0.305 C 
ATOM     22  O   LIG A   1      -4.453  -2.961 123.601  0.00  0.00    -0.251 OA
BRANCH  21  23
ATOM     23  O   LIG A   1      -4.944  -5.109 123.889  0.00  0.00    -0.481 OA
ATOM     24  H   LIG A   1      -4.849  -5.298 122.929  0.00  0.00    +0.295 HD
ENDBRANCH  21  23
ENDBRANCH  20  21
ENDBRANCH   3  20
TORSDOF 5
ENDMDL
MODEL 4
REMARK VINA RESULT:      -6.5      5.711      8.470
REMARK  Name = NuBBE_2195
REMARK  9 active torsions:
REMARK  status: ('A' for Active; 'I' for Inactive)
REMARK    1  A    between atoms: C_1  and  C_2
REMARK    2  A    between atoms: C_2  and  C_3
REMARK    3  A    between atoms: C_7  and  C_8
REMARK    4  A    between atoms: C_7  and  C_10
REMARK    5  A    between atoms: C_14  and  C_15
REMARK    6  A    between atoms: C_15  and  C_16
REMARK    7  A    between atoms: C_16  and  O_17
REMARK    8  A    between atoms: C_20  and  C_21
REMARK    9  A    between atoms: C_20  and  C_22
REMARK                            x       y       z     vdW  Elec       q    Type
REMARK                         _______ _______ _______ _____ _____    ______ ____
ROOT
ATOM      1  C   LIG A   1      -8.492  -0.464 125.759  0.00  0.00    +0.012 C 
ATOM      2  C   LIG A   1      -7.008  -0.253 125.334  0.00  0.00    -0.019 C 
ATOM      3  C   LIG A   1      -6.153  -1.615 125.574  0.00  0.00    +0.012 C 
ATOM      4  C   LIG A   1      -6.265  -2.728 124.429  0.00  0.00    -0.031 C 
ATOM      5  C   LIG A   1      -7.469  -3.682 124.570  0.00  0.00    +0.011 C 
ATOM      6  C   LIG A   1      -4.986  -3.615 124.407  0.00  0.00    +0.011 C 
ATOM      7  C   LIG A   1      -6.314  -2.089 123.022  0.00  0.00    +0.007 C 
ATOM      8  C   LIG A   1      -7.349  -0.994 122.894  0.00  0.00    +0.001 C 
ATOM      9  C   LIG A   1      -6.980   0.138 123.829  0.00  0.00    +0.007 C 
ENDROOT
BRANCH   2  10
ATOM     10  C   LIG A   1      -6.437   0.982 126.194  0.00  0.00    +0.061 C 
ATOM     11  C   LIG A   1      -7.210   2.309 125.995  0.00  0.00    +0.138 C 
ATOM     12  C   LIG A   1      -6.670   3.523 126.709  0.00  0.00    +0.085 C 
ATOM     13  C   LIG A   1      -5.218   3.800 126.302  0.00  0.00    -0.008 C 
ATOM     14  C   LIG A   1      -5.138   4.126 124.793  0.00  0.00    +0.016 C 
ATOM     15  C   LIG A   1      -4.394   2.538 126.639  0.00  0.00    +0.012 C 
ATOM     16  C   LIG A   1      -4.927   1.251 125.987  0.00  0.00    +0.012 C 
ATOM     17  O   LIG A   1      -8.267   2.409 125.376  0.00  0.00    -0.297 OA
BRANCH  13  18
ATOM     18  C   LIG A   1      -4.619   4.994 127.044  0.00  0.00    -0.028 C 
ATOM     19  C   LIG A   1      -3.458   5.038 127.715  0.00  0.00    +0.004 C 
ENDBRANCH  13  18
ENDBRANCH   2  10
BRANCH   3  20
ATOM     20  C   LIG A   1      -6.345  -2.148 127.023  0.00  0.00    +0.125 C 
BRANCH  20  21
ATOM     21  C   LIG A   1      -5.128  -2.199 127.918  0.00  0.00    +0.305 C 
ATOM     22  O   LIG A   1      -4.469  -3.185 128.181  0.00  0.00    -0.251 OA
BRANCH  21  23
ATOM     23  O   LIG A   1      -4.810  -1.005 128.455  0.00  0.00    -0.481 OA
ATOM     24  H   LIG A   1      -5.681  -0.555 128.518  0.00  0.00    +0.295 HD
ENDBRANCH  21  23
ENDBRANCH  20  21
ENDBRANCH   3  20
TORSDOF 5
ENDMDL
MODEL 5
REMARK VINA RESULT:      -6.3      6.081      9.591
REMARK  Name = NuBBE_2195
REMARK  9 active torsions:
REMARK  status: ('A' for Active; 'I' for Inactive)
REMARK    1  A    between atoms: C_1  and  C_2
REMARK    2  A    between atoms: C_2  and  C_3
REMARK    3  A    between atoms: C_7  and  C_8
REMARK    4  A    between atoms: C_7  and  C_10
REMARK    5  A    between atoms: C_14  and  C_15
REMARK    6  A    between atoms: C_15  and  C_16
REMARK    7  A    between atoms: C_16  and  O_17
REMARK    8  A    between atoms: C_20  and  C_21
REMARK    9  A    between atoms: C_20  and  C_22
REMARK                            x       y       z     vdW  Elec       q    Type
REMARK                         _______ _______ _______ _____ _____    ______ ____
ROOT
ATOM      1  C   LIG A   1      -6.023  -2.382 125.807  0.00  0.00    +0.012 C 
ATOM      2  C   LIG A   1      -7.548  -2.162 126.035  0.00  0.00    -0.019 C 
ATOM      3  C   LIG A   1      -8.057  -0.852 125.218  0.00  0.00    +0.012 C 
ATOM      4  C   LIG A   1      -8.377  -1.070 123.665  0.00  0.00    -0.031 C 
ATOM      5  C   LIG A   1      -7.156  -0.946 122.730  0.00  0.00    +0.011 C 
ATOM      6  C   LIG A   1      -9.427  -0.030 123.176  0.00  0.00    +0.011 C 
ATOM      7  C   LIG A   1      -9.046  -2.441 123.413  0.00  0.00    +0.007 C 
ATOM      8  C   LIG A   1      -8.300  -3.598 124.037  0.00  0.00    +0.001 C 
ATOM      9  C   LIG A   1      -8.306  -3.428 125.541  0.00  0.00    +0.007 C 
ENDROOT
BRANCH   2  10
ATOM     10  C   LIG A   1      -7.776  -2.017 127.622  0.00  0.00    +0.061 C 
ATOM     11  C   LIG A   1      -6.531  -1.534 128.404  0.00  0.00    +0.138 C 
ATOM     12  C   LIG A   1      -6.659  -1.460 129.905  0.00  0.00    +0.085 C 
ATOM     13  C   LIG A   1      -7.040  -2.823 130.493  0.00  0.00    -0.008 C 
ATOM     14  C   LIG A   1      -5.925  -3.857 130.214  0.00  0.00    +0.016 C 
ATOM     15  C   LIG A   1      -8.370  -3.254 129.837  0.00  0.00    +0.012 C 
ATOM     16  C   LIG A   1      -8.325  -3.295 128.301  0.00  0.00    +0.012 C 
ATOM     17  O   LIG A   1      -5.496  -1.130 127.879  0.00  0.00    -0.297 OA
BRANCH  13  18
ATOM     18  C   LIG A   1      -7.229  -2.776 132.009  0.00  0.00    -0.028 C 
ATOM     19  C   LIG A   1      -6.665  -3.576 132.926  0.00  0.00    +0.004 C 
ENDBRANCH  13  18
ENDBRANCH   2  10
BRANCH   3  20
ATOM     20  C   LIG A   1      -7.168   0.385 125.534  0.00  0.00    +0.125 C 
BRANCH  20  21
ATOM     21  C   LIG A   1      -7.740   1.448 126.443  0.00  0.00    +0.305 C 
ATOM     22  O   LIG A   1      -8.782   2.049 126.279  0.00  0.00    -0.251 OA
BRANCH  21  23
ATOM     23  O   LIG A   1      -6.961   1.715 127.509  0.00  0.00    -0.481 OA
ATOM     24  H   LIG A   1      -7.499   2.364 128.015  0.00  0.00    +0.295 HD
ENDBRANCH  21  23
ENDBRANCH  20  21
ENDBRANCH   3  20
TORSDOF 5
ENDMDL
MODEL 6
REMARK VINA RESULT:      -6.3      5.562      8.348
REMARK  Name = NuBBE_2195
REMARK  9 active torsions:
REMARK  status: ('A' for Active; 'I' for Inactive)
REMARK    1  A    between atoms: C_1  and  C_2
REMARK    2  A    between atoms: C_2  and  C_3
REMARK    3  A    between atoms: C_7  and  C_8
REMARK    4  A    between atoms: C_7  and  C_10
REMARK    5  A    between atoms: C_14  and  C_15
REMARK    6  A    between atoms: C_15  and  C_16
REMARK    7  A    between atoms: C_16  and  O_17
REMARK    8  A    between atoms: C_20  and  C_21
REMARK    9  A    between atoms: C_20  and  C_22
REMARK                            x       y       z     vdW  Elec       q    Type
REMARK                         _______ _______ _______ _____ _____    ______ ____
ROOT
ATOM      1  C   LIG A   1      -7.047  -3.270 130.259  0.00  0.00    +0.012 C 
ATOM      2  C   LIG A   1      -6.122  -2.608 129.195  0.00  0.00    -0.019 C 
ATOM      3  C   LIG A   1      -5.998  -1.011 129.469  0.00  0.00    +0.012 C 
ATOM      4  C   LIG A   1      -4.939  -0.567 130.584  0.00  0.00    -0.031 C 
ATOM      5  C   LIG A   1      -5.477  -0.583 132.031  0.00  0.00    +0.011 C 
ATOM      6  C   LIG A   1      -4.432   0.878 130.308  0.00  0.00    +0.011 C 
ATOM      7  C   LIG A   1      -3.663  -1.439 130.531  0.00  0.00    +0.007 C 
ATOM      8  C   LIG A   1      -3.948  -2.923 130.535  0.00  0.00    +0.001 C 
ATOM      9  C   LIG A   1      -4.719  -3.276 129.281  0.00  0.00    +0.007 C 
ENDROOT
BRANCH   2  10
ATOM     10  C   LIG A   1      -6.753  -2.930 127.750  0.00  0.00    +0.061 C 
ATOM     11  C   LIG A   1      -6.260  -1.999 126.616  0.00  0.00    +0.138 C 
ATOM     12  C   LIG A   1      -6.880  -2.197 125.256  0.00  0.00    +0.085 C 
ATOM     13  C   LIG A   1      -8.403  -2.038 125.317  0.00  0.00    -0.008 C 
ATOM     14  C   LIG A   1      -8.775  -0.601 125.746  0.00  0.00    +0.016 C 
ATOM     15  C   LIG A   1      -8.935  -3.073 126.333  0.00  0.00    +0.012 C 
ATOM     16  C   LIG A   1      -8.300  -2.962 127.729  0.00  0.00    +0.012 C 
ATOM     17  O   LIG A   1      -5.347  -1.184 126.736  0.00  0.00    -0.297 OA
BRANCH  13  18
ATOM     18  C   LIG A   1      -9.074  -2.283 123.966  0.00  0.00    -0.028 C 
ATOM     19  C   LIG A   1      -9.534  -3.446 123.482  0.00  0.00    +0.004 C 
ENDBRANCH  13  18
ENDBRANCH   2  10
BRANCH   3  20
ATOM     20  C   LIG A   1      -7.402  -0.356 129.607  0.00  0.00    +0.125 C 
BRANCH  20  21
ATOM     21  C   LIG A   1      -7.662   0.916 128.834  0.00  0.00    +0.305 C 
ATOM     22  O   LIG A   1      -8.590   1.682 128.999  0.00  0.00    -0.251 OA
BRANCH  21  23
ATOM     23  O   LIG A   1      -6.748   1.153 127.872  0.00  0.00    -0.481 OA
ATOM     24  H   LIG A   1      -6.004   0.566 128.129  0.00  0.00    +0.295 HD
ENDBRANCH  21  23
ENDBRANCH  20  21
ENDBRANCH   3  20
TORSDOF 5
ENDMDL
MODEL 7
REMARK VINA RESULT:      -6.3      5.873      9.134
REMARK  Name = NuBBE_2195
REMARK  9 active torsions:
REMARK  status: ('A' for Active; 'I' for Inactive)
REMARK    1  A    between atoms: C_1  and  C_2
REMARK    2  A    between atoms: C_2  and  C_3
REMARK    3  A    between atoms: C_7  and  C_8
REMARK    4  A    between atoms: C_7  and  C_10
REMARK    5  A    between atoms: C_14  and  C_15
REMARK    6  A    between atoms: C_15  and  C_16
REMARK    7  A    between atoms: C_16  and  O_17
REMARK    8  A    between atoms: C_20  and  C_21
REMARK    9  A    between atoms: C_20  and  C_22
REMARK                            x       y       z     vdW  Elec       q    Type
REMARK                         _______ _______ _______ _____ _____    ______ ____
ROOT
ATOM      1  C   LIG A   1      -7.805   2.074 124.182  0.00  0.00    +0.012 C 
ATOM      2  C   LIG A   1      -7.212   1.136 125.274  0.00  0.00    -0.019 C 
ATOM      3  C   LIG A   1      -6.402   2.004 126.385  0.00  0.00    +0.012 C 
ATOM      4  C   LIG A   1      -7.287   2.686 127.531  0.00  0.00    -0.031 C 
ATOM      5  C   LIG A   1      -7.877   4.062 127.159  0.00  0.00    +0.011 C 
ATOM      6  C   LIG A   1      -6.442   2.891 128.821  0.00  0.00    +0.011 C 
ATOM      7  C   LIG A   1      -8.447   1.763 127.973  0.00  0.00    +0.007 C 
ATOM      8  C   LIG A   1      -9.268   1.233 126.819  0.00  0.00    +0.001 C 
ATOM      9  C   LIG A   1      -8.383   0.365 125.949  0.00  0.00    +0.007 C 
ENDROOT
BRANCH   2  10
ATOM     10  C   LIG A   1      -6.265   0.072 124.525  0.00  0.00    +0.061 C 
ATOM     11  C   LIG A   1      -6.972  -0.739 123.412  0.00  0.00    +0.138 C 
ATOM     12  C   LIG A   1      -6.159  -1.812 122.732  0.00  0.00    +0.085 C 
ATOM     13  C   LIG A   1      -5.635  -2.833 123.748  0.00  0.00    -0.008 C 
ATOM     14  C   LIG A   1      -6.815  -3.564 124.428  0.00  0.00    +0.016 C 
ATOM     15  C   LIG A   1      -4.791  -2.061 124.786  0.00  0.00    +0.012 C 
ATOM     16  C   LIG A   1      -5.546  -0.914 125.478  0.00  0.00    +0.012 C 
ATOM     17  O   LIG A   1      -8.105  -0.505 122.997  0.00  0.00    -0.297 OA
BRANCH  13  18
ATOM     18  C   LIG A   1      -4.763  -3.908 123.103  0.00  0.00    -0.028 C 
ATOM     19  C   LIG A   1      -4.363  -5.068 123.645  0.00  0.00    +0.004 C 
ENDBRANCH  13  18
ENDBRANCH   2  10
BRANCH   3  20
ATOM     20  C   LIG A   1      -5.368   2.951 125.710  0.00  0.00    +0.125 C 
BRANCH  20  21
ATOM     21  C   LIG A   1      -3.956   2.946 126.248  0.00  0.00    +0.305 C 
ATOM     22  O   LIG A   1      -3.155   3.855 126.175  0.00  0.00    -0.251 OA
BRANCH  21  23
ATOM     23  O   LIG A   1      -3.613   1.784 126.838  0.00  0.00    -0.481 OA
ATOM     24  H   LIG A   1      -2.721   1.605 126.466  0.00  0.00    +0.295 HD
ENDBRANCH  21  23
ENDBRANCH  20  21
ENDBRANCH   3  20
TORSDOF 5
ENDMDL
MODEL 8
REMARK VINA RESULT:      -6.2      4.660      7.468
REMARK  Name = NuBBE_2195
REMARK  9 active torsions:
REMARK  status: ('A' for Active; 'I' for Inactive)
REMARK    1  A    between atoms: C_1  and  C_2
REMARK    2  A    between atoms: C_2  and  C_3
REMARK    3  A    between atoms: C_7  and  C_8
REMARK    4  A    between atoms: C_7  and  C_10
REMARK    5  A    between atoms: C_14  and  C_15
REMARK    6  A    between atoms: C_15  and  C_16
REMARK    7  A    between atoms: C_16  and  O_17
REMARK    8  A    between atoms: C_20  and  C_21
REMARK    9  A    between atoms: C_20  and  C_22
REMARK                            x       y       z     vdW  Elec       q    Type
REMARK                         _______ _______ _______ _____ _____    ______ ____
ROOT
ATOM      1  C   LIG A   1      -7.030   1.753 125.228  0.00  0.00    +0.012 C 
ATOM      2  C   LIG A   1      -6.241   1.214 126.457  0.00  0.00    -0.019 C 
ATOM      3  C   LIG A   1      -7.233   0.388 127.446  0.00  0.00    +0.012 C 
ATOM      4  C   LIG A   1      -7.530  -1.131 127.040  0.00  0.00    -0.031 C 
ATOM      5  C   LIG A   1      -8.685  -1.317 126.033  0.00  0.00    +0.011 C 
ATOM      6  C   LIG A   1      -7.891  -1.970 128.300  0.00  0.00    +0.011 C 
ATOM      7  C   LIG A   1      -6.270  -1.819 126.466  0.00  0.00    +0.007 C 
ATOM      8  C   LIG A   1      -5.599  -1.027 125.367  0.00  0.00    +0.001 C 
ATOM      9  C   LIG A   1      -5.105   0.283 125.942  0.00  0.00    +0.007 C 
ENDROOT
BRANCH   2  10
ATOM     10  C   LIG A   1      -5.571   2.482 127.188  0.00  0.00    +0.061 C 
ATOM     11  C   LIG A   1      -4.917   3.501 126.224  0.00  0.00    +0.138 C 
ATOM     12  C   LIG A   1      -4.198   4.668 126.855  0.00  0.00    +0.085 C 
ATOM     13  C   LIG A   1      -3.089   4.186 127.797  0.00  0.00    -0.008 C 
ATOM     14  C   LIG A   1      -2.015   3.406 127.005  0.00  0.00    +0.016 C 
ATOM     15  C   LIG A   1      -3.748   3.288 128.867  0.00  0.00    +0.012 C 
ATOM     16  C   LIG A   1      -4.547   2.109 128.287  0.00  0.00    +0.012 C 
ATOM     17  O   LIG A   1      -5.024   3.465 125.000  0.00  0.00    -0.297 OA
BRANCH  13  18
ATOM     18  C   LIG A   1      -2.371   5.340 128.495  0.00  0.00    -0.028 C 
ATOM     19  C   LIG A   1      -2.421   6.643 128.180  0.00  0.00    +0.004 C 
ENDBRANCH  13  18
ENDBRANCH   2  10
BRANCH   3  20
ATOM     20  C   LIG A   1      -8.495   1.227 127.800  0.00  0.00    +0.125 C 
BRANCH  20  21
ATOM     21  C   LIG A   1      -8.541   1.885 129.160  0.00  0.00    +0.305 C 
ATOM     22  O   LIG A   1      -7.849   1.606 130.118  0.00  0.00    -0.251 OA
BRANCH  21  23
ATOM     23  O   LIG A   1      -9.472   2.854 129.253  0.00  0.00    -0.481 OA
ATOM     24  H   LIG A   1      -9.610   3.116 128.316  0.00  0.00    +0.295 HD
ENDBRANCH  21  23
ENDBRANCH  20  21
ENDBRANCH   3  20
TORSDOF 5
ENDMDL
MODEL 9
REMARK VINA RESULT:      -6.1      4.610      7.383
REMARK  Name = NuBBE_2195
REMARK  9 active torsions:
REMARK  status: ('A' for Active; 'I' for Inactive)
REMARK    1  A    between atoms: C_1  and  C_2
REMARK    2  A    between atoms: C_2  and  C_3
REMARK    3  A    between atoms: C_7  and  C_8
REMARK    4  A    between atoms: C_7  and  C_10
REMARK    5  A    between atoms: C_14  and  C_15
REMARK    6  A    between atoms: C_15  and  C_16
REMARK    7  A    between atoms: C_16  and  O_17
REMARK    8  A    between atoms: C_20  and  C_21
REMARK    9  A    between atoms: C_20  and  C_22
REMARK                            x       y       z     vdW  Elec       q    Type
REMARK                         _______ _______ _______ _____ _____    ______ ____
ROOT
ATOM      1  C   LIG A   1      -7.650   1.632 128.926  0.00  0.00    +0.012 C 
ATOM      2  C   LIG A   1      -6.756   1.586 127.651  0.00  0.00    -0.019 C 
ATOM      3  C   LIG A   1      -6.341   3.092 127.199  0.00  0.00    +0.012 C 
ATOM      4  C   LIG A   1      -5.104   3.746 127.976  0.00  0.00    -0.031 C 
ATOM      5  C   LIG A   1      -5.471   4.448 129.301  0.00  0.00    +0.011 C 
ATOM      6  C   LIG A   1      -4.402   4.809 127.081  0.00  0.00    +0.011 C 
ATOM      7  C   LIG A   1      -4.003   2.701 128.268  0.00  0.00    +0.007 C 
ATOM      8  C   LIG A   1      -4.525   1.445 128.927  0.00  0.00    +0.001 C 
ATOM      9  C   LIG A   1      -5.480   0.756 127.976  0.00  0.00    +0.007 C 
ENDROOT
BRANCH   2  10
ATOM     10  C   LIG A   1      -7.590   0.816 126.511  0.00  0.00    +0.061 C 
ATOM     11  C   LIG A   1      -7.964  -0.642 126.868  0.00  0.00    +0.138 C 
ATOM     12  C   LIG A   1      -8.672  -1.443 125.805  0.00  0.00    +0.085 C 
ATOM     13  C   LIG A   1      -7.839  -1.510 124.520  0.00  0.00    -0.008 C 
ATOM     14  C   LIG A   1      -6.506  -2.245 124.784  0.00  0.00    +0.016 C 
ATOM     15  C   LIG A   1      -7.587  -0.058 124.056  0.00  0.00    +0.012 C 
ATOM     16  C   LIG A   1      -6.916   0.830 125.117  0.00  0.00    +0.012 C 
ATOM     17  O   LIG A   1      -7.800  -1.148 127.977  0.00  0.00    -0.297 OA
BRANCH  13  18
ATOM     18  C   LIG A   1      -8.548  -2.270 123.400  0.00  0.00    -0.028 C 
ATOM     19  C   LIG A   1      -9.483  -3.223 123.525  0.00  0.00    +0.004 C 
ENDBRANCH  13  18
ENDBRANCH   2  10
BRANCH   3  20
ATOM     20  C   LIG A   1      -7.594   4.006 127.081  0.00  0.00    +0.125 C 
BRANCH  20  21
ATOM     21  C   LIG A   1      -8.012   4.449 125.698  0.00  0.00    +0.305 C 
ATOM     22  O   LIG A   1      -8.789   3.875 124.962  0.00  0.00    -0.251 OA
BRANCH  21  23
ATOM     23  O   LIG A   1      -7.415   5.589 125.299  0.00  0.00    -0.481 OA
ATOM     24  H   LIG A   1      -7.368   6.113 126.129  0.00  0.00    +0.295 HD
ENDBRANCH  21  23
ENDBRANCH  20  21
ENDBRANCH   3  20
TORSDOF 5
ENDMDL
