MODEL 1
REMARK VINA RESULT:      -8.2      0.000      0.000
REMARK  Name = NuBBE_2512
REMARK  6 active torsions:
REMARK  status: ('A' for Active; 'I' for Inactive)
REMARK    1  A    between atoms: C_2  and  C_3
REMARK    2  A    between atoms: C_2  and  C_15
REMARK    3  A    between atoms: C_7  and  O_8
REMARK    4  A    between atoms: C_9  and  O_10
REMARK    5  A    between atoms: C_18  and  O_19
REMARK    6  A    between atoms: C_21  and  O_22
REMARK                            x       y       z     vdW  Elec       q    Type
REMARK                         _______ _______ _______ _____ _____    ______ ____
ROOT
ATOM      1  C   LIG A   1      -8.097   1.407 122.526  0.00  0.00    +0.065 C 
ATOM      2  C   LIG A   1      -9.524   1.050 122.950  0.00  0.00    +0.016 C 
ATOM      3  C   LIG A   1      -9.741  -0.459 122.853  0.00  0.00    +0.040 C 
ATOM      4  C   LIG A   1      -8.656  -1.270 123.521  0.00  0.00    +0.001 A 
ATOM      5  C   LIG A   1      -8.843  -2.623 123.843  0.00  0.00    +0.162 A 
ATOM      6  C   LIG A   1      -7.836  -3.354 124.477  0.00  0.00    +0.159 A 
ATOM      7  C   LIG A   1      -6.619  -2.776 124.787  0.00  0.00    +0.049 A 
ATOM      8  C   LIG A   1      -6.400  -1.443 124.447  0.00  0.00    +0.008 A 
ATOM      9  C   LIG A   1      -7.401  -0.687 123.803  0.00  0.00    -0.040 A 
ATOM     10  C   LIG A   1      -7.102   0.764 123.496  0.00  0.00    +0.047 C 
ENDROOT
BRANCH   1  12
ATOM     11  O   LIG A   1      -8.270   3.586 123.526  0.00  0.00    -0.292 OA
ATOM     12  C   LIG A   1      -7.914   2.918 122.551  0.00  0.00    +0.170 C 
BRANCH  12  13
ATOM     13  C   LIG A   1      -7.362   3.642 121.370  0.00  0.00    +0.059 A 
ATOM     14  C   LIG A   1      -6.001   3.994 121.429  0.00  0.00    +0.018 A 
ATOM     15  C   LIG A   1      -5.388   4.673 120.375  0.00  0.00    +0.046 A 
ATOM     16  C   LIG A   1      -6.137   4.995 119.251  0.00  0.00    +0.120 A 
ATOM     17  C   LIG A   1      -7.480   4.642 119.161  0.00  0.00    +0.091 A 
ATOM     18  C   LIG A   1      -8.092   3.960 120.217  0.00  0.00    +0.131 A 
BRANCH  16  19
ATOM     19  O   LIG A   1      -5.585   5.660 118.196  0.00  0.00    -0.507 OA
ATOM     20  H   LIG A   1      -5.746   6.612 118.306  0.00  0.00    +0.292 HD
ENDBRANCH  16  19
BRANCH  18  21
ATOM     21  O   LIG A   1      -9.398   3.584 120.086  0.00  0.00    -0.506 OA
ATOM     22  H   LIG A   1      -9.521   2.705 120.488  0.00  0.00    +0.292 HD
ENDBRANCH  18  21
ENDBRANCH  12  13
ENDBRANCH   1  12
BRANCH   5  23
ATOM     23  O   LIG A   1      -9.995  -3.316 123.567  0.00  0.00    -0.503 OA
ATOM     24  H   LIG A   1      -9.905  -3.738 122.698  0.00  0.00    +0.292 HD
ENDBRANCH   5  23
BRANCH   6  25
ATOM     25  O   LIG A   1      -8.050  -4.665 124.799  0.00  0.00    -0.503 OA
ATOM     26  H   LIG A   1      -7.541  -4.793 125.623  0.00  0.00    +0.292 HD
ENDBRANCH   6  25
TORSDOF 6
ENDMDL
MODEL 2
REMARK VINA RESULT:      -7.9      1.713      7.619
REMARK  Name = NuBBE_2512
REMARK  6 active torsions:
REMARK  status: ('A' for Active; 'I' for Inactive)
REMARK    1  A    between atoms: C_2  and  C_3
REMARK    2  A    between atoms: C_2  and  C_15
REMARK    3  A    between atoms: C_7  and  O_8
REMARK    4  A    between atoms: C_9  and  O_10
REMARK    5  A    between atoms: C_18  and  O_19
REMARK    6  A    between atoms: C_21  and  O_22
REMARK                            x       y       z     vdW  Elec       q    Type
REMARK                         _______ _______ _______ _____ _____    ______ ____
ROOT
ATOM      1  C   LIG A   1      -6.731   2.323 123.529  0.00  0.00    +0.065 C 
ATOM      2  C   LIG A   1      -6.108   3.607 124.082  0.00  0.00    +0.016 C 
ATOM      3  C   LIG A   1      -5.173   4.228 123.045  0.00  0.00    +0.040 C 
ATOM      4  C   LIG A   1      -5.791   4.359 121.674  0.00  0.00    +0.001 A 
ATOM      5  C   LIG A   1      -5.241   5.202 120.697  0.00  0.00    +0.162 A 
ATOM      6  C   LIG A   1      -5.835   5.325 119.440  0.00  0.00    +0.159 A 
ATOM      7  C   LIG A   1      -6.970   4.607 119.111  0.00  0.00    +0.049 A 
ATOM      8  C   LIG A   1      -7.515   3.740 120.054  0.00  0.00    +0.008 A 
ATOM      9  C   LIG A   1      -6.929   3.596 121.328  0.00  0.00    -0.040 A 
ATOM     10  C   LIG A   1      -7.597   2.660 122.312  0.00  0.00    +0.047 C 
ENDROOT
BRANCH   1  12
ATOM     11  O   LIG A   1      -8.156   2.347 125.464  0.00  0.00    -0.292 OA
ATOM     12  C   LIG A   1      -7.600   1.669 124.595  0.00  0.00    +0.170 C 
BRANCH  12  13
ATOM     13  C   LIG A   1      -7.748   0.187 124.660  0.00  0.00    +0.059 A 
ATOM     14  C   LIG A   1      -6.636  -0.573 124.251  0.00  0.00    +0.018 A 
ATOM     15  C   LIG A   1      -6.672  -1.968 124.275  0.00  0.00    +0.046 A 
ATOM     16  C   LIG A   1      -7.822  -2.608 124.717  0.00  0.00    +0.120 A 
ATOM     17  C   LIG A   1      -8.928  -1.878 125.142  0.00  0.00    +0.091 A 
ATOM     18  C   LIG A   1      -8.890  -0.481 125.120  0.00  0.00    +0.131 A 
BRANCH  16  19
ATOM     19  O   LIG A   1      -7.908  -3.968 124.757  0.00  0.00    -0.507 OA
ATOM     20  H   LIG A   1      -8.727  -4.217 125.218  0.00  0.00    +0.292 HD
ENDBRANCH  16  19
BRANCH  18  21
ATOM     21  O   LIG A   1      -9.970   0.213 125.586  0.00  0.00    -0.506 OA
ATOM     22  H   LIG A   1     -10.294   0.809 124.888  0.00  0.00    +0.292 HD
ENDBRANCH  18  21
ENDBRANCH  12  13
ENDBRANCH   1  12
BRANCH   5  23
ATOM     23  O   LIG A   1      -4.106   5.949 120.893  0.00  0.00    -0.503 OA
ATOM     24  H   LIG A   1      -3.987   6.541 120.133  0.00  0.00    +0.292 HD
ENDBRANCH   5  23
BRANCH   6  25
ATOM     25  O   LIG A   1      -5.291   6.169 118.512  0.00  0.00    -0.503 OA
ATOM     26  H   LIG A   1      -4.358   6.254 118.786  0.00  0.00    +0.292 HD
ENDBRANCH   6  25
TORSDOF 6
ENDMDL
MODEL 3
REMARK VINA RESULT:      -7.6      1.862      7.084
REMARK  Name = NuBBE_2512
REMARK  6 active torsions:
REMARK  status: ('A' for Active; 'I' for Inactive)
REMARK    1  A    between atoms: C_2  and  C_3
REMARK    2  A    between atoms: C_2  and  C_15
REMARK    3  A    between atoms: C_7  and  O_8
REMARK    4  A    between atoms: C_9  and  O_10
REMARK    5  A    between atoms: C_18  and  O_19
REMARK    6  A    between atoms: C_21  and  O_22
REMARK                            x       y       z     vdW  Elec       q    Type
REMARK                         _______ _______ _______ _____ _____    ______ ____
ROOT
ATOM      1  C   LIG A   1      -8.112   2.873 123.544  0.00  0.00    +0.065 C 
ATOM      2  C   LIG A   1      -8.867   2.284 122.350  0.00  0.00    +0.016 C 
ATOM      3  C   LIG A   1      -8.870   3.275 121.187  0.00  0.00    +0.040 C 
ATOM      4  C   LIG A   1      -7.504   3.832 120.865  0.00  0.00    +0.001 A 
ATOM      5  C   LIG A   1      -7.240   4.468 119.642  0.00  0.00    +0.162 A 
ATOM      6  C   LIG A   1      -5.967   4.962 119.352  0.00  0.00    +0.159 A 
ATOM      7  C   LIG A   1      -4.934   4.861 120.266  0.00  0.00    +0.049 A 
ATOM      8  C   LIG A   1      -5.183   4.262 121.499  0.00  0.00    +0.008 A 
ATOM      9  C   LIG A   1      -6.461   3.760 121.815  0.00  0.00    -0.040 A 
ATOM     10  C   LIG A   1      -6.645   3.093 123.160  0.00  0.00    +0.047 C 
ENDROOT
BRANCH   1  12
ATOM     11  O   LIG A   1      -8.890   2.160 125.704  0.00  0.00    -0.292 OA
ATOM     12  C   LIG A   1      -8.181   1.913 124.724  0.00  0.00    +0.170 C 
BRANCH  12  13
ATOM     13  C   LIG A   1      -7.341   0.681 124.759  0.00  0.00    +0.059 A 
ATOM     14  C   LIG A   1      -7.656  -0.320 123.821  0.00  0.00    +0.018 A 
ATOM     15  C   LIG A   1      -6.929  -1.511 123.771  0.00  0.00    +0.046 A 
ATOM     16  C   LIG A   1      -5.878  -1.700 124.657  0.00  0.00    +0.120 A 
ATOM     17  C   LIG A   1      -5.536  -0.718 125.582  0.00  0.00    +0.091 A 
ATOM     18  C   LIG A   1      -6.264   0.475 125.630  0.00  0.00    +0.131 A 
BRANCH  16  19
ATOM     19  O   LIG A   1      -5.140  -2.847 124.650  0.00  0.00    -0.507 OA
ATOM     20  H   LIG A   1      -4.532  -2.834 125.409  0.00  0.00    +0.292 HD
ENDBRANCH  16  19
BRANCH  18  21
ATOM     21  O   LIG A   1      -5.880   1.442 126.514  0.00  0.00    -0.506 OA
ATOM     22  H   LIG A   1      -6.348   1.310 127.358  0.00  0.00    +0.292 HD
ENDBRANCH  18  21
ENDBRANCH  12  13
ENDBRANCH   1  12
BRANCH   5  23
ATOM     23  O   LIG A   1      -8.185   4.652 118.664  0.00  0.00    -0.503 OA
ATOM     24  H   LIG A   1      -8.485   3.783 118.353  0.00  0.00    +0.292 HD
ENDBRANCH   5  23
BRANCH   6  25
ATOM     25  O   LIG A   1      -5.729   5.560 118.146  0.00  0.00    -0.503 OA
ATOM     26  H   LIG A   1      -4.826   5.922 118.234  0.00  0.00    +0.292 HD
ENDBRANCH   6  25
TORSDOF 6
ENDMDL
MODEL 4
REMARK VINA RESULT:      -7.4     10.430     11.938
REMARK  Name = NuBBE_2512
REMARK  6 active torsions:
REMARK  status: ('A' for Active; 'I' for Inactive)
REMARK    1  A    between atoms: C_2  and  C_3
REMARK    2  A    between atoms: C_2  and  C_15
REMARK    3  A    between atoms: C_7  and  O_8
REMARK    4  A    between atoms: C_9  and  O_10
REMARK    5  A    between atoms: C_18  and  O_19
REMARK    6  A    between atoms: C_21  and  O_22
REMARK                            x       y       z     vdW  Elec       q    Type
REMARK                         _______ _______ _______ _____ _____    ______ ____
ROOT
ATOM      1  C   LIG A   1      -8.655   6.357 131.324  0.00  0.00    +0.065 C 
ATOM      2  C   LIG A   1      -7.305   5.945 130.731  0.00  0.00    +0.016 C 
ATOM      3  C   LIG A   1      -6.170   6.364 131.665  0.00  0.00    +0.040 C 
ATOM      4  C   LIG A   1      -6.386   5.954 133.101  0.00  0.00    +0.001 A 
ATOM      5  C   LIG A   1      -5.331   5.931 134.026  0.00  0.00    +0.162 A 
ATOM      6  C   LIG A   1      -5.545   5.532 135.347  0.00  0.00    +0.159 A 
ATOM      7  C   LIG A   1      -6.803   5.168 135.791  0.00  0.00    +0.049 A 
ATOM      8  C   LIG A   1      -7.871   5.214 134.898  0.00  0.00    +0.008 A 
ATOM      9  C   LIG A   1      -7.679   5.618 133.561  0.00  0.00    -0.040 A 
ATOM     10  C   LIG A   1      -8.881   5.610 132.642  0.00  0.00    +0.047 C 
ENDROOT
BRANCH   1  12
ATOM     11  O   LIG A   1      -9.847   4.883 129.846  0.00  0.00    -0.292 OA
ATOM     12  C   LIG A   1      -9.774   6.007 130.353  0.00  0.00    +0.170 C 
BRANCH  12  13
ATOM     13  C   LIG A   1     -10.772   7.032 129.933  0.00  0.00    +0.059 A 
ATOM     14  C   LIG A   1     -10.477   7.753 128.761  0.00  0.00    +0.018 A 
ATOM     15  C   LIG A   1     -11.347   8.734 128.283  0.00  0.00    +0.046 A 
ATOM     16  C   LIG A   1     -12.523   8.991 128.975  0.00  0.00    +0.120 A 
ATOM     17  C   LIG A   1     -12.846   8.279 130.126  0.00  0.00    +0.091 A 
ATOM     18  C   LIG A   1     -11.974   7.295 130.602  0.00  0.00    +0.131 A 
BRANCH  16  19
ATOM     19  O   LIG A   1     -13.405   9.940 128.550  0.00  0.00    -0.507 OA
ATOM     20  H   LIG A   1     -12.944  10.550 127.948  0.00  0.00    +0.292 HD
ENDBRANCH  16  19
BRANCH  18  21
ATOM     21  O   LIG A   1     -12.335   6.579 131.708  0.00  0.00    -0.506 OA
ATOM     22  H   LIG A   1     -13.273   6.748 131.908  0.00  0.00    +0.292 HD
ENDBRANCH  18  21
ENDBRANCH  12  13
ENDBRANCH   1  12
BRANCH   5  23
ATOM     23  O   LIG A   1      -4.044   6.291 133.716  0.00  0.00    -0.503 OA
ATOM     24  H   LIG A   1      -3.786   5.848 132.891  0.00  0.00    +0.292 HD
ENDBRANCH   5  23
BRANCH   6  25
ATOM     25  O   LIG A   1      -4.497   5.499 136.224  0.00  0.00    -0.503 OA
ATOM     26  H   LIG A   1      -4.630   4.669 136.722  0.00  0.00    +0.292 HD
ENDBRANCH   6  25
TORSDOF 6
ENDMDL
MODEL 5
REMARK VINA RESULT:      -7.3      5.948      9.042
REMARK  Name = NuBBE_2512
REMARK  6 active torsions:
REMARK  status: ('A' for Active; 'I' for Inactive)
REMARK    1  A    between atoms: C_2  and  C_3
REMARK    2  A    between atoms: C_2  and  C_15
REMARK    3  A    between atoms: C_7  and  O_8
REMARK    4  A    between atoms: C_9  and  O_10
REMARK    5  A    between atoms: C_18  and  O_19
REMARK    6  A    between atoms: C_21  and  O_22
REMARK                            x       y       z     vdW  Elec       q    Type
REMARK                         _______ _______ _______ _____ _____    ______ ____
ROOT
ATOM      1  C   LIG A   1      -7.024  -2.799 129.094  0.00  0.00    +0.065 C 
ATOM      2  C   LIG A   1      -7.183  -1.524 129.926  0.00  0.00    +0.016 C 
ATOM      3  C   LIG A   1      -7.737  -1.864 131.310  0.00  0.00    +0.040 C 
ATOM      4  C   LIG A   1      -6.998  -2.986 131.998  0.00  0.00    +0.001 A 
ATOM      5  C   LIG A   1      -7.120  -3.207 133.378  0.00  0.00    +0.162 A 
ATOM      6  C   LIG A   1      -6.416  -4.239 134.003  0.00  0.00    +0.159 A 
ATOM      7  C   LIG A   1      -5.596  -5.086 133.281  0.00  0.00    +0.049 A 
ATOM      8  C   LIG A   1      -5.486  -4.904 131.904  0.00  0.00    +0.008 A 
ATOM      9  C   LIG A   1      -6.191  -3.873 131.252  0.00  0.00    -0.040 A 
ATOM     10  C   LIG A   1      -5.994  -3.717 129.760  0.00  0.00    +0.047 C 
ENDROOT
BRANCH   1  12
ATOM     11  O   LIG A   1      -5.455  -1.896 127.513  0.00  0.00    -0.292 OA
ATOM     12  C   LIG A   1      -6.547  -2.445 127.693  0.00  0.00    +0.170 C 
BRANCH  12  13
ATOM     13  C   LIG A   1      -7.413  -2.689 126.504  0.00  0.00    +0.059 A 
ATOM     14  C   LIG A   1      -8.796  -2.787 126.744  0.00  0.00    +0.018 A 
ATOM     15  C   LIG A   1      -9.692  -3.013 125.698  0.00  0.00    +0.046 A 
ATOM     16  C   LIG A   1      -9.205  -3.135 124.404  0.00  0.00    +0.120 A 
ATOM     17  C   LIG A   1      -7.843  -3.025 124.138  0.00  0.00    +0.091 A 
ATOM     18  C   LIG A   1      -6.947  -2.796 125.187  0.00  0.00    +0.131 A 
BRANCH  16  19
ATOM     19  O   LIG A   1     -10.039  -3.358 123.349  0.00  0.00    -0.507 OA
ATOM     20  H   LIG A   1     -10.580  -4.144 123.538  0.00  0.00    +0.292 HD
ENDBRANCH  16  19
BRANCH  18  21
ATOM     21  O   LIG A   1      -5.621  -2.645 124.896  0.00  0.00    -0.506 OA
ATOM     22  H   LIG A   1      -5.385  -1.702 124.951  0.00  0.00    +0.292 HD
ENDBRANCH  18  21
ENDBRANCH  12  13
ENDBRANCH   1  12
BRANCH   5  23
ATOM     23  O   LIG A   1      -7.918  -2.452 134.200  0.00  0.00    -0.503 OA
ATOM     24  H   LIG A   1      -7.468  -2.335 135.052  0.00  0.00    +0.292 HD
ENDBRANCH   5  23
BRANCH   6  25
ATOM     25  O   LIG A   1      -6.535  -4.422 135.352  0.00  0.00    -0.503 OA
ATOM     26  H   LIG A   1      -6.129  -5.297 135.510  0.00  0.00    +0.292 HD
ENDBRANCH   6  25
TORSDOF 6
ENDMDL
MODEL 6
REMARK VINA RESULT:      -7.3      9.753     11.128
REMARK  Name = NuBBE_2512
REMARK  6 active torsions:
REMARK  status: ('A' for Active; 'I' for Inactive)
REMARK    1  A    between atoms: C_2  and  C_3
REMARK    2  A    between atoms: C_2  and  C_15
REMARK    3  A    between atoms: C_7  and  O_8
REMARK    4  A    between atoms: C_9  and  O_10
REMARK    5  A    between atoms: C_18  and  O_19
REMARK    6  A    between atoms: C_21  and  O_22
REMARK                            x       y       z     vdW  Elec       q    Type
REMARK                         _______ _______ _______ _____ _____    ______ ____
ROOT
ATOM      1  C   LIG A   1      -9.957   5.623 131.439  0.00  0.00    +0.065 C 
ATOM      2  C   LIG A   1      -8.709   6.293 130.858  0.00  0.00    +0.016 C 
ATOM      3  C   LIG A   1      -7.629   6.416 131.932  0.00  0.00    +0.040 C 
ATOM      4  C   LIG A   1      -7.371   5.129 132.680  0.00  0.00    +0.001 A 
ATOM      5  C   LIG A   1      -6.207   4.942 133.441  0.00  0.00    +0.162 A 
ATOM      6  C   LIG A   1      -5.976   3.740 134.112  0.00  0.00    +0.159 A 
ATOM      7  C   LIG A   1      -6.894   2.707 134.067  0.00  0.00    +0.049 A 
ATOM      8  C   LIG A   1      -8.071   2.883 133.345  0.00  0.00    +0.008 A 
ATOM      9  C   LIG A   1      -8.328   4.090 132.663  0.00  0.00    -0.040 A 
ATOM     10  C   LIG A   1      -9.613   4.195 131.872  0.00  0.00    +0.047 C 
ENDROOT
BRANCH   1  12
ATOM     11  O   LIG A   1     -11.430   4.501 129.906  0.00  0.00    -0.292 OA
ATOM     12  C   LIG A   1     -11.055   5.576 130.386  0.00  0.00    +0.170 C 
BRANCH  12  13
ATOM     13  C   LIG A   1     -11.661   6.830 129.855  0.00  0.00    +0.059 A 
ATOM     14  C   LIG A   1     -12.389   7.612 130.770  0.00  0.00    +0.018 A 
ATOM     15  C   LIG A   1     -12.995   8.806 130.373  0.00  0.00    +0.046 A 
ATOM     16  C   LIG A   1     -12.867   9.223 129.055  0.00  0.00    +0.120 A 
ATOM     17  C   LIG A   1     -12.138   8.475 128.135  0.00  0.00    +0.091 A 
ATOM     18  C   LIG A   1     -11.530   7.282 128.535  0.00  0.00    +0.131 A 
BRANCH  16  19
ATOM     19  O   LIG A   1     -13.442  10.379 128.617  0.00  0.00    -0.507 OA
ATOM     20  H   LIG A   1     -14.077  10.167 127.912  0.00  0.00    +0.292 HD
ENDBRANCH  16  19
BRANCH  18  21
ATOM     21  O   LIG A   1     -10.782   6.590 127.626  0.00  0.00    -0.506 OA
ATOM     22  H   LIG A   1     -11.355   6.297 126.895  0.00  0.00    +0.292 HD
ENDBRANCH  18  21
ENDBRANCH  12  13
ENDBRANCH   1  12
BRANCH   5  23
ATOM     23  O   LIG A   1      -5.233   5.898 133.583  0.00  0.00    -0.503 OA
ATOM     24  H   LIG A   1      -5.430   6.431 134.369  0.00  0.00    +0.292 HD
ENDBRANCH   5  23
BRANCH   6  25
ATOM     25  O   LIG A   1      -4.825   3.574 134.830  0.00  0.00    -0.503 OA
ATOM     26  H   LIG A   1      -5.011   2.806 135.405  0.00  0.00    +0.292 HD
ENDBRANCH   6  25
TORSDOF 6
ENDMDL
MODEL 7
REMARK VINA RESULT:      -7.3      8.634     10.444
REMARK  Name = NuBBE_2512
REMARK  6 active torsions:
REMARK  status: ('A' for Active; 'I' for Inactive)
REMARK    1  A    between atoms: C_2  and  C_3
REMARK    2  A    between atoms: C_2  and  C_15
REMARK    3  A    between atoms: C_7  and  O_8
REMARK    4  A    between atoms: C_9  and  O_10
REMARK    5  A    between atoms: C_18  and  O_19
REMARK    6  A    between atoms: C_21  and  O_22
REMARK                            x       y       z     vdW  Elec       q    Type
REMARK                         _______ _______ _______ _____ _____    ______ ____
ROOT
ATOM      1  C   LIG A   1      -9.097   5.352 130.642  0.00  0.00    +0.065 C 
ATOM      2  C   LIG A   1      -8.602   6.793 130.785  0.00  0.00    +0.016 C 
ATOM      3  C   LIG A   1      -7.197   6.811 131.385  0.00  0.00    +0.040 C 
ATOM      4  C   LIG A   1      -6.234   5.872 130.698  0.00  0.00    +0.001 A 
ATOM      5  C   LIG A   1      -4.846   5.994 130.862  0.00  0.00    +0.162 A 
ATOM      6  C   LIG A   1      -3.969   5.128 130.206  0.00  0.00    +0.159 A 
ATOM      7  C   LIG A   1      -4.439   4.113 129.393  0.00  0.00    +0.049 A 
ATOM      8  C   LIG A   1      -5.814   3.954 129.242  0.00  0.00    +0.008 A 
ATOM      9  C   LIG A   1      -6.718   4.813 129.898  0.00  0.00    -0.040 A 
ATOM     10  C   LIG A   1      -8.197   4.599 129.658  0.00  0.00    +0.047 C 
ENDROOT
BRANCH   1  12
ATOM     11  O   LIG A   1     -11.154   4.289 129.997  0.00  0.00    -0.292 OA
ATOM     12  C   LIG A   1     -10.526   5.345 130.118  0.00  0.00    +0.170 C 
BRANCH  12  13
ATOM     13  C   LIG A   1     -11.183   6.607 129.671  0.00  0.00    +0.059 A 
ATOM     14  C   LIG A   1     -12.061   7.216 130.586  0.00  0.00    +0.018 A 
ATOM     15  C   LIG A   1     -12.725   8.401 130.265  0.00  0.00    +0.046 A 
ATOM     16  C   LIG A   1     -12.507   8.984 129.024  0.00  0.00    +0.120 A 
ATOM     17  C   LIG A   1     -11.631   8.410 128.108  0.00  0.00    +0.091 A 
ATOM     18  C   LIG A   1     -10.964   7.224 128.433  0.00  0.00    +0.131 A 
BRANCH  16  19
ATOM     19  O   LIG A   1     -13.134  10.139 128.662  0.00  0.00    -0.507 OA
ATOM     20  H   LIG A   1     -13.530  10.543 129.452  0.00  0.00    +0.292 HD
ENDBRANCH  16  19
BRANCH  18  21
ATOM     21  O   LIG A   1     -10.075   6.706 127.535  0.00  0.00    -0.506 OA
ATOM     22  H   LIG A   1     -10.077   5.734 127.605  0.00  0.00    +0.292 HD
ENDBRANCH  18  21
ENDBRANCH  12  13
ENDBRANCH   1  12
BRANCH   5  23
ATOM     23  O   LIG A   1      -4.257   6.944 131.659  0.00  0.00    -0.503 OA
ATOM     24  H   LIG A   1      -3.682   7.499 131.109  0.00  0.00    +0.292 HD
ENDBRANCH   5  23
BRANCH   6  25
ATOM     25  O   LIG A   1      -2.620   5.280 130.366  0.00  0.00    -0.503 OA
ATOM     26  H   LIG A   1      -2.497   6.245 130.450  0.00  0.00    +0.292 HD
ENDBRANCH   6  25
TORSDOF 6
ENDMDL
MODEL 8
REMARK VINA RESULT:      -7.3     11.429     12.923
REMARK  Name = NuBBE_2512
REMARK  6 active torsions:
REMARK  status: ('A' for Active; 'I' for Inactive)
REMARK    1  A    between atoms: C_2  and  C_3
REMARK    2  A    between atoms: C_2  and  C_15
REMARK    3  A    between atoms: C_7  and  O_8
REMARK    4  A    between atoms: C_9  and  O_10
REMARK    5  A    between atoms: C_18  and  O_19
REMARK    6  A    between atoms: C_21  and  O_22
REMARK                            x       y       z     vdW  Elec       q    Type
REMARK                         _______ _______ _______ _____ _____    ______ ____
ROOT
ATOM      1  C   LIG A   1      -4.670   6.557 132.303  0.00  0.00    +0.065 C 
ATOM      2  C   LIG A   1      -4.931   5.208 132.977  0.00  0.00    +0.016 C 
ATOM      3  C   LIG A   1      -6.290   5.221 133.675  0.00  0.00    +0.040 C 
ATOM      4  C   LIG A   1      -7.414   5.723 132.800  0.00  0.00    +0.001 A 
ATOM      5  C   LIG A   1      -8.759   5.488 133.124  0.00  0.00    +0.162 A 
ATOM      6  C   LIG A   1      -9.785   5.944 132.295  0.00  0.00    +0.159 A 
ATOM      7  C   LIG A   1      -9.512   6.659 131.143  0.00  0.00    +0.049 A 
ATOM      8  C   LIG A   1      -8.185   6.931 130.819  0.00  0.00    +0.008 A 
ATOM      9  C   LIG A   1      -7.133   6.484 131.644  0.00  0.00    -0.040 A 
ATOM     10  C   LIG A   1      -5.716   6.790 131.209  0.00  0.00    +0.047 C 
ENDROOT
BRANCH   1  12
ATOM     11  O   LIG A   1      -3.018   5.843 130.711  0.00  0.00    -0.292 OA
ATOM     12  C   LIG A   1      -3.283   6.563 131.678  0.00  0.00    +0.170 C 
BRANCH  12  13
ATOM     13  C   LIG A   1      -2.184   7.388 132.259  0.00  0.00    +0.059 A 
ATOM     14  C   LIG A   1      -2.516   8.705 132.627  0.00  0.00    +0.018 A 
ATOM     15  C   LIG A   1      -1.560   9.558 133.180  0.00  0.00    +0.046 A 
ATOM     16  C   LIG A   1      -0.267   9.091 133.375  0.00  0.00    +0.120 A 
ATOM     17  C   LIG A   1       0.081   7.787 133.035  0.00  0.00    +0.091 A 
ATOM     18  C   LIG A   1      -0.879   6.933 132.483  0.00  0.00    +0.131 A 
BRANCH  16  19
ATOM     19  O   LIG A   1       0.703   9.886 133.910  0.00  0.00    -0.507 OA
ATOM     20  H   LIG A   1       0.905   9.574 134.808  0.00  0.00    +0.292 HD
ENDBRANCH  16  19
BRANCH  18  21
ATOM     21  O   LIG A   1      -0.525   5.644 132.202  0.00  0.00    -0.506 OA
ATOM     22  H   LIG A   1       0.379   5.481 132.525  0.00  0.00    +0.292 HD
ENDBRANCH  18  21
ENDBRANCH  12  13
ENDBRANCH   1  12
BRANCH   5  23
ATOM     23  O   LIG A   1      -9.160   4.813 134.249  0.00  0.00    -0.503 OA
ATOM     24  H   LIG A   1      -9.417   3.911 133.997  0.00  0.00    +0.292 HD
ENDBRANCH   5  23
BRANCH   6  25
ATOM     25  O   LIG A   1     -11.087   5.685 132.621  0.00  0.00    -0.503 OA
ATOM     26  H   LIG A   1     -11.247   4.788 132.269  0.00  0.00    +0.292 HD
ENDBRANCH   6  25
TORSDOF 6
ENDMDL
MODEL 9
REMARK VINA RESULT:      -7.2      8.856     10.586
REMARK  Name = NuBBE_2512
REMARK  6 active torsions:
REMARK  status: ('A' for Active; 'I' for Inactive)
REMARK    1  A    between atoms: C_2  and  C_3
REMARK    2  A    between atoms: C_2  and  C_15
REMARK    3  A    between atoms: C_7  and  O_8
REMARK    4  A    between atoms: C_9  and  O_10
REMARK    5  A    between atoms: C_18  and  O_19
REMARK    6  A    between atoms: C_21  and  O_22
REMARK                            x       y       z     vdW  Elec       q    Type
REMARK                         _______ _______ _______ _____ _____    ______ ____
ROOT
ATOM      1  C   LIG A   1      -8.990   5.175 129.677  0.00  0.00    +0.065 C 
ATOM      2  C   LIG A   1      -8.519   3.735 129.892  0.00  0.00    +0.016 C 
ATOM      3  C   LIG A   1      -7.023   3.621 129.600  0.00  0.00    +0.040 C 
ATOM      4  C   LIG A   1      -6.190   4.674 130.290  0.00  0.00    +0.001 A 
ATOM      5  C   LIG A   1      -4.801   4.536 130.432  0.00  0.00    +0.162 A 
ATOM      6  C   LIG A   1      -4.048   5.511 131.089  0.00  0.00    +0.159 A 
ATOM      7  C   LIG A   1      -4.641   6.651 131.600  0.00  0.00    +0.049 A 
ATOM      8  C   LIG A   1      -6.013   6.824 131.441  0.00  0.00    +0.008 A 
ATOM      9  C   LIG A   1      -6.793   5.855 130.778  0.00  0.00    -0.040 A 
ATOM     10  C   LIG A   1      -8.283   6.097 130.674  0.00  0.00    +0.047 C 
ENDROOT
BRANCH   1  12
ATOM     11  O   LIG A   1     -11.158   4.259 130.167  0.00  0.00    -0.292 OA
ATOM     12  C   LIG A   1     -10.494   5.264 129.894  0.00  0.00    +0.170 C 
BRANCH  12  13
ATOM     13  C   LIG A   1     -11.219   6.554 129.714  0.00  0.00    +0.059 A 
ATOM     14  C   LIG A   1     -10.976   7.250 128.516  0.00  0.00    +0.018 A 
ATOM     15  C   LIG A   1     -11.606   8.467 128.251  0.00  0.00    +0.046 A 
ATOM     16  C   LIG A   1     -12.490   8.989 129.185  0.00  0.00    +0.120 A 
ATOM     17  C   LIG A   1     -12.760   8.312 130.371  0.00  0.00    +0.091 A 
ATOM     18  C   LIG A   1     -12.130   7.091 130.633  0.00  0.00    +0.131 A 
BRANCH  16  19
ATOM     19  O   LIG A   1     -13.128  10.175 128.975  0.00  0.00    -0.507 OA
ATOM     20  H   LIG A   1     -12.555  10.899 129.279  0.00  0.00    +0.292 HD
ENDBRANCH  16  19
BRANCH  18  21
ATOM     21  O   LIG A   1     -12.447   6.424 131.782  0.00  0.00    -0.506 OA
ATOM     22  H   LIG A   1     -11.656   5.963 132.114  0.00  0.00    +0.292 HD
ENDBRANCH  18  21
ENDBRANCH  12  13
ENDBRANCH   1  12
BRANCH   5  23
ATOM     23  O   LIG A   1      -4.093   3.464 129.950  0.00  0.00    -0.503 OA
ATOM     24  H   LIG A   1      -4.040   2.787 130.644  0.00  0.00    +0.292 HD
ENDBRANCH   5  23
BRANCH   6  25
ATOM     25  O   LIG A   1      -2.699   5.343 131.233  0.00  0.00    -0.503 OA
ATOM     26  H   LIG A   1      -2.311   6.067 130.703  0.00  0.00    +0.292 HD
ENDBRANCH   6  25
TORSDOF 6
ENDMDL
