MODEL 1
REMARK VINA RESULT:     -10.0      0.000      0.000
REMARK  Name = NuBBE_190
REMARK  8 active torsions:
REMARK  status: ('A' for Active; 'I' for Inactive)
REMARK    1  A    between atoms: C_1  and  C_2
REMARK    2  A    between atoms: C_2  and  C_35
REMARK    3  A    between atoms: C_6  and  C_33
REMARK    4  A    between atoms: C_11  and  C_32
REMARK    5  A    between atoms: C_16  and  C_31
REMARK    6  A    between atoms: C_19  and  C_30
REMARK    7  A    between atoms: C_22  and  C_29
REMARK    8  A    between atoms: C_24  and  C_28
REMARK                            x       y       z     vdW  Elec       q    Type
REMARK                         _______ _______ _______ _____ _____    ______ ____
ROOT
ATOM      1  C   LIG A   1     -10.651   7.196 130.300  0.00  0.00    +0.019 C 
ATOM      2  C   LIG A   1     -10.069   6.008 131.106  0.00  0.00    +0.027 C 
ATOM      3  C   LIG A   1     -10.674   4.744 130.444  0.00  0.00    +0.139 C 
ATOM      4  C   LIG A   1     -10.188   3.400 130.882  0.00  0.00    +0.075 C 
ATOM      5  C   LIG A   1      -8.672   3.358 130.912  0.00  0.00    +0.015 C 
ATOM      6  C   LIG A   1      -7.970   4.488 131.759  0.00  0.00    -0.024 C 
ATOM      7  C   LIG A   1      -8.468   5.802 131.029  0.00  0.00    +0.008 C 
ATOM      8  C   LIG A   1      -7.510   6.972 131.296  0.00  0.00    +0.005 C 
ATOM      9  C   LIG A   1      -6.038   6.611 130.829  0.00  0.00    +0.008 C 
ATOM     10  C   LIG A   1      -5.301   5.523 131.682  0.00  0.00    -0.019 C 
ATOM     11  C   LIG A   1      -6.355   4.287 131.900  0.00  0.00    +0.006 C 
ATOM     12  C   LIG A   1      -6.008   2.924 131.254  0.00  0.00    +0.031 C 
ATOM     13  C   LIG A   1      -4.554   2.646 131.190  0.00  0.00    -0.026 C 
ATOM     14  C   LIG A   1      -3.993   3.619 130.456  0.00  0.00    -0.063 C 
ATOM     15  C   LIG A   1      -3.741   4.939 131.181  0.00  0.00    -0.005 C 
ATOM     16  C   LIG A   1      -2.751   5.847 130.354  0.00  0.00    +0.012 C 
ATOM     17  C   LIG A   1      -2.060   5.131 129.146  0.00  0.00    +0.008 C 
ATOM     18  C   LIG A   1      -3.114   4.533 128.184  0.00  0.00    -0.025 C 
ATOM     19  C   LIG A   1      -3.771   3.369 128.966  0.00  0.00    +0.024 C 
ATOM     20  C   LIG A   1      -4.872   2.604 128.151  0.00  0.00    -0.004 C 
ATOM     21  C   LIG A   1      -4.234   2.030 126.860  0.00  0.00    -0.011 C 
ATOM     22  C   LIG A   1      -3.539   3.135 126.047  0.00  0.00    +0.004 C 
ATOM     23  C   LIG A   1      -2.507   3.922 126.889  0.00  0.00    +0.007 C 
ATOM     24  C   LIG A   1      -5.229   1.220 126.018  0.00  0.00    +0.008 C 
ATOM     25  C   LIG A   1      -6.147   3.414 127.859  0.00  0.00    +0.008 C 
ATOM     26  C   LIG A   1      -4.024   5.696 127.759  0.00  0.00    +0.012 C 
ATOM     27  C   LIG A   1      -2.853   4.601 132.453  0.00  0.00    +0.016 C 
ATOM     28  C   LIG A   1      -5.066   6.252 133.053  0.00  0.00    +0.012 C 
ATOM     29  C   LIG A   1      -8.442   4.307 133.223  0.00  0.00    +0.012 C 
ATOM     30  O   LIG A   1     -11.587   4.799 129.583  0.00  0.00    -0.297 OA
ATOM     31  C   LIG A   1     -10.652   6.177 132.528  0.00  0.00    +0.019 C 
ENDROOT
TORSDOF 0
ENDMDL
MODEL 2
REMARK VINA RESULT:      -9.7      4.185      7.972
REMARK  Name = NuBBE_190
REMARK  8 active torsions:
REMARK  status: ('A' for Active; 'I' for Inactive)
REMARK    1  A    between atoms: C_1  and  C_2
REMARK    2  A    between atoms: C_2  and  C_35
REMARK    3  A    between atoms: C_6  and  C_33
REMARK    4  A    between atoms: C_11  and  C_32
REMARK    5  A    between atoms: C_16  and  C_31
REMARK    6  A    between atoms: C_19  and  C_30
REMARK    7  A    between atoms: C_22  and  C_29
REMARK    8  A    between atoms: C_24  and  C_28
REMARK                            x       y       z     vdW  Elec       q    Type
REMARK                         _______ _______ _______ _____ _____    ______ ____
ROOT
ATOM      1  C   LIG A   1      -7.950   4.917 127.495  0.00  0.00    +0.019 C 
ATOM      2  C   LIG A   1      -7.133   4.089 126.470  0.00  0.00    +0.027 C 
ATOM      3  C   LIG A   1      -5.654   4.283 126.892  0.00  0.00    +0.139 C 
ATOM      4  C   LIG A   1      -4.598   3.480 126.202  0.00  0.00    +0.075 C 
ATOM      5  C   LIG A   1      -4.986   2.015 126.142  0.00  0.00    +0.015 C 
ATOM      6  C   LIG A   1      -6.398   1.705 125.512  0.00  0.00    -0.024 C 
ATOM      7  C   LIG A   1      -7.371   2.490 126.483  0.00  0.00    +0.008 C 
ATOM      8  C   LIG A   1      -8.790   1.906 126.426  0.00  0.00    +0.005 C 
ATOM      9  C   LIG A   1      -8.777   0.363 126.794  0.00  0.00    +0.008 C 
ATOM     10  C   LIG A   1      -8.106  -0.583 125.741  0.00  0.00    -0.019 C 
ATOM     11  C   LIG A   1      -6.684   0.109 125.310  0.00  0.00    +0.006 C 
ATOM     12  C   LIG A   1      -5.380  -0.637 125.684  0.00  0.00    +0.031 C 
ATOM     13  C   LIG A   1      -5.512  -2.113 125.672  0.00  0.00    -0.026 C 
ATOM     14  C   LIG A   1      -6.458  -2.437 126.567  0.00  0.00    -0.063 C 
ATOM     15  C   LIG A   1      -7.902  -2.272 126.099  0.00  0.00    -0.005 C 
ATOM     16  C   LIG A   1      -8.890  -3.031 127.066  0.00  0.00    +0.012 C 
ATOM     17  C   LIG A   1      -8.194  -3.970 128.108  0.00  0.00    +0.008 C 
ATOM     18  C   LIG A   1      -7.166  -3.184 128.956  0.00  0.00    -0.025 C 
ATOM     19  C   LIG A   1      -6.022  -2.817 127.980  0.00  0.00    +0.024 C 
ATOM     20  C   LIG A   1      -4.848  -2.022 128.654  0.00  0.00    -0.004 C 
ATOM     21  C   LIG A   1      -4.257  -2.877 129.804  0.00  0.00    -0.011 C 
ATOM     22  C   LIG A   1      -5.351  -3.299 130.799  0.00  0.00    +0.004 C 
ATOM     23  C   LIG A   1      -6.530  -4.020 130.104  0.00  0.00    +0.007 C 
ATOM     24  C   LIG A   1      -3.067  -2.198 130.493  0.00  0.00    +0.008 C 
ATOM     25  C   LIG A   1      -5.206  -0.598 129.112  0.00  0.00    +0.008 C 
ATOM     26  C   LIG A   1      -7.935  -2.024 129.606  0.00  0.00    +0.012 C 
ATOM     27  C   LIG A   1      -8.056  -3.132 124.773  0.00  0.00    +0.016 C 
ATOM     28  C   LIG A   1      -9.102  -0.518 124.528  0.00  0.00    +0.012 C 
ATOM     29  C   LIG A   1      -6.354   2.207 124.047  0.00  0.00    +0.012 C 
ATOM     30  O   LIG A   1      -5.299   5.117 127.762  0.00  0.00    -0.297 OA
ATOM     31  C   LIG A   1      -7.379   4.790 125.114  0.00  0.00    +0.019 C 
ENDROOT
TORSDOF 0
ENDMDL
MODEL 3
REMARK VINA RESULT:      -9.3      3.915      7.820
REMARK  Name = NuBBE_190
REMARK  8 active torsions:
REMARK  status: ('A' for Active; 'I' for Inactive)
REMARK    1  A    between atoms: C_1  and  C_2
REMARK    2  A    between atoms: C_2  and  C_35
REMARK    3  A    between atoms: C_6  and  C_33
REMARK    4  A    between atoms: C_11  and  C_32
REMARK    5  A    between atoms: C_16  and  C_31
REMARK    6  A    between atoms: C_19  and  C_30
REMARK    7  A    between atoms: C_22  and  C_29
REMARK    8  A    between atoms: C_24  and  C_28
REMARK                            x       y       z     vdW  Elec       q    Type
REMARK                         _______ _______ _______ _____ _____    ______ ____
ROOT
ATOM      1  C   LIG A   1      -9.810  -3.184 125.420  0.00  0.00    +0.019 C 
ATOM      2  C   LIG A   1      -8.398  -2.547 125.479  0.00  0.00    +0.027 C 
ATOM      3  C   LIG A   1      -8.533  -1.210 124.706  0.00  0.00    +0.139 C 
ATOM      4  C   LIG A   1      -7.381  -0.258 124.708  0.00  0.00    +0.075 C 
ATOM      5  C   LIG A   1      -6.854  -0.051 126.115  0.00  0.00    +0.015 C 
ATOM      6  C   LIG A   1      -6.473  -1.363 126.904  0.00  0.00    -0.024 C 
ATOM      7  C   LIG A   1      -7.854  -2.136 126.944  0.00  0.00    +0.008 C 
ATOM      8  C   LIG A   1      -7.887  -3.140 128.105  0.00  0.00    +0.005 C 
ATOM      9  C   LIG A   1      -7.630  -2.407 129.488  0.00  0.00    +0.008 C 
ATOM     10  C   LIG A   1      -6.179  -1.860 129.710  0.00  0.00    -0.019 C 
ATOM     11  C   LIG A   1      -5.748  -1.071 128.339  0.00  0.00    +0.006 C 
ATOM     12  C   LIG A   1      -5.520   0.457 128.431  0.00  0.00    +0.031 C 
ATOM     13  C   LIG A   1      -4.977   0.903 129.736  0.00  0.00    -0.026 C 
ATOM     14  C   LIG A   1      -5.863   0.548 130.679  0.00  0.00    -0.063 C 
ATOM     15  C   LIG A   1      -5.816  -0.913 131.122  0.00  0.00    -0.005 C 
ATOM     16  C   LIG A   1      -6.611  -1.111 132.470  0.00  0.00    +0.012 C 
ATOM     17  C   LIG A   1      -7.042   0.217 133.177  0.00  0.00    +0.008 C 
ATOM     18  C   LIG A   1      -7.882   1.101 132.225  0.00  0.00    -0.025 C 
ATOM     19  C   LIG A   1      -6.897   1.578 131.130  0.00  0.00    +0.024 C 
ATOM     20  C   LIG A   1      -7.553   2.518 130.058  0.00  0.00    -0.004 C 
ATOM     21  C   LIG A   1      -8.136   3.764 130.771  0.00  0.00    -0.011 C 
ATOM     22  C   LIG A   1      -9.106   3.357 131.892  0.00  0.00    +0.004 C 
ATOM     23  C   LIG A   1      -8.461   2.377 132.900  0.00  0.00    +0.007 C 
ATOM     24  C   LIG A   1      -8.758   4.768 129.792  0.00  0.00    +0.008 C 
ATOM     25  C   LIG A   1      -8.582   1.838 129.139  0.00  0.00    +0.008 C 
ATOM     26  C   LIG A   1      -9.073   0.241 131.772  0.00  0.00    +0.012 C 
ATOM     27  C   LIG A   1      -4.329  -1.198 131.601  0.00  0.00    +0.016 C 
ATOM     28  C   LIG A   1      -5.326  -3.172 129.842  0.00  0.00    +0.012 C 
ATOM     29  C   LIG A   1      -5.336  -2.049 126.108  0.00  0.00    +0.012 C 
ATOM     30  O   LIG A   1      -9.557  -0.909 124.041  0.00  0.00    -0.297 OA
ATOM     31  C   LIG A   1      -7.497  -3.517 124.680  0.00  0.00    +0.019 C 
ENDROOT
TORSDOF 0
ENDMDL
MODEL 4
REMARK VINA RESULT:      -9.3      4.181      7.502
REMARK  Name = NuBBE_190
REMARK  8 active torsions:
REMARK  status: ('A' for Active; 'I' for Inactive)
REMARK    1  A    between atoms: C_1  and  C_2
REMARK    2  A    between atoms: C_2  and  C_35
REMARK    3  A    between atoms: C_6  and  C_33
REMARK    4  A    between atoms: C_11  and  C_32
REMARK    5  A    between atoms: C_16  and  C_31
REMARK    6  A    between atoms: C_19  and  C_30
REMARK    7  A    between atoms: C_22  and  C_29
REMARK    8  A    between atoms: C_24  and  C_28
REMARK                            x       y       z     vdW  Elec       q    Type
REMARK                         _______ _______ _______ _____ _____    ______ ____
ROOT
ATOM      1  C   LIG A   1      -3.159  -3.835 129.520  0.00  0.00    +0.019 C 
ATOM      2  C   LIG A   1      -4.528  -3.300 130.009  0.00  0.00    +0.027 C 
ATOM      3  C   LIG A   1      -4.214  -2.558 131.333  0.00  0.00    +0.139 C 
ATOM      4  C   LIG A   1      -5.303  -1.775 131.995  0.00  0.00    +0.075 C 
ATOM      5  C   LIG A   1      -6.011  -0.882 130.994  0.00  0.00    +0.015 C 
ATOM      6  C   LIG A   1      -6.569  -1.602 129.706  0.00  0.00    -0.024 C 
ATOM      7  C   LIG A   1      -5.250  -2.202 129.068  0.00  0.00    +0.008 C 
ATOM      8  C   LIG A   1      -5.435  -2.454 127.565  0.00  0.00    +0.005 C 
ATOM      9  C   LIG A   1      -5.844  -1.117 126.818  0.00  0.00    +0.008 C 
ATOM     10  C   LIG A   1      -7.281  -0.574 127.129  0.00  0.00    -0.019 C 
ATOM     11  C   LIG A   1      -7.472  -0.626 128.756  0.00  0.00    +0.006 C 
ATOM     12  C   LIG A   1      -7.628   0.720 129.505  0.00  0.00    +0.031 C 
ATOM     13  C   LIG A   1      -8.324   1.764 128.717  0.00  0.00    -0.026 C 
ATOM     14  C   LIG A   1      -7.600   1.976 127.608  0.00  0.00    -0.063 C 
ATOM     15  C   LIG A   1      -7.787   0.959 126.484  0.00  0.00    -0.005 C 
ATOM     16  C   LIG A   1      -7.202   1.513 125.128  0.00  0.00    +0.012 C 
ATOM     17  C   LIG A   1      -6.804   3.027 125.157  0.00  0.00    +0.008 C 
ATOM     18  C   LIG A   1      -5.792   3.308 126.293  0.00  0.00    -0.025 C 
ATOM     19  C   LIG A   1      -6.586   3.119 127.608  0.00  0.00    +0.024 C 
ATOM     20  C   LIG A   1      -5.737   3.381 128.902  0.00  0.00    -0.004 C 
ATOM     21  C   LIG A   1      -5.193   4.832 128.861  0.00  0.00    -0.011 C 
ATOM     22  C   LIG A   1      -4.414   5.095 127.562  0.00  0.00    +0.004 C 
ATOM     23  C   LIG A   1      -5.246   4.765 126.300  0.00  0.00    +0.007 C 
ATOM     24  C   LIG A   1      -4.387   5.198 130.114  0.00  0.00    +0.008 C 
ATOM     25  C   LIG A   1      -4.626   2.352 129.171  0.00  0.00    +0.008 C 
ATOM     26  C   LIG A   1      -4.597   2.373 126.053  0.00  0.00    +0.012 C 
ATOM     27  C   LIG A   1      -9.340   0.923 126.152  0.00  0.00    +0.016 C 
ATOM     28  C   LIG A   1      -8.213  -1.649 126.464  0.00  0.00    +0.012 C 
ATOM     29  C   LIG A   1      -7.617  -2.633 130.190  0.00  0.00    +0.012 C 
ATOM     30  O   LIG A   1      -3.093  -2.619 131.898  0.00  0.00    -0.297 OA
ATOM     31  C   LIG A   1      -5.359  -4.569 130.312  0.00  0.00    +0.019 C 
ENDROOT
TORSDOF 0
ENDMDL
MODEL 5
REMARK VINA RESULT:      -9.1      2.742      4.862
REMARK  Name = NuBBE_190
REMARK  8 active torsions:
REMARK  status: ('A' for Active; 'I' for Inactive)
REMARK    1  A    between atoms: C_1  and  C_2
REMARK    2  A    between atoms: C_2  and  C_35
REMARK    3  A    between atoms: C_6  and  C_33
REMARK    4  A    between atoms: C_11  and  C_32
REMARK    5  A    between atoms: C_16  and  C_31
REMARK    6  A    between atoms: C_19  and  C_30
REMARK    7  A    between atoms: C_22  and  C_29
REMARK    8  A    between atoms: C_24  and  C_28
REMARK                            x       y       z     vdW  Elec       q    Type
REMARK                         _______ _______ _______ _____ _____    ______ ____
ROOT
ATOM      1  C   LIG A   1      -9.251   2.863 132.350  0.00  0.00    +0.019 C 
ATOM      2  C   LIG A   1      -8.123   1.915 131.871  0.00  0.00    +0.027 C 
ATOM      3  C   LIG A   1      -8.840   0.584 131.529  0.00  0.00    +0.139 C 
ATOM      4  C   LIG A   1      -8.056  -0.509 130.878  0.00  0.00    +0.075 C 
ATOM      5  C   LIG A   1      -7.256   0.025 129.705  0.00  0.00    +0.015 C 
ATOM      6  C   LIG A   1      -6.315   1.252 130.018  0.00  0.00    -0.024 C 
ATOM      7  C   LIG A   1      -7.350   2.341 130.517  0.00  0.00    +0.008 C 
ATOM      8  C   LIG A   1      -6.780   3.756 130.348  0.00  0.00    +0.005 C 
ATOM      9  C   LIG A   1      -6.387   4.027 128.836  0.00  0.00    +0.008 C 
ATOM     10  C   LIG A   1      -5.152   3.225 128.299  0.00  0.00    -0.019 C 
ATOM     11  C   LIG A   1      -5.350   1.667 128.767  0.00  0.00    +0.006 C 
ATOM     12  C   LIG A   1      -5.559   0.606 127.659  0.00  0.00    +0.031 C 
ATOM     13  C   LIG A   1      -4.842   0.908 126.399  0.00  0.00    -0.026 C 
ATOM     14  C   LIG A   1      -5.302   2.086 125.950  0.00  0.00    -0.063 C 
ATOM     15  C   LIG A   1      -4.717   3.328 126.619  0.00  0.00    -0.005 C 
ATOM     16  C   LIG A   1      -5.030   4.618 125.767  0.00  0.00    +0.012 C 
ATOM     17  C   LIG A   1      -5.622   4.336 124.346  0.00  0.00    +0.008 C 
ATOM     18  C   LIG A   1      -6.905   3.476 124.444  0.00  0.00    -0.025 C 
ATOM     19  C   LIG A   1      -6.430   2.082 124.921  0.00  0.00    +0.024 C 
ATOM     20  C   LIG A   1      -7.591   1.036 125.069  0.00  0.00    -0.004 C 
ATOM     21  C   LIG A   1      -8.298   0.873 123.700  0.00  0.00    -0.011 C 
ATOM     22  C   LIG A   1      -8.773   2.230 123.156  0.00  0.00    +0.004 C 
ATOM     23  C   LIG A   1      -7.627   3.267 123.083  0.00  0.00    +0.007 C 
ATOM     24  C   LIG A   1      -9.421  -0.171 123.735  0.00  0.00    +0.008 C 
ATOM     25  C   LIG A   1      -8.586   1.324 126.206  0.00  0.00    +0.008 C 
ATOM     26  C   LIG A   1      -7.871   4.240 125.362  0.00  0.00    +0.012 C 
ATOM     27  C   LIG A   1      -3.139   3.235 126.459  0.00  0.00    +0.016 C 
ATOM     28  C   LIG A   1      -3.953   3.856 129.093  0.00  0.00    +0.012 C 
ATOM     29  C   LIG A   1      -5.284   0.768 131.067  0.00  0.00    +0.012 C 
ATOM     30  O   LIG A   1     -10.045   0.369 131.814  0.00  0.00    -0.297 OA
ATOM     31  C   LIG A   1      -7.226   1.714 133.115  0.00  0.00    +0.019 C 
ENDROOT
TORSDOF 0
ENDMDL
MODEL 6
REMARK VINA RESULT:      -9.1      2.985      4.371
REMARK  Name = NuBBE_190
REMARK  8 active torsions:
REMARK  status: ('A' for Active; 'I' for Inactive)
REMARK    1  A    between atoms: C_1  and  C_2
REMARK    2  A    between atoms: C_2  and  C_35
REMARK    3  A    between atoms: C_6  and  C_33
REMARK    4  A    between atoms: C_11  and  C_32
REMARK    5  A    between atoms: C_16  and  C_31
REMARK    6  A    between atoms: C_19  and  C_30
REMARK    7  A    between atoms: C_22  and  C_29
REMARK    8  A    between atoms: C_24  and  C_28
REMARK                            x       y       z     vdW  Elec       q    Type
REMARK                         _______ _______ _______ _____ _____    ______ ____
ROOT
ATOM      1  C   LIG A   1      -8.119   6.569 130.521  0.00  0.00    +0.019 C 
ATOM      2  C   LIG A   1      -8.866   5.434 131.266  0.00  0.00    +0.027 C 
ATOM      3  C   LIG A   1     -10.017   5.023 130.312  0.00  0.00    +0.139 C 
ATOM      4  C   LIG A   1     -10.846   3.828 130.658  0.00  0.00    +0.075 C 
ATOM      5  C   LIG A   1      -9.967   2.650 131.031  0.00  0.00    +0.015 C 
ATOM      6  C   LIG A   1      -8.905   2.918 132.167  0.00  0.00    -0.024 C 
ATOM      7  C   LIG A   1      -8.031   4.076 131.533  0.00  0.00    +0.008 C 
ATOM      8  C   LIG A   1      -6.637   4.123 132.174  0.00  0.00    +0.005 C 
ATOM      9  C   LIG A   1      -5.898   2.729 132.014  0.00  0.00    +0.008 C 
ATOM     10  C   LIG A   1      -6.487   1.545 132.854  0.00  0.00    -0.019 C 
ATOM     11  C   LIG A   1      -8.113   1.573 132.648  0.00  0.00    +0.006 C 
ATOM     12  C   LIG A   1      -8.765   0.375 131.916  0.00  0.00    +0.031 C 
ATOM     13  C   LIG A   1      -8.077  -0.916 132.151  0.00  0.00    -0.026 C 
ATOM     14  C   LIG A   1      -6.817  -0.783 131.710  0.00  0.00    -0.063 C 
ATOM     15  C   LIG A   1      -5.854  -0.061 132.650  0.00  0.00    -0.005 C 
ATOM     16  C   LIG A   1      -4.359  -0.305 132.210  0.00  0.00    +0.012 C 
ATOM     17  C   LIG A   1      -4.172  -1.399 131.106  0.00  0.00    +0.008 C 
ATOM     18  C   LIG A   1      -5.016  -1.067 129.853  0.00  0.00    -0.025 C 
ATOM     19  C   LIG A   1      -6.490  -1.245 130.291  0.00  0.00    +0.024 C 
ATOM     20  C   LIG A   1      -7.527  -0.972 129.145  0.00  0.00    -0.004 C 
ATOM     21  C   LIG A   1      -7.244  -1.942 127.970  0.00  0.00    -0.011 C 
ATOM     22  C   LIG A   1      -5.783  -1.833 127.502  0.00  0.00    +0.004 C 
ATOM     23  C   LIG A   1      -4.778  -2.038 128.661  0.00  0.00    +0.007 C 
ATOM     24  C   LIG A   1      -8.242  -1.781 126.817  0.00  0.00    +0.008 C 
ATOM     25  C   LIG A   1      -7.616   0.492 128.683  0.00  0.00    +0.008 C 
ATOM     26  C   LIG A   1      -4.584   0.335 129.396  0.00  0.00    +0.012 C 
ATOM     27  C   LIG A   1      -5.893  -0.841 134.033  0.00  0.00    +0.016 C 
ATOM     28  C   LIG A   1      -6.145   1.958 134.330  0.00  0.00    +0.012 C 
ATOM     29  C   LIG A   1      -9.700   3.292 133.442  0.00  0.00    +0.012 C 
ATOM     30  O   LIG A   1     -10.311   5.676 129.280  0.00  0.00    -0.297 OA
ATOM     31  C   LIG A   1      -9.456   6.113 132.524  0.00  0.00    +0.019 C 
ENDROOT
TORSDOF 0
ENDMDL
MODEL 7
REMARK VINA RESULT:      -9.0      4.521      7.574
REMARK  Name = NuBBE_190
REMARK  8 active torsions:
REMARK  status: ('A' for Active; 'I' for Inactive)
REMARK    1  A    between atoms: C_1  and  C_2
REMARK    2  A    between atoms: C_2  and  C_35
REMARK    3  A    between atoms: C_6  and  C_33
REMARK    4  A    between atoms: C_11  and  C_32
REMARK    5  A    between atoms: C_16  and  C_31
REMARK    6  A    between atoms: C_19  and  C_30
REMARK    7  A    between atoms: C_22  and  C_29
REMARK    8  A    between atoms: C_24  and  C_28
REMARK                            x       y       z     vdW  Elec       q    Type
REMARK                         _______ _______ _______ _____ _____    ______ ____
ROOT
ATOM      1  C   LIG A   1      -6.563  -3.321 132.513  0.00  0.00    +0.019 C 
ATOM      2  C   LIG A   1      -5.696  -2.169 131.945  0.00  0.00    +0.027 C 
ATOM      3  C   LIG A   1      -4.415  -2.861 131.414  0.00  0.00    +0.139 C 
ATOM      4  C   LIG A   1      -3.423  -2.047 130.647  0.00  0.00    +0.075 C 
ATOM      5  C   LIG A   1      -4.113  -1.225 129.575  0.00  0.00    +0.015 C 
ATOM      6  C   LIG A   1      -5.297  -0.307 130.070  0.00  0.00    -0.024 C 
ATOM      7  C   LIG A   1      -6.302  -1.368 130.679  0.00  0.00    +0.008 C 
ATOM      8  C   LIG A   1      -7.733  -0.812 130.712  0.00  0.00    +0.005 C 
ATOM      9  C   LIG A   1      -8.202  -0.385 129.259  0.00  0.00    +0.008 C 
ATOM     10  C   LIG A   1      -7.490   0.873 128.655  0.00  0.00    -0.019 C 
ATOM     11  C   LIG A   1      -5.882   0.683 128.910  0.00  0.00    +0.006 C 
ATOM     12  C   LIG A   1      -4.972   0.516 127.669  0.00  0.00    +0.031 C 
ATOM     13  C   LIG A   1      -5.443   1.261 126.478  0.00  0.00    -0.026 C 
ATOM     14  C   LIG A   1      -6.665   0.798 126.175  0.00  0.00    -0.063 C 
ATOM     15  C   LIG A   1      -7.815   1.349 127.015  0.00  0.00    -0.005 C 
ATOM     16  C   LIG A   1      -9.202   1.042 126.330  0.00  0.00    +0.012 C 
ATOM     17  C   LIG A   1      -9.102   0.489 124.868  0.00  0.00    +0.008 C 
ATOM     18  C   LIG A   1      -8.225  -0.785 124.820  0.00  0.00    -0.025 C 
ATOM     19  C   LIG A   1      -6.785  -0.304 125.123  0.00  0.00    +0.024 C 
ATOM     20  C   LIG A   1      -5.718  -1.455 125.103  0.00  0.00    -0.004 C 
ATOM     21  C   LIG A   1      -5.728  -2.125 123.706  0.00  0.00    -0.011 C 
ATOM     22  C   LIG A   1      -7.141  -2.604 123.331  0.00  0.00    +0.004 C 
ATOM     23  C   LIG A   1      -8.189  -1.469 123.424  0.00  0.00    +0.007 C 
ATOM     24  C   LIG A   1      -4.678  -3.236 123.575  0.00  0.00    +0.008 C 
ATOM     25  C   LIG A   1      -5.846  -2.482 126.242  0.00  0.00    +0.008 C 
ATOM     26  C   LIG A   1      -8.854  -1.783 125.804  0.00  0.00    +0.012 C 
ATOM     27  C   LIG A   1      -7.758   2.932 126.886  0.00  0.00    +0.016 C 
ATOM     28  C   LIG A   1      -8.022   2.044 129.556  0.00  0.00    +0.012 C 
ATOM     29  C   LIG A   1      -4.690   0.703 131.075  0.00  0.00    +0.012 C 
ATOM     30  O   LIG A   1      -4.153  -4.070 131.636  0.00  0.00    -0.297 OA
ATOM     31  C   LIG A   1      -5.342  -1.302 133.176  0.00  0.00    +0.019 C 
ENDROOT
TORSDOF 0
ENDMDL
MODEL 8
REMARK VINA RESULT:      -9.0      3.395      6.378
REMARK  Name = NuBBE_190
REMARK  8 active torsions:
REMARK  status: ('A' for Active; 'I' for Inactive)
REMARK    1  A    between atoms: C_1  and  C_2
REMARK    2  A    between atoms: C_2  and  C_35
REMARK    3  A    between atoms: C_6  and  C_33
REMARK    4  A    between atoms: C_11  and  C_32
REMARK    5  A    between atoms: C_16  and  C_31
REMARK    6  A    between atoms: C_19  and  C_30
REMARK    7  A    between atoms: C_22  and  C_29
REMARK    8  A    between atoms: C_24  and  C_28
REMARK                            x       y       z     vdW  Elec       q    Type
REMARK                         _______ _______ _______ _____ _____    ______ ____
ROOT
ATOM      1  C   LIG A   1      -6.489  -1.871 128.092  0.00  0.00    +0.019 C 
ATOM      2  C   LIG A   1      -6.591  -1.830 129.638  0.00  0.00    +0.027 C 
ATOM      3  C   LIG A   1      -5.162  -2.159 130.139  0.00  0.00    +0.139 C 
ATOM      4  C   LIG A   1      -4.868  -2.044 131.601  0.00  0.00    +0.075 C 
ATOM      5  C   LIG A   1      -5.376  -0.726 132.152  0.00  0.00    +0.015 C 
ATOM      6  C   LIG A   1      -6.898  -0.410 131.880  0.00  0.00    -0.024 C 
ATOM      7  C   LIG A   1      -6.954  -0.401 130.298  0.00  0.00    +0.008 C 
ATOM      8  C   LIG A   1      -8.155   0.415 129.798  0.00  0.00    +0.005 C 
ATOM      9  C   LIG A   1      -8.096   1.900 130.351  0.00  0.00    +0.008 C 
ATOM     10  C   LIG A   1      -8.343   2.063 131.890  0.00  0.00    -0.019 C 
ATOM     11  C   LIG A   1      -7.431   0.931 132.647  0.00  0.00    +0.006 C 
ATOM     12  C   LIG A   1      -6.276   1.427 133.552  0.00  0.00    +0.031 C 
ATOM     13  C   LIG A   1      -6.558   2.715 134.228  0.00  0.00    -0.026 C 
ATOM     14  C   LIG A   1      -6.770   3.630 133.270  0.00  0.00    -0.063 C 
ATOM     15  C   LIG A   1      -8.159   3.623 132.636  0.00  0.00    -0.005 C 
ATOM     16  C   LIG A   1      -8.409   4.954 131.828  0.00  0.00    +0.012 C 
ATOM     17  C   LIG A   1      -7.331   6.067 132.051  0.00  0.00    +0.008 C 
ATOM     18  C   LIG A   1      -5.916   5.538 131.719  0.00  0.00    -0.025 C 
ATOM     19  C   LIG A   1      -5.596   4.500 132.823  0.00  0.00    +0.024 C 
ATOM     20  C   LIG A   1      -4.176   3.847 132.682  0.00  0.00    -0.004 C 
ATOM     21  C   LIG A   1      -3.102   4.963 132.732  0.00  0.00    -0.011 C 
ATOM     22  C   LIG A   1      -3.378   6.044 131.674  0.00  0.00    +0.004 C 
ATOM     23  C   LIG A   1      -4.807   6.626 131.787  0.00  0.00    +0.007 C 
ATOM     24  C   LIG A   1      -1.673   4.413 132.650  0.00  0.00    +0.008 C 
ATOM     25  C   LIG A   1      -4.001   2.926 131.462  0.00  0.00    +0.008 C 
ATOM     26  C   LIG A   1      -5.971   5.029 130.271  0.00  0.00    +0.012 C 
ATOM     27  C   LIG A   1      -9.204   3.786 133.821  0.00  0.00    +0.016 C 
ATOM     28  C   LIG A   1      -9.861   1.691 132.042  0.00  0.00    +0.012 C 
ATOM     29  C   LIG A   1      -7.717  -1.522 132.580  0.00  0.00    +0.012 C 
ATOM     30  O   LIG A   1      -4.248  -2.558 129.375  0.00  0.00    -0.297 OA
ATOM     31  C   LIG A   1      -7.545  -2.993 129.998  0.00  0.00    +0.019 C 
ENDROOT
TORSDOF 0
ENDMDL
MODEL 9
REMARK VINA RESULT:      -8.9      3.564      6.374
REMARK  Name = NuBBE_190
REMARK  8 active torsions:
REMARK  status: ('A' for Active; 'I' for Inactive)
REMARK    1  A    between atoms: C_1  and  C_2
REMARK    2  A    between atoms: C_2  and  C_35
REMARK    3  A    between atoms: C_6  and  C_33
REMARK    4  A    between atoms: C_11  and  C_32
REMARK    5  A    between atoms: C_16  and  C_31
REMARK    6  A    between atoms: C_19  and  C_30
REMARK    7  A    between atoms: C_22  and  C_29
REMARK    8  A    between atoms: C_24  and  C_28
REMARK                            x       y       z     vdW  Elec       q    Type
REMARK                         _______ _______ _______ _____ _____    ______ ____
ROOT
ATOM      1  C   LIG A   1      -9.664   1.257 132.146  0.00  0.00    +0.019 C 
ATOM      2  C   LIG A   1      -8.202   1.105 131.654  0.00  0.00    +0.027 C 
ATOM      3  C   LIG A   1      -7.871  -0.396 131.850  0.00  0.00    +0.139 C 
ATOM      4  C   LIG A   1      -6.577  -0.923 131.319  0.00  0.00    +0.075 C 
ATOM      5  C   LIG A   1      -6.357  -0.473 129.888  0.00  0.00    +0.015 C 
ATOM      6  C   LIG A   1      -6.452   1.082 129.635  0.00  0.00    -0.024 C 
ATOM      7  C   LIG A   1      -7.936   1.398 130.087  0.00  0.00    +0.008 C 
ATOM      8  C   LIG A   1      -8.445   2.688 129.430  0.00  0.00    +0.005 C 
ATOM      9  C   LIG A   1      -8.366   2.583 127.850  0.00  0.00    +0.008 C 
ATOM     10  C   LIG A   1      -6.923   2.579 127.239  0.00  0.00    -0.019 C 
ATOM     11  C   LIG A   1      -6.032   1.521 128.119  0.00  0.00    +0.006 C 
ATOM     12  C   LIG A   1      -5.515   0.249 127.403  0.00  0.00    +0.031 C 
ATOM     13  C   LIG A   1      -5.206   0.454 125.969  0.00  0.00    -0.026 C 
ATOM     14  C   LIG A   1      -6.340   0.848 125.368  0.00  0.00    -0.063 C 
ATOM     15  C   LIG A   1      -6.704   2.322 125.534  0.00  0.00    -0.005 C 
ATOM     16  C   LIG A   1      -7.811   2.742 124.491  0.00  0.00    +0.012 C 
ATOM     17  C   LIG A   1      -8.104   1.675 123.383  0.00  0.00    +0.008 C 
ATOM     18  C   LIG A   1      -8.498   0.319 124.014  0.00  0.00    -0.025 C 
ATOM     19  C   LIG A   1      -7.209  -0.209 124.691  0.00  0.00    +0.024 C 
ATOM     20  C   LIG A   1      -7.388  -1.606 125.384  0.00  0.00    -0.004 C 
ATOM     21  C   LIG A   1      -7.844  -2.639 124.323  0.00  0.00    -0.011 C 
ATOM     22  C   LIG A   1      -9.110  -2.161 123.593  0.00  0.00    +0.004 C 
ATOM     23  C   LIG A   1      -8.935  -0.753 122.975  0.00  0.00    +0.007 C 
ATOM     24  C   LIG A   1      -7.999  -4.052 124.901  0.00  0.00    +0.008 C 
ATOM     25  C   LIG A   1      -8.298  -1.605 126.624  0.00  0.00    +0.008 C 
ATOM     26  C   LIG A   1      -9.705   0.596 124.922  0.00  0.00    +0.012 C 
ATOM     27  C   LIG A   1      -5.462   3.162 125.011  0.00  0.00    +0.016 C 
ATOM     28  C   LIG A   1      -6.418   4.040 127.521  0.00  0.00    +0.012 C 
ATOM     29  C   LIG A   1      -5.333   1.741 130.478  0.00  0.00    +0.012 C 
ATOM     30  O   LIG A   1      -8.627  -1.183 132.473  0.00  0.00    -0.297 OA
ATOM     31  C   LIG A   1      -7.366   1.952 132.642  0.00  0.00    +0.019 C 
ENDROOT
TORSDOF 0
ENDMDL
