MODEL 1
REMARK VINA RESULT:      -5.8      0.000      0.000
REMARK  Name = NuBBE_1014
REMARK  5 active torsions:
REMARK  status: ('A' for Active; 'I' for Inactive)
REMARK    1  A    between atoms: C_1  and  C_2
REMARK    2  A    between atoms: C_6  and  C_15
REMARK    3  A    between atoms: C_8  and  O_14
REMARK    4  A    between atoms: C_9  and  O_10
REMARK    5  A    between atoms: O_10  and  C_11
REMARK                            x       y       z     vdW  Elec       q    Type
REMARK                         _______ _______ _______ _____ _____    ______ ____
ROOT
ATOM      1  C   LIG A   1      -7.523   4.198 118.838  0.00  0.00    +0.086 C 
ATOM      2  C   LIG A   1      -7.010   4.070 120.239  0.00  0.00    +0.106 A 
ATOM      3  C   LIG A   1      -5.792   4.483 120.601  0.00  0.00    +0.092 A 
ATOM      4  C   LIG A   1      -5.352   4.325 121.997  0.00  0.00    +0.193 A 
ATOM      5  C   LIG A   1      -6.311   3.697 122.938  0.00  0.00    +0.071 A 
ATOM      6  C   LIG A   1      -6.015   3.491 124.307  0.00  0.00    -0.032 A 
ATOM      7  C   LIG A   1      -6.985   2.888 125.131  0.00  0.00    +0.053 A 
ATOM      8  C   LIG A   1      -8.214   2.498 124.605  0.00  0.00    +0.163 A 
ATOM      9  C   LIG A   1      -8.496   2.691 123.253  0.00  0.00    +0.205 A 
ATOM     10  C   LIG A   1      -7.553   3.304 122.421  0.00  0.00    +0.184 A 
ATOM     11  O   LIG A   1      -7.913   3.488 121.106  0.00  0.00    -0.456 OA
ATOM     12  C   LIG A   1      -4.703   3.893 124.926  0.00  0.00    +0.045 C 
ATOM     13  O   LIG A   1      -4.233   4.705 122.317  0.00  0.00    -0.287 OA
ENDROOT
BRANCH   9  14
ATOM     14  O   LIG A   1      -9.733   2.347 122.766  0.00  0.00    -0.488 OA
ATOM     15  C   LIG A   1      -9.788   0.945 122.510  0.00  0.00    +0.277 C 
ENDBRANCH   9  14
BRANCH   8  16
ATOM     16  O   LIG A   1      -9.152   1.910 125.408  0.00  0.00    -0.503 OA
ATOM     17  H   LIG A   1      -9.702   2.598 125.815  0.00  0.00    +0.292 HD
ENDBRANCH   8  16
TORSDOF 2
ENDMDL
MODEL 2
REMARK VINA RESULT:      -5.7      3.606      5.232
REMARK  Name = NuBBE_1014
REMARK  5 active torsions:
REMARK  status: ('A' for Active; 'I' for Inactive)
REMARK    1  A    between atoms: C_1  and  C_2
REMARK    2  A    between atoms: C_6  and  C_15
REMARK    3  A    between atoms: C_8  and  O_14
REMARK    4  A    between atoms: C_9  and  O_10
REMARK    5  A    between atoms: O_10  and  C_11
REMARK                            x       y       z     vdW  Elec       q    Type
REMARK                         _______ _______ _______ _____ _____    ______ ____
ROOT
ATOM      1  C   LIG A   1      -9.675  -3.634 123.569  0.00  0.00    +0.086 C 
ATOM      2  C   LIG A   1      -8.775  -2.573 124.121  0.00  0.00    +0.106 A 
ATOM      3  C   LIG A   1      -7.548  -2.835 124.582  0.00  0.00    +0.092 A 
ATOM      4  C   LIG A   1      -6.718  -1.742 125.113  0.00  0.00    +0.193 A 
ATOM      5  C   LIG A   1      -7.311  -0.382 125.106  0.00  0.00    +0.071 A 
ATOM      6  C   LIG A   1      -6.618   0.756 125.583  0.00  0.00    -0.032 A 
ATOM      7  C   LIG A   1      -7.255   2.010 125.539  0.00  0.00    +0.053 A 
ATOM      8  C   LIG A   1      -8.549   2.127 125.037  0.00  0.00    +0.163 A 
ATOM      9  C   LIG A   1      -9.233   1.001 124.581  0.00  0.00    +0.205 A 
ATOM     10  C   LIG A   1      -8.611  -0.252 124.599  0.00  0.00    +0.184 A 
ATOM     11  O   LIG A   1      -9.336  -1.312 124.106  0.00  0.00    -0.456 OA
ATOM     12  C   LIG A   1      -5.219   0.686 126.135  0.00  0.00    +0.045 C 
ATOM     13  O   LIG A   1      -5.597  -1.994 125.535  0.00  0.00    -0.287 OA
ENDROOT
BRANCH   9  14
ATOM     14  O   LIG A   1     -10.488   1.146 124.041  0.00  0.00    -0.488 OA
ATOM     15  C   LIG A   1     -10.407   1.193 122.618  0.00  0.00    +0.277 C 
ENDBRANCH   9  14
BRANCH   8  16
ATOM     16  O   LIG A   1      -9.166   3.348 124.999  0.00  0.00    -0.503 OA
ATOM     17  H   LIG A   1      -9.854   3.338 124.314  0.00  0.00    +0.292 HD
ENDBRANCH   8  16
TORSDOF 2
ENDMDL
MODEL 3
REMARK VINA RESULT:      -5.7      1.523      3.964
REMARK  Name = NuBBE_1014
REMARK  5 active torsions:
REMARK  status: ('A' for Active; 'I' for Inactive)
REMARK    1  A    between atoms: C_1  and  C_2
REMARK    2  A    between atoms: C_6  and  C_15
REMARK    3  A    between atoms: C_8  and  O_14
REMARK    4  A    between atoms: C_9  and  O_10
REMARK    5  A    between atoms: O_10  and  C_11
REMARK                            x       y       z     vdW  Elec       q    Type
REMARK                         _______ _______ _______ _____ _____    ______ ____
ROOT
ATOM      1  C   LIG A   1      -5.318   3.961 127.450  0.00  0.00    +0.086 C 
ATOM      2  C   LIG A   1      -5.893   3.810 126.076  0.00  0.00    +0.106 A 
ATOM      3  C   LIG A   1      -5.322   4.346 124.993  0.00  0.00    +0.092 A 
ATOM      4  C   LIG A   1      -5.943   4.158 123.672  0.00  0.00    +0.193 A 
ATOM      5  C   LIG A   1      -7.197   3.367 123.624  0.00  0.00    +0.071 A 
ATOM      6  C   LIG A   1      -7.892   3.108 122.418  0.00  0.00    -0.032 A 
ATOM      7  C   LIG A   1      -9.075   2.347 122.463  0.00  0.00    +0.053 A 
ATOM      8  C   LIG A   1      -9.556   1.861 123.676  0.00  0.00    +0.163 A 
ATOM      9  C   LIG A   1      -8.876   2.130 124.863  0.00  0.00    +0.205 A 
ATOM     10  C   LIG A   1      -7.688   2.869 124.838  0.00  0.00    +0.184 A 
ATOM     11  O   LIG A   1      -7.057   3.069 126.043  0.00  0.00    -0.456 OA
ATOM     12  C   LIG A   1      -7.417   3.610 121.080  0.00  0.00    +0.045 C 
ATOM     13  O   LIG A   1      -5.413   4.656 122.687  0.00  0.00    -0.287 OA
ENDROOT
BRANCH   9  14
ATOM     14  O   LIG A   1      -9.338   1.597 126.041  0.00  0.00    -0.488 OA
ATOM     15  C   LIG A   1      -8.788   0.296 126.240  0.00  0.00    +0.277 C 
ENDBRANCH   9  14
BRANCH   8  16
ATOM     16  O   LIG A   1     -10.709   1.125 123.715  0.00  0.00    -0.503 OA
ATOM     17  H   LIG A   1     -11.457   1.688 123.462  0.00  0.00    +0.292 HD
ENDBRANCH   8  16
TORSDOF 2
ENDMDL
MODEL 4
REMARK VINA RESULT:      -5.6      4.822      7.009
REMARK  Name = NuBBE_1014
REMARK  5 active torsions:
REMARK  status: ('A' for Active; 'I' for Inactive)
REMARK    1  A    between atoms: C_1  and  C_2
REMARK    2  A    between atoms: C_6  and  C_15
REMARK    3  A    between atoms: C_8  and  O_14
REMARK    4  A    between atoms: C_9  and  O_10
REMARK    5  A    between atoms: O_10  and  C_11
REMARK                            x       y       z     vdW  Elec       q    Type
REMARK                         _______ _______ _______ _____ _____    ______ ____
ROOT
ATOM      1  C   LIG A   1      -4.860   1.378 126.229  0.00  0.00    +0.086 C 
ATOM      2  C   LIG A   1      -5.757   0.252 126.642  0.00  0.00    +0.106 A 
ATOM      3  C   LIG A   1      -5.762  -0.247 127.882  0.00  0.00    +0.092 A 
ATOM      4  C   LIG A   1      -6.669  -1.356 128.219  0.00  0.00    +0.193 A 
ATOM      5  C   LIG A   1      -7.542  -1.865 127.132  0.00  0.00    +0.071 A 
ATOM      6  C   LIG A   1      -8.462  -2.923 127.325  0.00  0.00    -0.032 A 
ATOM      7  C   LIG A   1      -9.254  -3.344 126.238  0.00  0.00    +0.053 A 
ATOM      8  C   LIG A   1      -9.129  -2.731 124.994  0.00  0.00    +0.163 A 
ATOM      9  C   LIG A   1      -8.211  -1.698 124.807  0.00  0.00    +0.205 A 
ATOM     10  C   LIG A   1      -7.427  -1.252 125.878  0.00  0.00    +0.184 A 
ATOM     11  O   LIG A   1      -6.567  -0.210 125.625  0.00  0.00    -0.456 OA
ATOM     12  C   LIG A   1      -8.637  -3.621 128.647  0.00  0.00    +0.045 C 
ATOM     13  O   LIG A   1      -6.664  -1.808 129.356  0.00  0.00    -0.287 OA
ENDROOT
BRANCH   9  14
ATOM     14  O   LIG A   1      -8.140  -1.070 123.587  0.00  0.00    -0.488 OA
ATOM     15  C   LIG A   1      -7.148  -1.692 122.772  0.00  0.00    +0.277 C 
ENDBRANCH   9  14
BRANCH   8  16
ATOM     16  O   LIG A   1      -9.897  -3.145 123.941  0.00  0.00    -0.503 OA
ATOM     17  H   LIG A   1     -10.800  -3.318 124.252  0.00  0.00    +0.292 HD
ENDBRANCH   8  16
TORSDOF 2
ENDMDL
MODEL 5
REMARK VINA RESULT:      -5.6      3.090      5.508
REMARK  Name = NuBBE_1014
REMARK  5 active torsions:
REMARK  status: ('A' for Active; 'I' for Inactive)
REMARK    1  A    between atoms: C_1  and  C_2
REMARK    2  A    between atoms: C_6  and  C_15
REMARK    3  A    between atoms: C_8  and  O_14
REMARK    4  A    between atoms: C_9  and  O_10
REMARK    5  A    between atoms: O_10  and  C_11
REMARK                            x       y       z     vdW  Elec       q    Type
REMARK                         _______ _______ _______ _____ _____    ______ ____
ROOT
ATOM      1  C   LIG A   1      -4.962   2.166 126.362  0.00  0.00    +0.086 C 
ATOM      2  C   LIG A   1      -5.697   1.010 125.759  0.00  0.00    +0.106 A 
ATOM      3  C   LIG A   1      -5.292  -0.256 125.903  0.00  0.00    +0.092 A 
ATOM      4  C   LIG A   1      -6.063  -1.345 125.281  0.00  0.00    +0.193 A 
ATOM      5  C   LIG A   1      -7.272  -0.959 124.512  0.00  0.00    +0.071 A 
ATOM      6  C   LIG A   1      -8.103  -1.908 123.870  0.00  0.00    -0.032 A 
ATOM      7  C   LIG A   1      -9.232  -1.455 123.161  0.00  0.00    +0.053 A 
ATOM      8  C   LIG A   1      -9.523  -0.095 123.090  0.00  0.00    +0.163 A 
ATOM      9  C   LIG A   1      -8.693   0.836 123.713  0.00  0.00    +0.205 A 
ATOM     10  C   LIG A   1      -7.575   0.406 124.438  0.00  0.00    +0.184 A 
ATOM     11  O   LIG A   1      -6.821   1.380 125.050  0.00  0.00    -0.456 OA
ATOM     12  C   LIG A   1      -7.835  -3.388 123.914  0.00  0.00    +0.045 C 
ATOM     13  O   LIG A   1      -5.681  -2.500 125.416  0.00  0.00    -0.287 OA
ENDROOT
BRANCH   9  14
ATOM     14  O   LIG A   1      -9.026   2.169 123.676  0.00  0.00    -0.488 OA
ATOM     15  C   LIG A   1      -8.474   2.781 122.512  0.00  0.00    +0.277 C 
ENDBRANCH   9  14
BRANCH   8  16
ATOM     16  O   LIG A   1     -10.619   0.341 122.397  0.00  0.00    -0.503 OA
ATOM     17  H   LIG A   1     -11.415  -0.077 122.763  0.00  0.00    +0.292 HD
ENDBRANCH   8  16
TORSDOF 2
ENDMDL
MODEL 6
REMARK VINA RESULT:      -5.6      8.132      9.925
REMARK  Name = NuBBE_1014
REMARK  5 active torsions:
REMARK  status: ('A' for Active; 'I' for Inactive)
REMARK    1  A    between atoms: C_1  and  C_2
REMARK    2  A    between atoms: C_6  and  C_15
REMARK    3  A    between atoms: C_8  and  O_14
REMARK    4  A    between atoms: C_9  and  O_10
REMARK    5  A    between atoms: O_10  and  C_11
REMARK                            x       y       z     vdW  Elec       q    Type
REMARK                         _______ _______ _______ _____ _____    ______ ____
ROOT
ATOM      1  C   LIG A   1      -4.498   7.834 129.968  0.00  0.00    +0.086 C 
ATOM      2  C   LIG A   1      -5.442   7.144 130.902  0.00  0.00    +0.106 A 
ATOM      3  C   LIG A   1      -5.025   6.459 131.972  0.00  0.00    +0.092 A 
ATOM      4  C   LIG A   1      -6.009   5.804 132.849  0.00  0.00    +0.193 A 
ATOM      5  C   LIG A   1      -7.439   5.945 132.479  0.00  0.00    +0.071 A 
ATOM      6  C   LIG A   1      -8.485   5.368 133.238  0.00  0.00    -0.032 A 
ATOM      7  C   LIG A   1      -9.816   5.553 132.816  0.00  0.00    +0.053 A 
ATOM      8  C   LIG A   1     -10.096   6.287 131.666  0.00  0.00    +0.163 A 
ATOM      9  C   LIG A   1      -9.062   6.841 130.914  0.00  0.00    +0.205 A 
ATOM     10  C   LIG A   1      -7.733   6.685 131.326  0.00  0.00    +0.184 A 
ATOM     11  O   LIG A   1      -6.769   7.285 130.551  0.00  0.00    -0.456 OA
ATOM     12  C   LIG A   1      -8.238   4.566 134.487  0.00  0.00    +0.045 C 
ATOM     13  O   LIG A   1      -5.617   5.177 133.824  0.00  0.00    -0.287 OA
ENDROOT
BRANCH   9  14
ATOM     14  O   LIG A   1      -9.362   7.607 129.814  0.00  0.00    -0.488 OA
ATOM     15  C   LIG A   1      -9.829   6.777 128.751  0.00  0.00    +0.277 C 
ENDBRANCH   9  14
BRANCH   8  16
ATOM     16  O   LIG A   1     -11.390   6.460 131.258  0.00  0.00    -0.503 OA
ATOM     17  H   LIG A   1     -11.735   5.619 130.919  0.00  0.00    +0.292 HD
ENDBRANCH   8  16
TORSDOF 2
ENDMDL
MODEL 7
REMARK VINA RESULT:      -5.5      3.700      6.531
REMARK  Name = NuBBE_1014
REMARK  5 active torsions:
REMARK  status: ('A' for Active; 'I' for Inactive)
REMARK    1  A    between atoms: C_1  and  C_2
REMARK    2  A    between atoms: C_6  and  C_15
REMARK    3  A    between atoms: C_8  and  O_14
REMARK    4  A    between atoms: C_9  and  O_10
REMARK    5  A    between atoms: O_10  and  C_11
REMARK                            x       y       z     vdW  Elec       q    Type
REMARK                         _______ _______ _______ _____ _____    ______ ____
ROOT
ATOM      1  C   LIG A   1      -7.768  -2.479 128.134  0.00  0.00    +0.086 C 
ATOM      2  C   LIG A   1      -8.251  -1.824 126.878  0.00  0.00    +0.106 A 
ATOM      3  C   LIG A   1      -8.645  -2.520 125.807  0.00  0.00    +0.092 A 
ATOM      4  C   LIG A   1      -9.107  -1.810 124.603  0.00  0.00    +0.193 A 
ATOM      5  C   LIG A   1      -9.104  -0.327 124.654  0.00  0.00    +0.071 A 
ATOM      6  C   LIG A   1      -9.529   0.475 123.568  0.00  0.00    -0.032 A 
ATOM      7  C   LIG A   1      -9.494   1.877 123.702  0.00  0.00    +0.053 A 
ATOM      8  C   LIG A   1      -9.046   2.462 124.883  0.00  0.00    +0.163 A 
ATOM      9  C   LIG A   1      -8.616   1.668 125.945  0.00  0.00    +0.205 A 
ATOM     10  C   LIG A   1      -8.659   0.273 125.839  0.00  0.00    +0.184 A 
ATOM     11  O   LIG A   1      -8.248  -0.445 126.938  0.00  0.00    -0.456 OA
ATOM     12  C   LIG A   1     -10.021  -0.105 122.270  0.00  0.00    +0.045 C 
ATOM     13  O   LIG A   1      -9.463  -2.457 123.627  0.00  0.00    -0.287 OA
ENDROOT
BRANCH   9  14
ATOM     14  O   LIG A   1      -8.228   2.264 127.120  0.00  0.00    -0.488 OA
ATOM     15  C   LIG A   1      -6.825   2.521 127.099  0.00  0.00    +0.277 C 
ENDBRANCH   9  14
BRANCH   8  16
ATOM     16  O   LIG A   1      -9.011   3.824 125.007  0.00  0.00    -0.503 OA
ATOM     17  H   LIG A   1      -8.227   4.167 124.549  0.00  0.00    +0.292 HD
ENDBRANCH   8  16
TORSDOF 2
ENDMDL
MODEL 8
REMARK VINA RESULT:      -5.5      3.591      5.822
REMARK  Name = NuBBE_1014
REMARK  5 active torsions:
REMARK  status: ('A' for Active; 'I' for Inactive)
REMARK    1  A    between atoms: C_1  and  C_2
REMARK    2  A    between atoms: C_6  and  C_15
REMARK    3  A    between atoms: C_8  and  O_14
REMARK    4  A    between atoms: C_9  and  O_10
REMARK    5  A    between atoms: O_10  and  C_11
REMARK                            x       y       z     vdW  Elec       q    Type
REMARK                         _______ _______ _______ _____ _____    ______ ____
ROOT
ATOM      1  C   LIG A   1      -7.914   3.319 123.558  0.00  0.00    +0.086 C 
ATOM      2  C   LIG A   1      -8.155   1.842 123.590  0.00  0.00    +0.106 A 
ATOM      3  C   LIG A   1      -9.214   1.271 123.008  0.00  0.00    +0.092 A 
ATOM      4  C   LIG A   1      -9.389  -0.189 123.080  0.00  0.00    +0.193 A 
ATOM      5  C   LIG A   1      -8.354  -0.955 123.817  0.00  0.00    +0.071 A 
ATOM      6  C   LIG A   1      -8.400  -2.363 123.957  0.00  0.00    -0.032 A 
ATOM      7  C   LIG A   1      -7.375  -3.011 124.673  0.00  0.00    +0.053 A 
ATOM      8  C   LIG A   1      -6.335  -2.276 125.237  0.00  0.00    +0.163 A 
ATOM      9  C   LIG A   1      -6.301  -0.889 125.108  0.00  0.00    +0.205 A 
ATOM     10  C   LIG A   1      -7.300  -0.226 124.385  0.00  0.00    +0.184 A 
ATOM     11  O   LIG A   1      -7.184   1.139 124.275  0.00  0.00    -0.456 OA
ATOM     12  C   LIG A   1      -9.501  -3.204 123.369  0.00  0.00    +0.045 C 
ATOM     13  O   LIG A   1     -10.363  -0.701 122.545  0.00  0.00    -0.287 OA
ENDROOT
BRANCH   9  14
ATOM     14  O   LIG A   1      -5.239  -0.188 125.625  0.00  0.00    -0.488 OA
ATOM     15  C   LIG A   1      -5.531   0.234 126.956  0.00  0.00    +0.277 C 
ENDBRANCH   9  14
BRANCH   8  16
ATOM     16  O   LIG A   1      -5.343  -2.910 125.934  0.00  0.00    -0.503 OA
ATOM     17  H   LIG A   1      -4.529  -2.907 125.406  0.00  0.00    +0.292 HD
ENDBRANCH   8  16
TORSDOF 2
ENDMDL
MODEL 9
REMARK VINA RESULT:      -5.3      3.336      5.984
REMARK  Name = NuBBE_1014
REMARK  5 active torsions:
REMARK  status: ('A' for Active; 'I' for Inactive)
REMARK    1  A    between atoms: C_1  and  C_2
REMARK    2  A    between atoms: C_6  and  C_15
REMARK    3  A    between atoms: C_8  and  O_14
REMARK    4  A    between atoms: C_9  and  O_10
REMARK    5  A    between atoms: O_10  and  C_11
REMARK                            x       y       z     vdW  Elec       q    Type
REMARK                         _______ _______ _______ _____ _____    ______ ____
ROOT
ATOM      1  C   LIG A   1      -7.989  -4.176 124.672  0.00  0.00    +0.086 C 
ATOM      2  C   LIG A   1      -8.146  -2.731 124.315  0.00  0.00    +0.106 A 
ATOM      3  C   LIG A   1      -9.108  -2.290 123.498  0.00  0.00    +0.092 A 
ATOM      4  C   LIG A   1      -9.203  -0.854 123.189  0.00  0.00    +0.193 A 
ATOM      5  C   LIG A   1      -8.197   0.037 123.816  0.00  0.00    +0.071 A 
ATOM      6  C   LIG A   1      -8.179   1.437 123.606  0.00  0.00    -0.032 A 
ATOM      7  C   LIG A   1      -7.188   2.209 124.242  0.00  0.00    +0.053 A 
ATOM      8  C   LIG A   1      -6.239   1.604 125.061  0.00  0.00    +0.163 A 
ATOM      9  C   LIG A   1      -6.253   0.223 125.255  0.00  0.00    +0.205 A 
ATOM     10  C   LIG A   1      -7.239  -0.561 124.646  0.00  0.00    +0.184 A 
ATOM     11  O   LIG A   1      -7.207  -1.911 124.907  0.00  0.00    -0.456 OA
ATOM     12  C   LIG A   1      -9.180   2.142 122.730  0.00  0.00    +0.045 C 
ATOM     13  O   LIG A   1     -10.086  -0.462 122.437  0.00  0.00    -0.287 OA
ENDROOT
BRANCH   9  14
ATOM     14  O   LIG A   1      -5.341  -0.348 126.109  0.00  0.00    -0.488 OA
ATOM     15  C   LIG A   1      -5.839  -0.327 127.445  0.00  0.00    +0.277 C 
ENDBRANCH   9  14
BRANCH   8  16
ATOM     16  O   LIG A   1      -5.276   2.358 125.674  0.00  0.00    -0.503 OA
ATOM     17  H   LIG A   1      -5.522   2.498 126.603  0.00  0.00    +0.292 HD
ENDBRANCH   8  16
TORSDOF 2
ENDMDL
