MODEL 1
REMARK VINA RESULT:      -7.8      0.000      0.000
REMARK  Name = NuBBE_2510
REMARK  1 active torsions:
REMARK  status: ('A' for Active; 'I' for Inactive)
REMARK    1  A    between atoms: O_1  and  C_2
REMARK                            x       y       z     vdW  Elec       q    Type
REMARK                         _______ _______ _______ _____ _____    ______ ____
ROOT
ATOM      1  C   LIG A   1      -6.022   4.787 119.528  0.00  0.00    +0.120 A 
ATOM      2  C   LIG A   1      -5.121   4.616 120.573  0.00  0.00    +0.046 A 
ATOM      3  C   LIG A   1      -5.570   4.074 121.773  0.00  0.00    +0.014 A 
ATOM      4  C   LIG A   1      -6.909   3.671 121.918  0.00  0.00    +0.035 A 
ATOM      5  C   LIG A   1      -7.355   3.023 123.195  0.00  0.00    +0.218 C 
ATOM      6  C   LIG A   1      -8.797   2.475 123.171  0.00  0.00    +0.105 C 
ATOM      7  C   LIG A   1      -8.579   1.194 123.904  0.00  0.00    +0.008 A 
ATOM      8  C   LIG A   1      -9.487   0.301 124.457  0.00  0.00    +0.057 A 
ATOM      9  C   LIG A   1      -8.939  -0.829 125.050  0.00  0.00    +0.167 A 
ATOM     10  O   LIG A   1      -9.638  -1.813 125.681  0.00  0.00    -0.453 OA
ATOM     11  C   LIG A   1      -8.562  -2.651 126.159  0.00  0.00    +0.466 C 
ATOM     12  O   LIG A   1      -7.264  -2.247 125.682  0.00  0.00    -0.453 OA
ATOM     13  C   LIG A   1      -7.577  -1.079 125.063  0.00  0.00    +0.170 A 
ATOM     14  C   LIG A   1      -6.668  -0.208 124.512  0.00  0.00    +0.095 A 
ATOM     15  C   LIG A   1      -7.208   0.941 123.970  0.00  0.00    +0.129 A 
ATOM     16  O   LIG A   1      -6.433   1.932 123.442  0.00  0.00    -0.483 OA
ATOM     17  C   LIG A   1      -9.281   2.285 121.737  0.00  0.00    +0.241 C 
ATOM     18  O   LIG A   1      -9.110   3.471 120.943  0.00  0.00    -0.491 OA
ATOM     19  C   LIG A   1      -7.794   3.846 120.858  0.00  0.00    +0.131 A 
ATOM     20  C   LIG A   1      -7.360   4.428 119.666  0.00  0.00    +0.091 A 
ENDROOT
BRANCH   1  21
ATOM     21  O   LIG A   1      -5.612   5.294 118.331  0.00  0.00    -0.507 OA
ATOM     22  H   LIG A   1      -5.931   6.209 118.260  0.00  0.00    +0.292 HD
ENDBRANCH   1  21
TORSDOF 1
ENDMDL
MODEL 2
REMARK VINA RESULT:      -7.7      9.568     10.514
REMARK  Name = NuBBE_2510
REMARK  1 active torsions:
REMARK  status: ('A' for Active; 'I' for Inactive)
REMARK    1  A    between atoms: O_1  and  C_2
REMARK                            x       y       z     vdW  Elec       q    Type
REMARK                         _______ _______ _______ _____ _____    ______ ____
ROOT
ATOM      1  C   LIG A   1     -12.880   9.358 129.297  0.00  0.00    +0.120 A 
ATOM      2  C   LIG A   1     -13.159   9.147 130.642  0.00  0.00    +0.046 A 
ATOM      3  C   LIG A   1     -12.649   8.015 131.271  0.00  0.00    +0.014 A 
ATOM      4  C   LIG A   1     -11.834   7.112 130.565  0.00  0.00    +0.035 A 
ATOM      5  C   LIG A   1     -11.237   5.938 131.281  0.00  0.00    +0.218 C 
ATOM      6  C   LIG A   1     -10.231   5.119 130.447  0.00  0.00    +0.105 C 
ATOM      7  C   LIG A   1      -9.203   4.860 131.496  0.00  0.00    +0.008 A 
ATOM      8  C   LIG A   1      -8.128   3.980 131.515  0.00  0.00    +0.057 A 
ATOM      9  C   LIG A   1      -7.337   4.017 132.656  0.00  0.00    +0.167 A 
ATOM     10  O   LIG A   1      -6.260   3.220 132.902  0.00  0.00    -0.453 OA
ATOM     11  C   LIG A   1      -5.906   3.641 134.238  0.00  0.00    +0.466 C 
ATOM     12  O   LIG A   1      -6.667   4.771 134.705  0.00  0.00    -0.453 OA
ATOM     13  C   LIG A   1      -7.571   4.898 133.699  0.00  0.00    +0.170 A 
ATOM     14  C   LIG A   1      -8.624   5.779 133.689  0.00  0.00    +0.095 A 
ATOM     15  C   LIG A   1      -9.443   5.706 132.580  0.00  0.00    +0.129 A 
ATOM     16  O   LIG A   1     -10.565   6.470 132.450  0.00  0.00    -0.483 OA
ATOM     17  C   LIG A   1      -9.710   5.936 129.269  0.00  0.00    +0.241 C 
ATOM     18  O   LIG A   1     -10.774   6.498 128.484  0.00  0.00    -0.491 OA
ATOM     19  C   LIG A   1     -11.563   7.345 129.220  0.00  0.00    +0.131 A 
ATOM     20  C   LIG A   1     -12.106   8.455 128.573  0.00  0.00    +0.091 A 
ENDROOT
BRANCH   1  21
ATOM     21  O   LIG A   1     -13.344  10.467 128.654  0.00  0.00    -0.507 OA
ATOM     22  H   LIG A   1     -12.724  10.689 127.939  0.00  0.00    +0.292 HD
ENDBRANCH   1  21
TORSDOF 1
ENDMDL
MODEL 3
REMARK VINA RESULT:      -7.6      8.274      9.295
REMARK  Name = NuBBE_2510
REMARK  1 active torsions:
REMARK  status: ('A' for Active; 'I' for Inactive)
REMARK    1  A    between atoms: O_1  and  C_2
REMARK                            x       y       z     vdW  Elec       q    Type
REMARK                         _______ _______ _______ _____ _____    ______ ____
ROOT
ATOM      1  C   LIG A   1     -12.774   8.710 128.598  0.00  0.00    +0.120 A 
ATOM      2  C   LIG A   1     -11.812   8.211 127.727  0.00  0.00    +0.046 A 
ATOM      3  C   LIG A   1     -10.772   7.440 128.236  0.00  0.00    +0.014 A 
ATOM      4  C   LIG A   1     -10.710   7.140 129.608  0.00  0.00    +0.035 A 
ATOM      5  C   LIG A   1      -9.620   6.248 130.123  0.00  0.00    +0.218 C 
ATOM      6  C   LIG A   1      -9.756   5.856 131.609  0.00  0.00    +0.105 C 
ATOM      7  C   LIG A   1      -9.354   4.422 131.517  0.00  0.00    +0.008 A 
ATOM      8  C   LIG A   1      -9.020   3.510 132.509  0.00  0.00    +0.057 A 
ATOM      9  C   LIG A   1      -8.723   2.225 132.073  0.00  0.00    +0.167 A 
ATOM     10  O   LIG A   1      -8.336   1.187 132.866  0.00  0.00    -0.453 OA
ATOM     11  C   LIG A   1      -8.088   0.163 131.876  0.00  0.00    +0.466 C 
ATOM     12  O   LIG A   1      -8.471   0.549 130.542  0.00  0.00    -0.453 OA
ATOM     13  C   LIG A   1      -8.788   1.855 130.740  0.00  0.00    +0.170 A 
ATOM     14  C   LIG A   1      -9.125   2.745 129.750  0.00  0.00    +0.095 A 
ATOM     15  C   LIG A   1      -9.369   4.035 130.176  0.00  0.00    +0.129 A 
ATOM     16  O   LIG A   1      -9.654   5.049 129.308  0.00  0.00    -0.483 OA
ATOM     17  C   LIG A   1     -11.187   6.061 132.095  0.00  0.00    +0.241 C 
ATOM     18  O   LIG A   1     -11.675   7.382 131.808  0.00  0.00    -0.491 OA
ATOM     19  C   LIG A   1     -11.685   7.644 130.462  0.00  0.00    +0.131 A 
ATOM     20  C   LIG A   1     -12.708   8.453 129.966  0.00  0.00    +0.091 A 
ENDROOT
BRANCH   1  21
ATOM     21  O   LIG A   1     -13.820   9.450 128.132  0.00  0.00    -0.507 OA
ATOM     22  H   LIG A   1     -14.351   8.891 127.540  0.00  0.00    +0.292 HD
ENDBRANCH   1  21
TORSDOF 1
ENDMDL
MODEL 4
REMARK VINA RESULT:      -7.3      8.929      9.821
REMARK  Name = NuBBE_2510
REMARK  1 active torsions:
REMARK  status: ('A' for Active; 'I' for Inactive)
REMARK    1  A    between atoms: O_1  and  C_2
REMARK                            x       y       z     vdW  Elec       q    Type
REMARK                         _______ _______ _______ _____ _____    ______ ____
ROOT
ATOM      1  C   LIG A   1     -12.107   7.231 126.594  0.00  0.00    +0.120 A 
ATOM      2  C   LIG A   1     -11.058   8.133 126.726  0.00  0.00    +0.046 A 
ATOM      3  C   LIG A   1     -10.436   8.273 127.962  0.00  0.00    +0.014 A 
ATOM      4  C   LIG A   1     -10.838   7.489 129.057  0.00  0.00    +0.035 A 
ATOM      5  C   LIG A   1     -10.106   7.604 130.361  0.00  0.00    +0.218 C 
ATOM      6  C   LIG A   1     -10.528   6.576 131.431  0.00  0.00    +0.105 C 
ATOM      7  C   LIG A   1      -9.185   6.242 131.987  0.00  0.00    +0.008 A 
ATOM      8  C   LIG A   1      -8.826   5.559 133.142  0.00  0.00    +0.057 A 
ATOM      9  C   LIG A   1      -7.463   5.392 133.346  0.00  0.00    +0.167 A 
ATOM     10  O   LIG A   1      -6.889   4.789 134.424  0.00  0.00    -0.453 OA
ATOM     11  C   LIG A   1      -5.487   4.986 134.136  0.00  0.00    +0.466 C 
ATOM     12  O   LIG A   1      -5.243   5.558 132.837  0.00  0.00    -0.453 OA
ATOM     13  C   LIG A   1      -6.512   5.840 132.444  0.00  0.00    +0.170 A 
ATOM     14  C   LIG A   1      -6.853   6.509 131.294  0.00  0.00    +0.095 A 
ATOM     15  C   LIG A   1      -8.205   6.723 131.116  0.00  0.00    +0.129 A 
ATOM     16  O   LIG A   1      -8.699   7.426 130.057  0.00  0.00    -0.483 OA
ATOM     17  C   LIG A   1     -11.239   5.388 130.791  0.00  0.00    +0.241 C 
ATOM     18  O   LIG A   1     -12.320   5.796 129.937  0.00  0.00    -0.491 OA
ATOM     19  C   LIG A   1     -11.887   6.587 128.903  0.00  0.00    +0.131 A 
ATOM     20  C   LIG A   1     -12.543   6.472 127.678  0.00  0.00    +0.091 A 
ENDROOT
BRANCH   1  21
ATOM     21  O   LIG A   1     -12.725   7.051 125.392  0.00  0.00    -0.507 OA
ATOM     22  H   LIG A   1     -13.158   6.180 125.397  0.00  0.00    +0.292 HD
ENDBRANCH   1  21
TORSDOF 1
ENDMDL
MODEL 5
REMARK VINA RESULT:      -7.1      4.824      7.503
REMARK  Name = NuBBE_2510
REMARK  1 active torsions:
REMARK  status: ('A' for Active; 'I' for Inactive)
REMARK    1  A    between atoms: O_1  and  C_2
REMARK                            x       y       z     vdW  Elec       q    Type
REMARK                         _______ _______ _______ _____ _____    ______ ____
ROOT
ATOM      1  C   LIG A   1      -7.981  -2.085 123.408  0.00  0.00    +0.120 A 
ATOM      2  C   LIG A   1      -6.901  -1.300 123.793  0.00  0.00    +0.046 A 
ATOM      3  C   LIG A   1      -6.631  -1.136 125.148  0.00  0.00    +0.014 A 
ATOM      4  C   LIG A   1      -7.419  -1.783 126.116  0.00  0.00    +0.035 A 
ATOM      5  C   LIG A   1      -7.067  -1.650 127.568  0.00  0.00    +0.218 C 
ATOM      6  C   LIG A   1      -7.899  -2.538 128.517  0.00  0.00    +0.105 C 
ATOM      7  C   LIG A   1      -6.817  -2.978 129.445  0.00  0.00    +0.008 A 
ATOM      8  C   LIG A   1      -6.883  -3.605 130.682  0.00  0.00    +0.057 A 
ATOM      9  C   LIG A   1      -5.663  -3.909 131.271  0.00  0.00    +0.167 A 
ATOM     10  O   LIG A   1      -5.494  -4.488 132.492  0.00  0.00    -0.453 OA
ATOM     11  C   LIG A   1      -4.053  -4.475 132.606  0.00  0.00    +0.466 C 
ATOM     12  O   LIG A   1      -3.387  -4.036 131.406  0.00  0.00    -0.453 OA
ATOM     13  C   LIG A   1      -4.450  -3.643 130.658  0.00  0.00    +0.170 A 
ATOM     14  C   LIG A   1      -4.370  -3.031 129.431  0.00  0.00    +0.095 A 
ATOM     15  C   LIG A   1      -5.581  -2.680 128.868  0.00  0.00    +0.129 A 
ATOM     16  O   LIG A   1      -5.667  -2.009 127.683  0.00  0.00    -0.483 OA
ATOM     17  C   LIG A   1      -8.554  -3.684 127.753  0.00  0.00    +0.241 C 
ATOM     18  O   LIG A   1      -9.294  -3.223 126.610  0.00  0.00    -0.491 OA
ATOM     19  C   LIG A   1      -8.493  -2.569 125.709  0.00  0.00    +0.131 A 
ATOM     20  C   LIG A   1      -8.795  -2.704 124.354  0.00  0.00    +0.091 A 
ENDROOT
BRANCH   1  21
ATOM     21  O   LIG A   1      -8.261  -2.287 122.089  0.00  0.00    -0.507 OA
ATOM     22  H   LIG A   1      -7.796  -1.610 121.569  0.00  0.00    +0.292 HD
ENDBRANCH   1  21
TORSDOF 1
ENDMDL
MODEL 6
REMARK VINA RESULT:      -7.0     10.579     11.597
REMARK  Name = NuBBE_2510
REMARK  1 active torsions:
REMARK  status: ('A' for Active; 'I' for Inactive)
REMARK    1  A    between atoms: O_1  and  C_2
REMARK                            x       y       z     vdW  Elec       q    Type
REMARK                         _______ _______ _______ _____ _____    ______ ____
ROOT
ATOM      1  C   LIG A   1     -12.302   8.131 129.940  0.00  0.00    +0.120 A 
ATOM      2  C   LIG A   1     -12.736   7.413 131.048  0.00  0.00    +0.046 A 
ATOM      3  C   LIG A   1     -11.847   6.559 131.692  0.00  0.00    +0.014 A 
ATOM      4  C   LIG A   1     -10.517   6.446 131.251  0.00  0.00    +0.035 A 
ATOM      5  C   LIG A   1      -9.557   5.575 132.004  0.00  0.00    +0.218 C 
ATOM      6  C   LIG A   1      -8.093   5.665 131.526  0.00  0.00    +0.105 C 
ATOM      7  C   LIG A   1      -7.407   5.650 132.850  0.00  0.00    +0.008 A 
ATOM      8  C   LIG A   1      -6.069   5.466 133.176  0.00  0.00    +0.057 A 
ATOM      9  C   LIG A   1      -5.760   5.545 134.527  0.00  0.00    +0.167 A 
ATOM     10  O   LIG A   1      -4.525   5.362 135.071  0.00  0.00    -0.453 OA
ATOM     11  C   LIG A   1      -4.825   5.475 136.480  0.00  0.00    +0.466 C 
ATOM     12  O   LIG A   1      -6.184   5.870 136.747  0.00  0.00    -0.453 OA
ATOM     13  C   LIG A   1      -6.709   5.827 135.495  0.00  0.00    +0.170 A 
ATOM     14  C   LIG A   1      -8.034   6.019 135.186  0.00  0.00    +0.095 A 
ATOM     15  C   LIG A   1      -8.352   5.888 133.850  0.00  0.00    +0.129 A 
ATOM     16  O   LIG A   1      -9.633   5.987 133.391  0.00  0.00    -0.483 OA
ATOM     17  C   LIG A   1      -7.860   6.946 130.731  0.00  0.00    +0.241 C 
ATOM     18  O   LIG A   1      -8.816   7.109 129.669  0.00  0.00    -0.491 OA
ATOM     19  C   LIG A   1     -10.101   7.178 130.142  0.00  0.00    +0.131 A 
ATOM     20  C   LIG A   1     -10.998   8.005 129.466  0.00  0.00    +0.091 A 
ENDROOT
BRANCH   1  21
ATOM     21  O   LIG A   1     -13.139   8.995 129.297  0.00  0.00    -0.507 OA
ATOM     22  H   LIG A   1     -13.333   8.635 128.415  0.00  0.00    +0.292 HD
ENDBRANCH   1  21
TORSDOF 1
ENDMDL
MODEL 7
REMARK VINA RESULT:      -7.0      7.643     10.386
REMARK  Name = NuBBE_2510
REMARK  1 active torsions:
REMARK  status: ('A' for Active; 'I' for Inactive)
REMARK    1  A    between atoms: O_1  and  C_2
REMARK                            x       y       z     vdW  Elec       q    Type
REMARK                         _______ _______ _______ _____ _____    ______ ____
ROOT
ATOM      1  C   LIG A   1      -8.194   0.141 130.967  0.00  0.00    +0.120 A 
ATOM      2  C   LIG A   1      -9.351   0.401 131.692  0.00  0.00    +0.046 A 
ATOM      3  C   LIG A   1      -9.767   1.719 131.852  0.00  0.00    +0.014 A 
ATOM      4  C   LIG A   1      -9.047   2.773 131.262  0.00  0.00    +0.035 A 
ATOM      5  C   LIG A   1      -9.554   4.178 131.388  0.00  0.00    +0.218 C 
ATOM      6  C   LIG A   1      -8.774   5.220 130.560  0.00  0.00    +0.105 C 
ATOM      7  C   LIG A   1      -9.919   6.040 130.066  0.00  0.00    +0.008 A 
ATOM      8  C   LIG A   1      -9.944   7.287 129.455  0.00  0.00    +0.057 A 
ATOM      9  C   LIG A   1     -11.199   7.754 129.086  0.00  0.00    +0.167 A 
ATOM     10  O   LIG A   1     -11.459   8.960 128.509  0.00  0.00    -0.453 OA
ATOM     11  C   LIG A   1     -12.902   8.925 128.439  0.00  0.00    +0.466 C 
ATOM     12  O   LIG A   1     -13.466   7.658 128.826  0.00  0.00    -0.453 OA
ATOM     13  C   LIG A   1     -12.355   7.016 129.274  0.00  0.00    +0.170 A 
ATOM     14  C   LIG A   1     -12.344   5.778 129.869  0.00  0.00    +0.095 A 
ATOM     15  C   LIG A   1     -11.104   5.336 130.285  0.00  0.00    +0.129 A 
ATOM     16  O   LIG A   1     -10.935   4.156 130.948  0.00  0.00    -0.483 OA
ATOM     17  C   LIG A   1      -7.980   4.545 129.446  0.00  0.00    +0.241 C 
ATOM     18  O   LIG A   1      -7.154   3.477 129.939  0.00  0.00    -0.491 OA
ATOM     19  C   LIG A   1      -7.894   2.489 130.537  0.00  0.00    +0.131 A 
ATOM     20  C   LIG A   1      -7.448   1.174 130.407  0.00  0.00    +0.091 A 
ENDROOT
BRANCH   1  21
ATOM     21  O   LIG A   1      -7.768  -1.140 130.770  0.00  0.00    -0.507 OA
ATOM     22  H   LIG A   1      -8.473  -1.745 131.057  0.00  0.00    +0.292 HD
ENDBRANCH   1  21
TORSDOF 1
ENDMDL
MODEL 8
REMARK VINA RESULT:      -7.0      8.825     10.003
REMARK  Name = NuBBE_2510
REMARK  1 active torsions:
REMARK  status: ('A' for Active; 'I' for Inactive)
REMARK    1  A    between atoms: O_1  and  C_2
REMARK                            x       y       z     vdW  Elec       q    Type
REMARK                         _______ _______ _______ _____ _____    ______ ____
ROOT
ATOM      1  C   LIG A   1     -12.559   7.127 129.184  0.00  0.00    +0.120 A 
ATOM      2  C   LIG A   1     -11.482   7.389 128.345  0.00  0.00    +0.046 A 
ATOM      3  C   LIG A   1     -10.192   7.352 128.866  0.00  0.00    +0.014 A 
ATOM      4  C   LIG A   1      -9.976   7.022 130.216  0.00  0.00    +0.035 A 
ATOM      5  C   LIG A   1      -8.575   6.918 130.738  0.00  0.00    +0.218 C 
ATOM      6  C   LIG A   1      -8.464   6.386 132.182  0.00  0.00    +0.105 C 
ATOM      7  C   LIG A   1      -7.277   5.496 132.020  0.00  0.00    +0.008 A 
ATOM      8  C   LIG A   1      -6.471   4.878 132.967  0.00  0.00    +0.057 A 
ATOM      9  C   LIG A   1      -5.455   4.076 132.464  0.00  0.00    +0.167 A 
ATOM     10  O   LIG A   1      -4.529   3.408 133.208  0.00  0.00    -0.453 OA
ATOM     11  C   LIG A   1      -3.704   2.836 132.169  0.00  0.00    +0.466 C 
ATOM     12  O   LIG A   1      -4.227   3.038 130.843  0.00  0.00    -0.453 OA
ATOM     13  C   LIG A   1      -5.270   3.867 131.108  0.00  0.00    +0.170 A 
ATOM     14  C   LIG A   1      -6.065   4.466 130.161  0.00  0.00    +0.095 A 
ATOM     15  C   LIG A   1      -7.041   5.305 130.657  0.00  0.00    +0.129 A 
ATOM     16  O   LIG A   1      -7.870   6.021 129.844  0.00  0.00    -0.483 OA
ATOM     17  C   LIG A   1      -9.734   5.645 132.587  0.00  0.00    +0.241 C 
ATOM     18  O   LIG A   1     -10.916   6.430 132.360  0.00  0.00    -0.491 OA
ATOM     19  C   LIG A   1     -11.068   6.758 131.037  0.00  0.00    +0.131 A 
ATOM     20  C   LIG A   1     -12.366   6.834 130.532  0.00  0.00    +0.091 A 
ENDROOT
BRANCH   1  21
ATOM     21  O   LIG A   1     -13.834   7.131 128.702  0.00  0.00    -0.507 OA
ATOM     22  H   LIG A   1     -14.435   6.880 129.424  0.00  0.00    +0.292 HD
ENDBRANCH   1  21
TORSDOF 1
ENDMDL
MODEL 9
REMARK VINA RESULT:      -7.0      9.797     11.098
REMARK  Name = NuBBE_2510
REMARK  1 active torsions:
REMARK  status: ('A' for Active; 'I' for Inactive)
REMARK    1  A    between atoms: O_1  and  C_2
REMARK                            x       y       z     vdW  Elec       q    Type
REMARK                         _______ _______ _______ _____ _____    ______ ____
ROOT
ATOM      1  C   LIG A   1      -2.719   7.003 132.134  0.00  0.00    +0.120 A 
ATOM      2  C   LIG A   1      -3.121   6.971 130.804  0.00  0.00    +0.046 A 
ATOM      3  C   LIG A   1      -4.380   6.471 130.489  0.00  0.00    +0.014 A 
ATOM      4  C   LIG A   1      -5.250   6.035 131.504  0.00  0.00    +0.035 A 
ATOM      5  C   LIG A   1      -6.630   5.568 131.148  0.00  0.00    +0.218 C 
ATOM      6  C   LIG A   1      -7.543   5.277 132.356  0.00  0.00    +0.105 C 
ATOM      7  C   LIG A   1      -8.817   5.857 131.839  0.00  0.00    +0.008 A 
ATOM      8  C   LIG A   1     -10.121   5.738 132.303  0.00  0.00    +0.057 A 
ATOM      9  C   LIG A   1     -11.081   6.448 131.594  0.00  0.00    +0.167 A 
ATOM     10  O   LIG A   1     -12.419   6.447 131.849  0.00  0.00    -0.453 OA
ATOM     11  C   LIG A   1     -12.906   7.270 130.766  0.00  0.00    +0.466 C 
ATOM     12  O   LIG A   1     -11.857   7.867 129.981  0.00  0.00    -0.453 OA
ATOM     13  C   LIG A   1     -10.767   7.257 130.515  0.00  0.00    +0.170 A 
ATOM     14  C   LIG A   1      -9.480   7.390 130.051  0.00  0.00    +0.095 A 
ATOM     15  C   LIG A   1      -8.533   6.643 130.722  0.00  0.00    +0.129 A 
ATOM     16  O   LIG A   1      -7.222   6.618 130.343  0.00  0.00    -0.483 OA
ATOM     17  C   LIG A   1      -7.021   5.968 133.611  0.00  0.00    +0.241 C 
ATOM     18  O   LIG A   1      -5.637   5.670 133.860  0.00  0.00    -0.491 OA
ATOM     19  C   LIG A   1      -4.830   6.081 132.830  0.00  0.00    +0.131 A 
ATOM     20  C   LIG A   1      -3.553   6.541 133.150  0.00  0.00    +0.091 A 
ENDROOT
BRANCH   1  21
ATOM     21  O   LIG A   1      -1.500   7.507 132.482  0.00  0.00    -0.507 OA
ATOM     22  H   LIG A   1      -1.629   8.156 133.195  0.00  0.00    +0.292 HD
ENDBRANCH   1  21
TORSDOF 1
ENDMDL
