MODEL 1
REMARK VINA RESULT:      -8.5      0.000      0.000
REMARK  Name = NuBBE_1493
REMARK  9 active torsions:
REMARK  status: ('A' for Active; 'I' for Inactive)
REMARK    1  A    between atoms: O_1  and  C_2
REMARK    2  A    between atoms: O_1  and  C_3
REMARK    3  A    between atoms: C_5  and  C_15
REMARK    4  A    between atoms: C_8  and  O_9
REMARK    5  A    between atoms: O_9  and  C_10
REMARK    6  A    between atoms: C_10  and  C_11
REMARK    7  A    between atoms: C_12  and  C_13
REMARK    8  A    between atoms: C_12  and  C_14
REMARK    9  A    between atoms: C_23  and  C_27
REMARK                            x       y       z     vdW  Elec       q    Type
REMARK                         _______ _______ _______ _____ _____    ______ ____
ROOT
ATOM      1  C   LIG A   1      -5.500   2.626 126.965  0.00  0.00    +0.154 C 
ATOM      2  C   LIG A   1      -6.570   3.556 126.355  0.00  0.00    +0.056 C 
ATOM      3  C   LIG A   1      -6.015   3.916 124.999  0.00  0.00    +0.056 C 
ATOM      4  C   LIG A   1      -4.527   3.790 125.186  0.00  0.00    +0.167 C 
ATOM      5  O   LIG A   1      -4.335   2.716 126.109  0.00  0.00    -0.371 OA
ATOM      6  C   LIG A   1      -6.627   2.852 124.089  0.00  0.00    +0.154 C 
ATOM      7  O   LIG A   1      -7.890   2.495 124.681  0.00  0.00    -0.371 OA
ATOM      8  C   LIG A   1      -7.943   3.021 126.013  0.00  0.00    +0.167 C 
ENDROOT
BRANCH   6   9
ATOM      9  C   LIG A   1      -6.804   3.305 122.657  0.00  0.00    -0.015 A 
ATOM     10  C   LIG A   1      -8.078   3.339 122.068  0.00  0.00    +0.055 A 
ATOM     11  C   LIG A   1      -8.182   3.752 120.759  0.00  0.00    +0.167 A 
ATOM     12  C   LIG A   1      -7.083   4.134 120.027  0.00  0.00    +0.166 A 
ATOM     13  C   LIG A   1      -5.816   4.123 120.567  0.00  0.00    +0.050 A 
ATOM     14  C   LIG A   1      -5.678   3.705 121.895  0.00  0.00    +0.010 A 
ATOM     15  O   LIG A   1      -7.409   4.503 118.759  0.00  0.00    -0.453 OA
ATOM     16  C   LIG A   1      -8.839   4.308 118.781  0.00  0.00    +0.466 C 
ATOM     17  O   LIG A   1      -9.337   3.830 120.046  0.00  0.00    -0.453 OA
ENDBRANCH   6   9
BRANCH   1  20
ATOM     18  C   LIG A   1      -5.798  -1.167 126.481  0.00  0.00    +0.162 A 
ATOM     19  C   LIG A   1      -5.419   0.167 126.320  0.00  0.00    +0.055 A 
ATOM     20  C   LIG A   1      -5.842   1.172 127.205  0.00  0.00    -0.015 A 
ATOM     21  C   LIG A   1      -6.587   0.792 128.330  0.00  0.00    +0.010 A 
ATOM     22  C   LIG A   1      -6.924  -0.551 128.533  0.00  0.00    +0.050 A 
ATOM     23  C   LIG A   1      -6.530  -1.534 127.618  0.00  0.00    +0.162 A 
BRANCH  18  24
ATOM     24  O   LIG A   1      -5.429  -2.138 125.591  0.00  0.00    -0.491 OA
ATOM     25  C   LIG A   1      -5.681  -1.887 124.216  0.00  0.00    +0.277 C 
ENDBRANCH  18  24
BRANCH  23  26
ATOM     26  O   LIG A   1      -6.945  -2.802 127.941  0.00  0.00    -0.484 OA
BRANCH  26  27
ATOM     27  C   LIG A   1      -8.348  -3.039 127.857  0.00  0.00    +0.257 C 
BRANCH  27  28
ATOM     28  C   LIG A   1      -8.642  -3.503 126.475  0.00  0.00    +0.012 C 
ATOM     29  C   LIG A   1      -9.083  -2.728 125.456  0.00  0.00    -0.076 C 
ATOM     30  C   LIG A   1      -9.332  -1.245 125.558  0.00  0.00    +0.038 C 
ATOM     31  C   LIG A   1      -9.321  -3.322 124.103  0.00  0.00    +0.038 C 
ENDBRANCH  27  28
ENDBRANCH  26  27
ENDBRANCH  23  26
ENDBRANCH   1  20
TORSDOF 6
ENDMDL
MODEL 2
REMARK VINA RESULT:      -8.0      5.165      7.211
REMARK  Name = NuBBE_1493
REMARK  9 active torsions:
REMARK  status: ('A' for Active; 'I' for Inactive)
REMARK    1  A    between atoms: O_1  and  C_2
REMARK    2  A    between atoms: O_1  and  C_3
REMARK    3  A    between atoms: C_5  and  C_15
REMARK    4  A    between atoms: C_8  and  O_9
REMARK    5  A    between atoms: O_9  and  C_10
REMARK    6  A    between atoms: C_10  and  C_11
REMARK    7  A    between atoms: C_12  and  C_13
REMARK    8  A    between atoms: C_12  and  C_14
REMARK    9  A    between atoms: C_23  and  C_27
REMARK                            x       y       z     vdW  Elec       q    Type
REMARK                         _______ _______ _______ _____ _____    ______ ____
ROOT
ATOM      1  C   LIG A   1      -7.641   2.976 130.804  0.00  0.00    +0.154 C 
ATOM      2  C   LIG A   1      -8.910   3.255 131.637  0.00  0.00    +0.056 C 
ATOM      3  C   LIG A   1      -9.139   4.738 131.471  0.00  0.00    +0.056 C 
ATOM      4  C   LIG A   1      -7.760   5.276 131.202  0.00  0.00    +0.167 C 
ATOM      5  O   LIG A   1      -7.079   4.264 130.456  0.00  0.00    -0.371 OA
ATOM      6  C   LIG A   1     -10.084   4.804 130.272  0.00  0.00    +0.154 C 
ATOM      7  O   LIG A   1     -10.852   3.586 130.299  0.00  0.00    -0.371 OA
ATOM      8  C   LIG A   1     -10.242   2.672 131.219  0.00  0.00    +0.167 C 
ENDROOT
BRANCH   6   9
ATOM      9  C   LIG A   1     -10.984   6.018 130.274  0.00  0.00    -0.015 A 
ATOM     10  C   LIG A   1     -11.067   6.852 129.147  0.00  0.00    +0.055 A 
ATOM     11  C   LIG A   1     -11.896   7.949 129.204  0.00  0.00    +0.167 A 
ATOM     12  C   LIG A   1     -12.640   8.240 130.322  0.00  0.00    +0.166 A 
ATOM     13  C   LIG A   1     -12.596   7.447 131.448  0.00  0.00    +0.050 A 
ATOM     14  C   LIG A   1     -11.759   6.326 131.420  0.00  0.00    +0.010 A 
ATOM     15  O   LIG A   1     -13.387   9.366 130.167  0.00  0.00    -0.453 OA
ATOM     16  C   LIG A   1     -13.024   9.747 128.823  0.00  0.00    +0.466 C 
ATOM     17  O   LIG A   1     -12.077   8.854 128.206  0.00  0.00    -0.453 OA
ENDBRANCH   6   9
BRANCH   1  20
ATOM     18  C   LIG A   1      -8.287   1.888 127.184  0.00  0.00    +0.162 A 
ATOM     19  C   LIG A   1      -8.097   2.676 128.320  0.00  0.00    +0.055 A 
ATOM     20  C   LIG A   1      -7.752   2.119 129.562  0.00  0.00    -0.015 A 
ATOM     21  C   LIG A   1      -7.502   0.741 129.622  0.00  0.00    +0.010 A 
ATOM     22  C   LIG A   1      -7.632  -0.051 128.476  0.00  0.00    +0.050 A 
ATOM     23  C   LIG A   1      -8.019   0.514 127.255  0.00  0.00    +0.162 A 
BRANCH  18  24
ATOM     24  O   LIG A   1      -8.673   2.423 125.986  0.00  0.00    -0.491 OA
ATOM     25  C   LIG A   1      -7.689   3.131 125.245  0.00  0.00    +0.277 C 
ENDBRANCH  18  24
BRANCH  23  26
ATOM     26  O   LIG A   1      -8.119  -0.387 126.225  0.00  0.00    -0.484 OA
BRANCH  26  27
ATOM     27  C   LIG A   1      -8.426  -1.728 126.598  0.00  0.00    +0.257 C 
BRANCH  27  28
ATOM     28  C   LIG A   1      -9.233  -2.324 125.500  0.00  0.00    +0.012 C 
ATOM     29  C   LIG A   1      -8.743  -2.999 124.433  0.00  0.00    -0.076 C 
ATOM     30  C   LIG A   1      -7.280  -3.276 124.197  0.00  0.00    +0.038 C 
ATOM     31  C   LIG A   1      -9.671  -3.568 123.406  0.00  0.00    +0.038 C 
ENDBRANCH  27  28
ENDBRANCH  26  27
ENDBRANCH  23  26
ENDBRANCH   1  20
TORSDOF 6
ENDMDL
MODEL 3
REMARK VINA RESULT:      -7.9      9.119     11.820
REMARK  Name = NuBBE_1493
REMARK  9 active torsions:
REMARK  status: ('A' for Active; 'I' for Inactive)
REMARK    1  A    between atoms: O_1  and  C_2
REMARK    2  A    between atoms: O_1  and  C_3
REMARK    3  A    between atoms: C_5  and  C_15
REMARK    4  A    between atoms: C_8  and  O_9
REMARK    5  A    between atoms: O_9  and  C_10
REMARK    6  A    between atoms: C_10  and  C_11
REMARK    7  A    between atoms: C_12  and  C_13
REMARK    8  A    between atoms: C_12  and  C_14
REMARK    9  A    between atoms: C_23  and  C_27
REMARK                            x       y       z     vdW  Elec       q    Type
REMARK                         _______ _______ _______ _____ _____    ______ ____
ROOT
ATOM      1  C   LIG A   1      -7.199   4.108 133.466  0.00  0.00    +0.154 C 
ATOM      2  C   LIG A   1      -7.240   4.674 132.030  0.00  0.00    +0.056 C 
ATOM      3  C   LIG A   1      -8.684   4.526 131.619  0.00  0.00    +0.056 C 
ATOM      4  C   LIG A   1      -9.167   3.365 132.445  0.00  0.00    +0.167 C 
ATOM      5  O   LIG A   1      -8.470   3.451 133.690  0.00  0.00    -0.371 OA
ATOM      6  C   LIG A   1      -9.289   5.873 132.013  0.00  0.00    +0.154 C 
ATOM      7  O   LIG A   1      -8.225   6.838 131.904  0.00  0.00    -0.371 OA
ATOM      8  C   LIG A   1      -6.979   6.143 131.779  0.00  0.00    +0.167 C 
ENDROOT
BRANCH   6   9
ATOM      9  C   LIG A   1     -10.479   6.275 131.171  0.00  0.00    -0.015 A 
ATOM     10  C   LIG A   1     -10.418   6.222 129.770  0.00  0.00    +0.055 A 
ATOM     11  C   LIG A   1     -11.527   6.606 129.051  0.00  0.00    +0.167 A 
ATOM     12  C   LIG A   1     -12.680   7.031 129.667  0.00  0.00    +0.166 A 
ATOM     13  C   LIG A   1     -12.787   7.093 131.039  0.00  0.00    +0.050 A 
ATOM     14  C   LIG A   1     -11.675   6.711 131.796  0.00  0.00    +0.010 A 
ATOM     15  O   LIG A   1     -13.650   7.364 128.773  0.00  0.00    -0.453 OA
ATOM     16  C   LIG A   1     -12.971   7.101 127.527  0.00  0.00    +0.466 C 
ATOM     17  O   LIG A   1     -11.623   6.621 127.696  0.00  0.00    -0.453 OA
ENDBRANCH   6   9
BRANCH   1  20
ATOM     18  C   LIG A   1      -5.292   6.266 135.999  0.00  0.00    +0.162 A 
ATOM     19  C   LIG A   1      -5.593   5.471 134.892  0.00  0.00    +0.055 A 
ATOM     20  C   LIG A   1      -6.903   5.046 134.616  0.00  0.00    -0.015 A 
ATOM     21  C   LIG A   1      -7.938   5.521 135.433  0.00  0.00    +0.010 A 
ATOM     22  C   LIG A   1      -7.655   6.366 136.511  0.00  0.00    +0.050 A 
ATOM     23  C   LIG A   1      -6.339   6.746 136.797  0.00  0.00    +0.162 A 
BRANCH  18  24
ATOM     24  O   LIG A   1      -4.011   6.639 136.297  0.00  0.00    -0.491 OA
ATOM     25  C   LIG A   1      -3.422   7.645 135.484  0.00  0.00    +0.277 C 
ENDBRANCH  18  24
BRANCH  23  26
ATOM     26  O   LIG A   1      -6.215   7.564 137.892  0.00  0.00    -0.484 OA
BRANCH  26  27
ATOM     27  C   LIG A   1      -6.333   8.962 137.641  0.00  0.00    +0.257 C 
BRANCH  27  28
ATOM     28  C   LIG A   1      -7.289   9.517 138.637  0.00  0.00    +0.012 C 
ATOM     29  C   LIG A   1      -8.625   9.652 138.462  0.00  0.00    -0.076 C 
ATOM     30  C   LIG A   1      -9.369   9.238 137.219  0.00  0.00    +0.038 C 
ATOM     31  C   LIG A   1      -9.478  10.209 139.558  0.00  0.00    +0.038 C 
ENDBRANCH  27  28
ENDBRANCH  26  27
ENDBRANCH  23  26
ENDBRANCH   1  20
TORSDOF 6
ENDMDL
MODEL 4
REMARK VINA RESULT:      -7.7      4.960      7.125
REMARK  Name = NuBBE_1493
REMARK  9 active torsions:
REMARK  status: ('A' for Active; 'I' for Inactive)
REMARK    1  A    between atoms: O_1  and  C_2
REMARK    2  A    between atoms: O_1  and  C_3
REMARK    3  A    between atoms: C_5  and  C_15
REMARK    4  A    between atoms: C_8  and  O_9
REMARK    5  A    between atoms: O_9  and  C_10
REMARK    6  A    between atoms: C_10  and  C_11
REMARK    7  A    between atoms: C_12  and  C_13
REMARK    8  A    between atoms: C_12  and  C_14
REMARK    9  A    between atoms: C_23  and  C_27
REMARK                            x       y       z     vdW  Elec       q    Type
REMARK                         _______ _______ _______ _____ _____    ______ ____
ROOT
ATOM      1  C   LIG A   1      -7.307   2.815 130.498  0.00  0.00    +0.154 C 
ATOM      2  C   LIG A   1      -8.442   3.165 131.484  0.00  0.00    +0.056 C 
ATOM      3  C   LIG A   1      -8.723   4.624 131.217  0.00  0.00    +0.056 C 
ATOM      4  C   LIG A   1      -7.412   5.143 130.694  0.00  0.00    +0.167 C 
ATOM      5  O   LIG A   1      -6.831   4.069 129.951  0.00  0.00    -0.371 OA
ATOM      6  C   LIG A   1      -9.840   4.569 130.175  0.00  0.00    +0.154 C 
ATOM      7  O   LIG A   1     -10.570   3.355 130.431  0.00  0.00    -0.371 OA
ATOM      8  C   LIG A   1      -9.810   2.537 131.329  0.00  0.00    +0.167 C 
ENDROOT
BRANCH   6   9
ATOM      9  C   LIG A   1     -10.754   5.772 130.199  0.00  0.00    -0.015 A 
ATOM     10  C   LIG A   1     -10.821   6.646 129.102  0.00  0.00    +0.055 A 
ATOM     11  C   LIG A   1     -11.665   7.731 129.180  0.00  0.00    +0.167 A 
ATOM     12  C   LIG A   1     -12.437   7.972 130.290  0.00  0.00    +0.166 A 
ATOM     13  C   LIG A   1     -12.409   7.139 131.387  0.00  0.00    +0.050 A 
ATOM     14  C   LIG A   1     -11.559   6.029 131.338  0.00  0.00    +0.010 A 
ATOM     15  O   LIG A   1     -13.194   9.095 130.159  0.00  0.00    -0.453 OA
ATOM     16  C   LIG A   1     -12.805   9.529 128.838  0.00  0.00    +0.466 C 
ATOM     17  O   LIG A   1     -11.834   8.669 128.211  0.00  0.00    -0.453 OA
ENDBRANCH   6   9
BRANCH   1  20
ATOM     18  C   LIG A   1      -7.523  -0.432 128.469  0.00  0.00    +0.162 A 
ATOM     19  C   LIG A   1      -7.353   0.467 129.524  0.00  0.00    +0.055 A 
ATOM     20  C   LIG A   1      -7.585   1.844 129.373  0.00  0.00    -0.015 A 
ATOM     21  C   LIG A   1      -8.093   2.297 128.148  0.00  0.00    +0.010 A 
ATOM     22  C   LIG A   1      -8.323   1.398 127.102  0.00  0.00    +0.050 A 
ATOM     23  C   LIG A   1      -8.046   0.035 127.255  0.00  0.00    +0.162 A 
BRANCH  18  24
ATOM     24  O   LIG A   1      -7.248  -1.765 128.600  0.00  0.00    -0.491 OA
ATOM     25  C   LIG A   1      -8.035  -2.500 129.527  0.00  0.00    +0.277 C 
ENDBRANCH  18  24
BRANCH  23  26
ATOM     26  O   LIG A   1      -8.308  -0.722 126.140  0.00  0.00    -0.484 OA
BRANCH  26  27
ATOM     27  C   LIG A   1      -7.417  -0.542 125.042  0.00  0.00    +0.257 C 
BRANCH  27  28
ATOM     28  C   LIG A   1      -6.495  -1.709 125.019  0.00  0.00    +0.012 C 
ATOM     29  C   LIG A   1      -6.000  -2.305 123.908  0.00  0.00    -0.076 C 
ATOM     30  C   LIG A   1      -6.294  -1.859 122.498  0.00  0.00    +0.038 C 
ATOM     31  C   LIG A   1      -5.061  -3.464 124.026  0.00  0.00    +0.038 C 
ENDBRANCH  27  28
ENDBRANCH  26  27
ENDBRANCH  23  26
ENDBRANCH   1  20
TORSDOF 6
ENDMDL
MODEL 5
REMARK VINA RESULT:      -7.6      8.604     11.712
REMARK  Name = NuBBE_1493
REMARK  9 active torsions:
REMARK  status: ('A' for Active; 'I' for Inactive)
REMARK    1  A    between atoms: O_1  and  C_2
REMARK    2  A    between atoms: O_1  and  C_3
REMARK    3  A    between atoms: C_5  and  C_15
REMARK    4  A    between atoms: C_8  and  O_9
REMARK    5  A    between atoms: O_9  and  C_10
REMARK    6  A    between atoms: C_10  and  C_11
REMARK    7  A    between atoms: C_12  and  C_13
REMARK    8  A    between atoms: C_12  and  C_14
REMARK    9  A    between atoms: C_23  and  C_27
REMARK                            x       y       z     vdW  Elec       q    Type
REMARK                         _______ _______ _______ _____ _____    ______ ____
ROOT
ATOM      1  C   LIG A   1      -3.944   5.133 131.339  0.00  0.00    +0.154 C 
ATOM      2  C   LIG A   1      -3.023   5.326 132.563  0.00  0.00    +0.056 C 
ATOM      3  C   LIG A   1      -2.051   6.395 132.127  0.00  0.00    +0.056 C 
ATOM      4  C   LIG A   1      -2.010   6.241 130.631  0.00  0.00    +0.167 C 
ATOM      5  O   LIG A   1      -3.327   5.845 130.239  0.00  0.00    -0.371 OA
ATOM      6  C   LIG A   1      -2.721   7.680 132.609  0.00  0.00    +0.154 C 
ATOM      7  O   LIG A   1      -3.483   7.322 133.777  0.00  0.00    -0.371 OA
ATOM      8  C   LIG A   1      -3.574   5.894 133.853  0.00  0.00    +0.167 C 
ENDROOT
BRANCH   6   9
ATOM      9  C   LIG A   1      -1.747   8.796 132.914  0.00  0.00    -0.015 A 
ATOM     10  C   LIG A   1      -2.139  10.140 132.807  0.00  0.00    +0.055 A 
ATOM     11  C   LIG A   1      -1.211  11.117 133.089  0.00  0.00    +0.167 A 
ATOM     12  C   LIG A   1       0.073  10.810 133.472  0.00  0.00    +0.166 A 
ATOM     13  C   LIG A   1       0.500   9.506 133.596  0.00  0.00    +0.050 A 
ATOM     14  C   LIG A   1      -0.421   8.492 133.314  0.00  0.00    +0.010 A 
ATOM     15  O   LIG A   1       0.824  11.922 133.698  0.00  0.00    -0.453 OA
ATOM     16  C   LIG A   1      -0.138  12.959 133.411  0.00  0.00    +0.466 C 
ATOM     17  O   LIG A   1      -1.431  12.456 133.022  0.00  0.00    -0.453 OA
ENDBRANCH   6   9
BRANCH   1  20
ATOM     18  C   LIG A   1      -7.699   5.008 132.111  0.00  0.00    +0.162 A 
ATOM     19  C   LIG A   1      -6.338   4.697 132.078  0.00  0.00    +0.055 A 
ATOM     20  C   LIG A   1      -5.400   5.530 131.447  0.00  0.00    -0.015 A 
ATOM     21  C   LIG A   1      -5.847   6.750 130.923  0.00  0.00    +0.010 A 
ATOM     22  C   LIG A   1      -7.200   7.100 131.001  0.00  0.00    +0.050 A 
ATOM     23  C   LIG A   1      -8.128   6.238 131.596  0.00  0.00    +0.162 A 
BRANCH  18  24
ATOM     24  O   LIG A   1      -8.620   4.173 132.681  0.00  0.00    -0.491 OA
ATOM     25  C   LIG A   1      -8.423   3.825 134.044  0.00  0.00    +0.277 C 
ENDBRANCH  18  24
BRANCH  23  26
ATOM     26  O   LIG A   1      -9.418   6.708 131.586  0.00  0.00    -0.484 OA
BRANCH  26  27
ATOM     27  C   LIG A   1     -10.180   6.411 130.419  0.00  0.00    +0.257 C 
BRANCH  27  28
ATOM     28  C   LIG A   1     -11.313   7.374 130.368  0.00  0.00    +0.012 C 
ATOM     29  C   LIG A   1     -11.558   8.255 129.370  0.00  0.00    -0.076 C 
ATOM     30  C   LIG A   1     -10.720   8.388 128.124  0.00  0.00    +0.038 C 
ATOM     31  C   LIG A   1     -12.750   9.158 129.433  0.00  0.00    +0.038 C 
ENDBRANCH  27  28
ENDBRANCH  26  27
ENDBRANCH  23  26
ENDBRANCH   1  20
TORSDOF 6
ENDMDL
MODEL 6
REMARK VINA RESULT:      -7.4      4.051      7.200
REMARK  Name = NuBBE_1493
REMARK  9 active torsions:
REMARK  status: ('A' for Active; 'I' for Inactive)
REMARK    1  A    between atoms: O_1  and  C_2
REMARK    2  A    between atoms: O_1  and  C_3
REMARK    3  A    between atoms: C_5  and  C_15
REMARK    4  A    between atoms: C_8  and  O_9
REMARK    5  A    between atoms: O_9  and  C_10
REMARK    6  A    between atoms: C_10  and  C_11
REMARK    7  A    between atoms: C_12  and  C_13
REMARK    8  A    between atoms: C_12  and  C_14
REMARK    9  A    between atoms: C_23  and  C_27
REMARK                            x       y       z     vdW  Elec       q    Type
REMARK                         _______ _______ _______ _____ _____    ______ ____
ROOT
ATOM      1  C   LIG A   1      -6.119  -0.301 129.555  0.00  0.00    +0.154 C 
ATOM      2  C   LIG A   1      -6.710  -0.042 130.957  0.00  0.00    +0.056 C 
ATOM      3  C   LIG A   1      -6.805   1.462 131.042  0.00  0.00    +0.056 C 
ATOM      4  C   LIG A   1      -5.721   1.934 130.112  0.00  0.00    +0.167 C 
ATOM      5  O   LIG A   1      -5.670   0.979 129.049  0.00  0.00    -0.371 OA
ATOM      6  C   LIG A   1      -8.224   1.742 130.550  0.00  0.00    +0.154 C 
ATOM      7  O   LIG A   1      -9.007   0.587 130.902  0.00  0.00    -0.371 OA
ATOM      8  C   LIG A   1      -8.123  -0.475 131.283  0.00  0.00    +0.167 C 
ENDROOT
BRANCH   6   9
ATOM      9  C   LIG A   1      -8.827   3.006 131.119  0.00  0.00    -0.015 A 
ATOM     10  C   LIG A   1      -9.953   3.595 130.524  0.00  0.00    +0.055 A 
ATOM     11  C   LIG A   1     -10.458   4.750 131.079  0.00  0.00    +0.167 A 
ATOM     12  C   LIG A   1      -9.895   5.328 132.191  0.00  0.00    +0.166 A 
ATOM     13  C   LIG A   1      -8.794   4.781 132.812  0.00  0.00    +0.050 A 
ATOM     14  C   LIG A   1      -8.257   3.609 132.269  0.00  0.00    +0.010 A 
ATOM     15  O   LIG A   1     -10.547   6.460 132.570  0.00  0.00    -0.453 OA
ATOM     16  C   LIG A   1     -11.583   6.524 131.567  0.00  0.00    +0.466 C 
ATOM     17  O   LIG A   1     -11.531   5.443 130.616  0.00  0.00    -0.453 OA
ENDBRANCH   6   9
BRANCH   1  20
ATOM     18  C   LIG A   1      -8.463  -0.860 126.571  0.00  0.00    +0.162 A 
ATOM     19  C   LIG A   1      -7.601  -0.257 127.488  0.00  0.00    +0.055 A 
ATOM     20  C   LIG A   1      -6.975  -0.986 128.512  0.00  0.00    -0.015 A 
ATOM     21  C   LIG A   1      -7.158  -2.375 128.540  0.00  0.00    +0.010 A 
ATOM     22  C   LIG A   1      -7.973  -3.000 127.590  0.00  0.00    +0.050 A 
ATOM     23  C   LIG A   1      -8.624  -2.252 126.602  0.00  0.00    +0.162 A 
BRANCH  18  24
ATOM     24  O   LIG A   1      -9.112  -0.143 125.604  0.00  0.00    -0.491 OA
ATOM     25  C   LIG A   1      -8.464   1.024 125.118  0.00  0.00    +0.277 C 
ENDBRANCH  18  24
BRANCH  23  26
ATOM     26  O   LIG A   1      -9.399  -2.999 125.750  0.00  0.00    -0.484 OA
BRANCH  26  27
ATOM     27  C   LIG A   1      -8.968  -3.042 124.392  0.00  0.00    +0.257 C 
BRANCH  27  28
ATOM     28  C   LIG A   1      -7.618  -3.664 124.371  0.00  0.00    +0.012 C 
ATOM     29  C   LIG A   1      -6.478  -3.069 123.947  0.00  0.00    -0.076 C 
ATOM     30  C   LIG A   1      -6.393  -1.652 123.441  0.00  0.00    +0.038 C 
ATOM     31  C   LIG A   1      -5.176  -3.804 123.998  0.00  0.00    +0.038 C 
ENDBRANCH  27  28
ENDBRANCH  26  27
ENDBRANCH  23  26
ENDBRANCH   1  20
TORSDOF 6
ENDMDL
MODEL 7
REMARK VINA RESULT:      -7.4      7.167     10.546
REMARK  Name = NuBBE_1493
REMARK  9 active torsions:
REMARK  status: ('A' for Active; 'I' for Inactive)
REMARK    1  A    between atoms: O_1  and  C_2
REMARK    2  A    between atoms: O_1  and  C_3
REMARK    3  A    between atoms: C_5  and  C_15
REMARK    4  A    between atoms: C_8  and  O_9
REMARK    5  A    between atoms: O_9  and  C_10
REMARK    6  A    between atoms: C_10  and  C_11
REMARK    7  A    between atoms: C_12  and  C_13
REMARK    8  A    between atoms: C_12  and  C_14
REMARK    9  A    between atoms: C_23  and  C_27
REMARK                            x       y       z     vdW  Elec       q    Type
REMARK                         _______ _______ _______ _____ _____    ______ ____
ROOT
ATOM      1  C   LIG A   1      -4.795   4.856 129.224  0.00  0.00    +0.154 C 
ATOM      2  C   LIG A   1      -3.520   4.471 130.004  0.00  0.00    +0.056 C 
ATOM      3  C   LIG A   1      -2.751   5.765 130.114  0.00  0.00    +0.056 C 
ATOM      4  C   LIG A   1      -3.210   6.547 128.914  0.00  0.00    +0.167 C 
ATOM      5  O   LIG A   1      -4.581   6.194 128.714  0.00  0.00    -0.371 OA
ATOM      6  C   LIG A   1      -3.226   6.329 131.452  0.00  0.00    +0.154 C 
ATOM      7  O   LIG A   1      -3.556   5.194 132.273  0.00  0.00    -0.371 OA
ATOM      8  C   LIG A   1      -3.612   4.024 131.447  0.00  0.00    +0.167 C 
ENDROOT
BRANCH   6   9
ATOM      9  C   LIG A   1      -2.210   7.218 132.132  0.00  0.00    -0.015 A 
ATOM     10  C   LIG A   1      -2.545   8.524 132.523  0.00  0.00    +0.055 A 
ATOM     11  C   LIG A   1      -1.580   9.294 133.132  0.00  0.00    +0.167 A 
ATOM     12  C   LIG A   1      -0.313   8.817 133.368  0.00  0.00    +0.166 A 
ATOM     13  C   LIG A   1       0.059   7.540 133.007  0.00  0.00    +0.050 A 
ATOM     14  C   LIG A   1      -0.901   6.735 132.385  0.00  0.00    +0.010 A 
ATOM     15  O   LIG A   1       0.481   9.739 133.975  0.00  0.00    -0.453 OA
ATOM     16  C   LIG A   1      -0.435  10.849 134.091  0.00  0.00    +0.466 C 
ATOM     17  O   LIG A   1      -1.744  10.574 133.556  0.00  0.00    -0.453 OA
ENDBRANCH   6   9
BRANCH   1  20
ATOM     18  C   LIG A   1      -8.216   3.597 130.417  0.00  0.00    +0.162 A 
ATOM     19  C   LIG A   1      -6.942   3.644 129.847  0.00  0.00    +0.055 A 
ATOM     20  C   LIG A   1      -6.134   4.789 129.926  0.00  0.00    -0.015 A 
ATOM     21  C   LIG A   1      -6.597   5.874 130.683  0.00  0.00    +0.010 A 
ATOM     22  C   LIG A   1      -7.847   5.817 131.308  0.00  0.00    +0.050 A 
ATOM     23  C   LIG A   1      -8.659   4.683 131.184  0.00  0.00    +0.162 A 
BRANCH  18  24
ATOM     24  O   LIG A   1      -9.024   2.500 130.298  0.00  0.00    -0.491 OA
ATOM     25  C   LIG A   1      -8.694   1.364 131.083  0.00  0.00    +0.277 C 
ENDBRANCH  18  24
BRANCH  23  26
ATOM     26  O   LIG A   1      -9.861   4.778 131.839  0.00  0.00    -0.484 OA
BRANCH  26  27
ATOM     27  C   LIG A   1     -10.242   6.086 132.257  0.00  0.00    +0.257 C 
BRANCH  27  28
ATOM     28  C   LIG A   1     -11.539   6.405 131.603  0.00  0.00    +0.012 C 
ATOM     29  C   LIG A   1     -11.695   7.089 130.445  0.00  0.00    -0.076 C 
ATOM     30  C   LIG A   1     -10.559   7.626 129.611  0.00  0.00    +0.038 C 
ATOM     31  C   LIG A   1     -13.062   7.325 129.883  0.00  0.00    +0.038 C 
ENDBRANCH  27  28
ENDBRANCH  26  27
ENDBRANCH  23  26
ENDBRANCH   1  20
TORSDOF 6
ENDMDL
MODEL 8
REMARK VINA RESULT:      -7.4      4.014      6.348
REMARK  Name = NuBBE_1493
REMARK  9 active torsions:
REMARK  status: ('A' for Active; 'I' for Inactive)
REMARK    1  A    between atoms: O_1  and  C_2
REMARK    2  A    between atoms: O_1  and  C_3
REMARK    3  A    between atoms: C_5  and  C_15
REMARK    4  A    between atoms: C_8  and  O_9
REMARK    5  A    between atoms: O_9  and  C_10
REMARK    6  A    between atoms: C_10  and  C_11
REMARK    7  A    between atoms: C_12  and  C_13
REMARK    8  A    between atoms: C_12  and  C_14
REMARK    9  A    between atoms: C_23  and  C_27
REMARK                            x       y       z     vdW  Elec       q    Type
REMARK                         _______ _______ _______ _____ _____    ______ ____
ROOT
ATOM      1  C   LIG A   1      -5.431   2.227 128.308  0.00  0.00    +0.154 C 
ATOM      2  C   LIG A   1      -4.496   2.916 127.291  0.00  0.00    +0.056 C 
ATOM      3  C   LIG A   1      -4.977   2.414 125.951  0.00  0.00    +0.056 C 
ATOM      4  C   LIG A   1      -5.590   1.079 126.277  0.00  0.00    +0.167 C 
ATOM      5  O   LIG A   1      -6.168   1.217 127.577  0.00  0.00    -0.371 OA
ATOM      6  C   LIG A   1      -5.985   3.483 125.531  0.00  0.00    +0.154 C 
ATOM      7  O   LIG A   1      -5.538   4.714 126.129  0.00  0.00    -0.371 OA
ATOM      8  C   LIG A   1      -4.536   4.417 127.110  0.00  0.00    +0.167 C 
ENDROOT
BRANCH   6   9
ATOM      9  C   LIG A   1      -6.131   3.625 124.033  0.00  0.00    -0.015 A 
ATOM     10  C   LIG A   1      -5.253   4.439 123.300  0.00  0.00    +0.055 A 
ATOM     11  C   LIG A   1      -5.436   4.539 121.939  0.00  0.00    +0.167 A 
ATOM     12  C   LIG A   1      -6.442   3.865 121.289  0.00  0.00    +0.166 A 
ATOM     13  C   LIG A   1      -7.322   3.050 121.967  0.00  0.00    +0.050 A 
ATOM     14  C   LIG A   1      -7.163   2.931 123.351  0.00  0.00    +0.010 A 
ATOM     15  O   LIG A   1      -6.444   4.105 119.951  0.00  0.00    -0.453 OA
ATOM     16  C   LIG A   1      -5.324   5.009 119.837  0.00  0.00    +0.466 C 
ATOM     17  O   LIG A   1      -4.681   5.290 121.095  0.00  0.00    -0.453 OA
ENDBRANCH   6   9
BRANCH   1  20
ATOM     18  C   LIG A   1      -6.892   4.405 131.106  0.00  0.00    +0.162 A 
ATOM     19  C   LIG A   1      -5.995   3.692 130.309  0.00  0.00    +0.055 A 
ATOM     20  C   LIG A   1      -6.392   3.075 129.111  0.00  0.00    -0.015 A 
ATOM     21  C   LIG A   1      -7.708   3.273 128.671  0.00  0.00    +0.010 A 
ATOM     22  C   LIG A   1      -8.601   4.035 129.432  0.00  0.00    +0.050 A 
ATOM     23  C   LIG A   1      -8.200   4.607 130.645  0.00  0.00    +0.162 A 
BRANCH  18  24
ATOM     24  O   LIG A   1      -6.519   4.963 132.297  0.00  0.00    -0.491 OA
ATOM     25  C   LIG A   1      -5.772   6.170 132.242  0.00  0.00    +0.277 C 
ENDBRANCH  18  24
BRANCH  23  26
ATOM     26  O   LIG A   1      -9.186   5.314 131.287  0.00  0.00    -0.484 OA
BRANCH  26  27
ATOM     27  C   LIG A   1      -9.301   6.689 130.928  0.00  0.00    +0.257 C 
BRANCH  27  28
ATOM     28  C   LIG A   1     -10.747   6.983 130.740  0.00  0.00    +0.012 C 
ATOM     29  C   LIG A   1     -11.291   7.639 129.688  0.00  0.00    -0.076 C 
ATOM     30  C   LIG A   1     -10.509   8.165 128.512  0.00  0.00    +0.038 C 
ATOM     31  C   LIG A   1     -12.771   7.852 129.613  0.00  0.00    +0.038 C 
ENDBRANCH  27  28
ENDBRANCH  26  27
ENDBRANCH  23  26
ENDBRANCH   1  20
TORSDOF 6
ENDMDL
MODEL 9
REMARK VINA RESULT:      -7.3      3.484      6.171
REMARK  Name = NuBBE_1493
REMARK  9 active torsions:
REMARK  status: ('A' for Active; 'I' for Inactive)
REMARK    1  A    between atoms: O_1  and  C_2
REMARK    2  A    between atoms: O_1  and  C_3
REMARK    3  A    between atoms: C_5  and  C_15
REMARK    4  A    between atoms: C_8  and  O_9
REMARK    5  A    between atoms: O_9  and  C_10
REMARK    6  A    between atoms: C_10  and  C_11
REMARK    7  A    between atoms: C_12  and  C_13
REMARK    8  A    between atoms: C_12  and  C_14
REMARK    9  A    between atoms: C_23  and  C_27
REMARK                            x       y       z     vdW  Elec       q    Type
REMARK                         _______ _______ _______ _____ _____    ______ ____
ROOT
ATOM      1  C   LIG A   1      -6.041  -1.726 129.317  0.00  0.00    +0.154 C 
ATOM      2  C   LIG A   1      -6.416  -0.315 129.820  0.00  0.00    +0.056 C 
ATOM      3  C   LIG A   1      -5.102   0.426 129.844  0.00  0.00    +0.056 C 
ATOM      4  C   LIG A   1      -4.087  -0.666 130.041  0.00  0.00    +0.167 C 
ATOM      5  O   LIG A   1      -4.596  -1.807 129.345  0.00  0.00    -0.371 OA
ATOM      6  C   LIG A   1      -5.058   1.086 128.466  0.00  0.00    +0.154 C 
ATOM      7  O   LIG A   1      -6.428   1.322 128.091  0.00  0.00    -0.371 OA
ATOM      8  C   LIG A   1      -7.285   0.591 128.976  0.00  0.00    +0.167 C 
ENDROOT
BRANCH   6   9
ATOM      9  C   LIG A   1      -4.253   2.364 128.429  0.00  0.00    -0.015 A 
ATOM     10  C   LIG A   1      -4.136   3.172 129.571  0.00  0.00    +0.055 A 
ATOM     11  C   LIG A   1      -3.398   4.331 129.481  0.00  0.00    +0.167 A 
ATOM     12  C   LIG A   1      -2.775   4.706 128.315  0.00  0.00    +0.166 A 
ATOM     13  C   LIG A   1      -2.857   3.942 127.172  0.00  0.00    +0.050 A 
ATOM     14  C   LIG A   1      -3.603   2.760 127.233  0.00  0.00    +0.010 A 
ATOM     15  O   LIG A   1      -2.102   5.882 128.444  0.00  0.00    -0.453 OA
ATOM     16  C   LIG A   1      -2.377   6.199 129.825  0.00  0.00    +0.466 C 
ATOM     17  O   LIG A   1      -3.199   5.220 130.489  0.00  0.00    -0.453 OA
ENDBRANCH   6   9
BRANCH   1  20
ATOM     18  C   LIG A   1      -6.239  -2.407 125.548  0.00  0.00    +0.162 A 
ATOM     19  C   LIG A   1      -5.755  -2.071 126.814  0.00  0.00    +0.055 A 
ATOM     20  C   LIG A   1      -6.549  -2.183 127.967  0.00  0.00    -0.015 A 
ATOM     21  C   LIG A   1      -7.828  -2.740 127.838  0.00  0.00    +0.010 A 
ATOM     22  C   LIG A   1      -8.303  -3.135 126.582  0.00  0.00    +0.050 A 
ATOM     23  C   LIG A   1      -7.515  -2.977 125.437  0.00  0.00    +0.162 A 
BRANCH  18  24
ATOM     24  O   LIG A   1      -5.485  -2.251 124.418  0.00  0.00    -0.491 OA
ATOM     25  C   LIG A   1      -4.786  -3.393 123.943  0.00  0.00    +0.277 C 
ENDBRANCH  18  24
BRANCH  23  26
ATOM     26  O   LIG A   1      -8.118  -3.396 124.277  0.00  0.00    -0.484 OA
BRANCH  26  27
ATOM     27  C   LIG A   1      -9.281  -2.673 123.883  0.00  0.00    +0.257 C 
BRANCH  27  28
ATOM     28  C   LIG A   1      -8.829  -1.378 123.307  0.00  0.00    +0.012 C 
ATOM     29  C   LIG A   1      -8.868  -0.177 123.932  0.00  0.00    -0.076 C 
ATOM     30  C   LIG A   1      -9.365   0.037 125.339  0.00  0.00    +0.038 C 
ATOM     31  C   LIG A   1      -8.360   1.050 123.243  0.00  0.00    +0.038 C 
ENDBRANCH  27  28
ENDBRANCH  26  27
ENDBRANCH  23  26
ENDBRANCH   1  20
TORSDOF 6
ENDMDL
