MODEL 1
REMARK VINA RESULT:      -6.8      0.000      0.000
REMARK  Name = NuBBE_1735
REMARK  4 active torsions:
REMARK  status: ('A' for Active; 'I' for Inactive)
REMARK    1  A    between atoms: C_1  and  C_2
REMARK    2  A    between atoms: C_2  and  C_3
REMARK    3  A    between atoms: C_6  and  C_7
REMARK    4  A    between atoms: C_11  and  C_15
REMARK                            x       y       z     vdW  Elec       q    Type
REMARK                         _______ _______ _______ _____ _____    ______ ____
ROOT
ATOM      1  C   LIG A   1      -8.568   2.645 124.667  0.00  0.00    +0.015 C 
ATOM      2  C   LIG A   1      -9.071   1.193 124.545  0.00  0.00    -0.013 C 
ATOM      3  C   LIG A   1     -10.583   1.241 124.198  0.00  0.00    +0.015 C 
ATOM      4  C   LIG A   1      -8.285   0.551 123.322  0.00  0.00    +0.037 C 
ATOM      5  C   LIG A   1      -8.876  -0.784 122.956  0.00  0.00    -0.027 C 
ATOM      6  C   LIG A   1      -8.283  -1.955 123.210  0.00  0.00    -0.076 C 
ATOM      7  C   LIG A   1      -6.781  -2.163 123.215  0.00  0.00    +0.038 C 
ATOM      8  C   LIG A   1      -9.160  -3.014 123.874  0.00  0.00    +0.034 C 
ATOM      9  C   LIG A   1      -8.477  -3.514 125.156  0.00  0.00    +0.031 C 
ATOM     10  C   LIG A   1      -9.136  -3.420 126.506  0.00  0.00    -0.027 C 
ATOM     11  C   LIG A   1      -8.516  -2.725 127.492  0.00  0.00    -0.073 C 
ATOM     12  C   LIG A   1      -7.755  -1.399 127.386  0.00  0.00    +0.057 C 
ATOM     13  C   LIG A   1      -8.021  -0.509 126.208  0.00  0.00    -0.026 C 
ATOM     14  C   LIG A   1      -8.936   0.455 125.917  0.00  0.00    -0.024 C 
ATOM     15  C   LIG A   1      -8.118  -3.566 128.693  0.00  0.00    +0.039 C 
ENDROOT
TORSDOF 0
ENDMDL
MODEL 2
REMARK VINA RESULT:      -6.6      1.937      4.415
REMARK  Name = NuBBE_1735
REMARK  4 active torsions:
REMARK  status: ('A' for Active; 'I' for Inactive)
REMARK    1  A    between atoms: C_1  and  C_2
REMARK    2  A    between atoms: C_2  and  C_3
REMARK    3  A    between atoms: C_6  and  C_7
REMARK    4  A    between atoms: C_11  and  C_15
REMARK                            x       y       z     vdW  Elec       q    Type
REMARK                         _______ _______ _______ _____ _____    ______ ____
ROOT
ATOM      1  C   LIG A   1      -4.639  -3.881 123.607  0.00  0.00    +0.015 C 
ATOM      2  C   LIG A   1      -5.767  -2.853 123.823  0.00  0.00    -0.013 C 
ATOM      3  C   LIG A   1      -6.071  -2.184 122.456  0.00  0.00    +0.015 C 
ATOM      4  C   LIG A   1      -7.042  -3.682 124.283  0.00  0.00    +0.037 C 
ATOM      5  C   LIG A   1      -8.269  -2.809 124.283  0.00  0.00    -0.027 C 
ATOM      6  C   LIG A   1      -8.867  -2.367 125.394  0.00  0.00    -0.076 C 
ATOM      7  C   LIG A   1      -8.920  -3.141 126.696  0.00  0.00    +0.038 C 
ATOM      8  C   LIG A   1      -9.181  -0.873 125.430  0.00  0.00    +0.034 C 
ATOM      9  C   LIG A   1      -8.572  -0.252 126.696  0.00  0.00    +0.031 C 
ATOM     10  C   LIG A   1      -7.579   0.878 126.639  0.00  0.00    -0.027 C 
ATOM     11  C   LIG A   1      -6.354   0.703 127.193  0.00  0.00    -0.073 C 
ATOM     12  C   LIG A   1      -5.461  -0.542 127.154  0.00  0.00    +0.057 C 
ATOM     13  C   LIG A   1      -5.701  -1.564 126.082  0.00  0.00    -0.026 C 
ATOM     14  C   LIG A   1      -5.292  -1.723 124.794  0.00  0.00    -0.024 C 
ATOM     15  C   LIG A   1      -6.057   1.634 128.357  0.00  0.00    +0.039 C 
ENDROOT
TORSDOF 0
ENDMDL
MODEL 3
REMARK VINA RESULT:      -6.6      1.514      3.622
REMARK  Name = NuBBE_1735
REMARK  4 active torsions:
REMARK  status: ('A' for Active; 'I' for Inactive)
REMARK    1  A    between atoms: C_1  and  C_2
REMARK    2  A    between atoms: C_2  and  C_3
REMARK    3  A    between atoms: C_6  and  C_7
REMARK    4  A    between atoms: C_11  and  C_15
REMARK                            x       y       z     vdW  Elec       q    Type
REMARK                         _______ _______ _______ _____ _____    ______ ____
ROOT
ATOM      1  C   LIG A   1      -9.012   2.141 122.804  0.00  0.00    +0.015 C 
ATOM      2  C   LIG A   1      -8.296   1.383 123.940  0.00  0.00    -0.013 C 
ATOM      3  C   LIG A   1      -7.597   2.432 124.846  0.00  0.00    +0.015 C 
ATOM      4  C   LIG A   1      -9.436   0.660 124.780  0.00  0.00    +0.037 C 
ATOM      5  C   LIG A   1      -8.874   0.096 126.057  0.00  0.00    -0.027 C 
ATOM      6  C   LIG A   1      -8.682  -1.210 126.273  0.00  0.00    -0.076 C 
ATOM      7  C   LIG A   1      -9.561  -2.304 125.697  0.00  0.00    +0.038 C 
ATOM      8  C   LIG A   1      -7.311  -1.600 126.820  0.00  0.00    +0.034 C 
ATOM      9  C   LIG A   1      -6.681  -2.666 125.911  0.00  0.00    +0.031 C 
ATOM     10  C   LIG A   1      -5.351  -2.461 125.235  0.00  0.00    -0.027 C 
ATOM     11  C   LIG A   1      -5.286  -2.526 123.883  0.00  0.00    -0.073 C 
ATOM     12  C   LIG A   1      -6.283  -1.977 122.855  0.00  0.00    +0.057 C 
ATOM     13  C   LIG A   1      -7.233  -0.898 123.282  0.00  0.00    -0.026 C 
ATOM     14  C   LIG A   1      -7.177   0.460 123.356  0.00  0.00    -0.024 C 
ATOM     15  C   LIG A   1      -4.418  -3.656 123.352  0.00  0.00    +0.039 C 
ENDROOT
TORSDOF 0
ENDMDL
MODEL 4
REMARK VINA RESULT:      -6.4      0.964      4.599
REMARK  Name = NuBBE_1735
REMARK  4 active torsions:
REMARK  status: ('A' for Active; 'I' for Inactive)
REMARK    1  A    between atoms: C_1  and  C_2
REMARK    2  A    between atoms: C_2  and  C_3
REMARK    3  A    between atoms: C_6  and  C_7
REMARK    4  A    between atoms: C_11  and  C_15
REMARK                            x       y       z     vdW  Elec       q    Type
REMARK                         _______ _______ _______ _____ _____    ______ ____
ROOT
ATOM      1  C   LIG A   1      -8.272  -2.661 128.778  0.00  0.00    +0.015 C 
ATOM      2  C   LIG A   1      -7.664  -2.378 127.391  0.00  0.00    -0.013 C 
ATOM      3  C   LIG A   1      -6.123  -2.522 127.507  0.00  0.00    +0.015 C 
ATOM      4  C   LIG A   1      -8.212  -3.515 126.425  0.00  0.00    +0.037 C 
ATOM      5  C   LIG A   1      -7.488  -3.482 125.105  0.00  0.00    -0.027 C 
ATOM      6  C   LIG A   1      -8.037  -3.047 123.966  0.00  0.00    -0.076 C 
ATOM      7  C   LIG A   1      -9.505  -3.196 123.619  0.00  0.00    +0.038 C 
ATOM      8  C   LIG A   1      -7.205  -2.047 123.167  0.00  0.00    +0.034 C 
ATOM      9  C   LIG A   1      -8.041  -0.788 122.894  0.00  0.00    +0.031 C 
ATOM     10  C   LIG A   1      -7.602   0.580 123.344  0.00  0.00    -0.027 C 
ATOM     11  C   LIG A   1      -8.409   1.288 124.173  0.00  0.00    -0.073 C 
ATOM     12  C   LIG A   1      -9.228   0.780 125.365  0.00  0.00    +0.057 C 
ATOM     13  C   LIG A   1      -8.844  -0.524 125.998  0.00  0.00    -0.026 C 
ATOM     14  C   LIG A   1      -7.959  -0.904 126.959  0.00  0.00    -0.024 C 
ATOM     15  C   LIG A   1      -8.930   2.586 123.580  0.00  0.00    +0.039 C 
ENDROOT
TORSDOF 0
ENDMDL
MODEL 5
REMARK VINA RESULT:      -6.4      1.441      2.075
REMARK  Name = NuBBE_1735
REMARK  4 active torsions:
REMARK  status: ('A' for Active; 'I' for Inactive)
REMARK    1  A    between atoms: C_1  and  C_2
REMARK    2  A    between atoms: C_2  and  C_3
REMARK    3  A    between atoms: C_6  and  C_7
REMARK    4  A    between atoms: C_11  and  C_15
REMARK                            x       y       z     vdW  Elec       q    Type
REMARK                         _______ _______ _______ _____ _____    ______ ____
ROOT
ATOM      1  C   LIG A   1      -6.488   1.492 124.986  0.00  0.00    +0.015 C 
ATOM      2  C   LIG A   1      -7.521   0.472 125.504  0.00  0.00    -0.013 C 
ATOM      3  C   LIG A   1      -8.843   1.235 125.787  0.00  0.00    +0.015 C 
ATOM      4  C   LIG A   1      -7.767  -0.555 124.317  0.00  0.00    +0.037 C 
ATOM      5  C   LIG A   1      -8.941  -1.447 124.623  0.00  0.00    -0.027 C 
ATOM      6  C   LIG A   1      -8.828  -2.738 124.953  0.00  0.00    -0.076 C 
ATOM      7  C   LIG A   1      -7.746  -3.658 124.423  0.00  0.00    +0.038 C 
ATOM      8  C   LIG A   1      -9.609  -3.179 126.189  0.00  0.00    +0.034 C 
ATOM      9  C   LIG A   1      -8.656  -3.863 127.180  0.00  0.00    +0.031 C 
ATOM     10  C   LIG A   1      -8.470  -3.364 128.588  0.00  0.00    -0.027 C 
ATOM     11  C   LIG A   1      -7.229  -3.001 128.997  0.00  0.00    -0.073 C 
ATOM     12  C   LIG A   1      -6.157  -2.232 128.215  0.00  0.00    +0.057 C 
ATOM     13  C   LIG A   1      -6.581  -1.410 127.034  0.00  0.00    -0.026 C 
ATOM     14  C   LIG A   1      -7.044  -0.142 126.861  0.00  0.00    -0.024 C 
ATOM     15  C   LIG A   1      -6.672  -3.845 130.131  0.00  0.00    +0.039 C 
ENDROOT
TORSDOF 0
ENDMDL
MODEL 6
REMARK VINA RESULT:      -6.3      1.490      3.856
REMARK  Name = NuBBE_1735
REMARK  4 active torsions:
REMARK  status: ('A' for Active; 'I' for Inactive)
REMARK    1  A    between atoms: C_1  and  C_2
REMARK    2  A    between atoms: C_2  and  C_3
REMARK    3  A    between atoms: C_6  and  C_7
REMARK    4  A    between atoms: C_11  and  C_15
REMARK                            x       y       z     vdW  Elec       q    Type
REMARK                         _______ _______ _______ _____ _____    ______ ____
ROOT
ATOM      1  C   LIG A   1      -9.559  -3.277 123.350  0.00  0.00    +0.015 C 
ATOM      2  C   LIG A   1      -8.444  -2.604 124.175  0.00  0.00    -0.013 C 
ATOM      3  C   LIG A   1      -7.108  -2.781 123.405  0.00  0.00    +0.015 C 
ATOM      4  C   LIG A   1      -8.803  -1.056 124.228  0.00  0.00    +0.037 C 
ATOM      5  C   LIG A   1      -7.654  -0.266 124.796  0.00  0.00    -0.027 C 
ATOM      6  C   LIG A   1      -7.657   0.278 126.018  0.00  0.00    -0.076 C 
ATOM      7  C   LIG A   1      -8.897   0.812 126.707  0.00  0.00    +0.038 C 
ATOM      8  C   LIG A   1      -6.419   0.004 126.870  0.00  0.00    +0.034 C 
ATOM      9  C   LIG A   1      -6.848  -0.600 128.216  0.00  0.00    +0.031 C 
ATOM     10  C   LIG A   1      -6.357  -1.943 128.685  0.00  0.00    -0.027 C 
ATOM     11  C   LIG A   1      -7.264  -2.914 128.956  0.00  0.00    -0.073 C 
ATOM     12  C   LIG A   1      -8.542  -3.264 128.184  0.00  0.00    +0.057 C 
ATOM     13  C   LIG A   1      -8.665  -2.817 126.758  0.00  0.00    -0.026 C 
ATOM     14  C   LIG A   1      -8.280  -3.322 125.554  0.00  0.00    -0.024 C 
ATOM     15  C   LIG A   1      -7.280  -3.366 130.407  0.00  0.00    +0.039 C 
ENDROOT
TORSDOF 0
ENDMDL
MODEL 7
REMARK VINA RESULT:      -6.1      2.057      4.758
REMARK  Name = NuBBE_1735
REMARK  4 active torsions:
REMARK  status: ('A' for Active; 'I' for Inactive)
REMARK    1  A    between atoms: C_1  and  C_2
REMARK    2  A    between atoms: C_2  and  C_3
REMARK    3  A    between atoms: C_6  and  C_7
REMARK    4  A    between atoms: C_11  and  C_15
REMARK                            x       y       z     vdW  Elec       q    Type
REMARK                         _______ _______ _______ _____ _____    ______ ____
ROOT
ATOM      1  C   LIG A   1      -9.798  -3.307 123.218  0.00  0.00    +0.015 C 
ATOM      2  C   LIG A   1      -8.901  -2.681 124.304  0.00  0.00    -0.013 C 
ATOM      3  C   LIG A   1      -9.608  -2.871 125.673  0.00  0.00    +0.015 C 
ATOM      4  C   LIG A   1      -7.551  -3.520 124.304  0.00  0.00    +0.037 C 
ATOM      5  C   LIG A   1      -6.702  -3.156 125.493  0.00  0.00    -0.027 C 
ATOM      6  C   LIG A   1      -5.580  -2.432 125.411  0.00  0.00    -0.076 C 
ATOM      7  C   LIG A   1      -4.631  -2.466 124.229  0.00  0.00    +0.038 C 
ATOM      8  C   LIG A   1      -5.467  -1.270 126.395  0.00  0.00    +0.034 C 
ATOM      9  C   LIG A   1      -5.185   0.028 125.623  0.00  0.00    +0.031 C 
ATOM     10  C   LIG A   1      -6.092   1.226 125.709  0.00  0.00    -0.027 C 
ATOM     11  C   LIG A   1      -6.657   1.705 124.573  0.00  0.00    -0.073 C 
ATOM     12  C   LIG A   1      -7.239   0.915 123.395  0.00  0.00    +0.057 C 
ATOM     13  C   LIG A   1      -7.638  -0.514 123.615  0.00  0.00    -0.026 C 
ATOM     14  C   LIG A   1      -8.757  -1.142 124.069  0.00  0.00    -0.024 C 
ATOM     15  C   LIG A   1      -6.234   3.120 124.213  0.00  0.00    +0.039 C 
ENDROOT
TORSDOF 0
ENDMDL
MODEL 8
REMARK VINA RESULT:      -6.1      1.522      5.265
REMARK  Name = NuBBE_1735
REMARK  4 active torsions:
REMARK  status: ('A' for Active; 'I' for Inactive)
REMARK    1  A    between atoms: C_1  and  C_2
REMARK    2  A    between atoms: C_2  and  C_3
REMARK    3  A    between atoms: C_6  and  C_7
REMARK    4  A    between atoms: C_11  and  C_15
REMARK                            x       y       z     vdW  Elec       q    Type
REMARK                         _______ _______ _______ _____ _____    ______ ____
ROOT
ATOM      1  C   LIG A   1      -5.341  -3.247 124.089  0.00  0.00    +0.015 C 
ATOM      2  C   LIG A   1      -6.666  -2.527 124.411  0.00  0.00    -0.013 C 
ATOM      3  C   LIG A   1      -7.821  -3.546 124.217  0.00  0.00    +0.015 C 
ATOM      4  C   LIG A   1      -6.591  -2.125 125.947  0.00  0.00    +0.037 C 
ATOM      5  C   LIG A   1      -7.931  -1.639 126.432  0.00  0.00    -0.027 C 
ATOM      6  C   LIG A   1      -8.205  -0.358 126.701  0.00  0.00    -0.076 C 
ATOM      7  C   LIG A   1      -7.193   0.631 127.245  0.00  0.00    +0.038 C 
ATOM      8  C   LIG A   1      -9.490   0.190 126.084  0.00  0.00    +0.034 C 
ATOM      9  C   LIG A   1      -9.170   1.457 125.276  0.00  0.00    +0.031 C 
ATOM     10  C   LIG A   1      -9.486   1.573 123.808  0.00  0.00    -0.027 C 
ATOM     11  C   LIG A   1      -8.477   1.819 122.937  0.00  0.00    -0.073 C 
ATOM     12  C   LIG A   1      -7.057   1.241 122.939  0.00  0.00    +0.057 C 
ATOM     13  C   LIG A   1      -6.801  -0.032 123.690  0.00  0.00    -0.026 C 
ATOM     14  C   LIG A   1      -6.908  -1.358 123.403  0.00  0.00    -0.024 C 
ATOM     15  C   LIG A   1      -8.600   3.140 122.196  0.00  0.00    +0.039 C 
ENDROOT
TORSDOF 0
ENDMDL
MODEL 9
REMARK VINA RESULT:      -6.0      2.019      3.550
REMARK  Name = NuBBE_1735
REMARK  4 active torsions:
REMARK  status: ('A' for Active; 'I' for Inactive)
REMARK    1  A    between atoms: C_1  and  C_2
REMARK    2  A    between atoms: C_2  and  C_3
REMARK    3  A    between atoms: C_6  and  C_7
REMARK    4  A    between atoms: C_11  and  C_15
REMARK                            x       y       z     vdW  Elec       q    Type
REMARK                         _______ _______ _______ _____ _____    ______ ____
ROOT
ATOM      1  C   LIG A   1      -5.856   1.821 126.196  0.00  0.00    +0.015 C 
ATOM      2  C   LIG A   1      -6.551   0.445 126.217  0.00  0.00    -0.013 C 
ATOM      3  C   LIG A   1      -6.918   0.119 127.689  0.00  0.00    +0.015 C 
ATOM      4  C   LIG A   1      -7.892   0.612 125.380  0.00  0.00    +0.037 C 
ATOM      5  C   LIG A   1      -8.771  -0.599 125.543  0.00  0.00    -0.027 C 
ATOM      6  C   LIG A   1      -8.963  -1.513 124.585  0.00  0.00    -0.076 C 
ATOM      7  C   LIG A   1      -8.975  -1.199 123.102  0.00  0.00    +0.038 C 
ATOM      8  C   LIG A   1      -8.798  -2.969 125.013  0.00  0.00    +0.034 C 
ATOM      9  C   LIG A   1      -7.782  -3.661 124.093  0.00  0.00    +0.031 C 
ATOM     10  C   LIG A   1      -6.529  -4.308 124.624  0.00  0.00    -0.027 C 
ATOM     11  C   LIG A   1      -5.326  -3.875 124.172  0.00  0.00    -0.073 C 
ATOM     12  C   LIG A   1      -4.878  -2.436 123.889  0.00  0.00    +0.057 C 
ATOM     13  C   LIG A   1      -5.632  -1.310 124.531  0.00  0.00    -0.026 C 
ATOM     14  C   LIG A   1      -5.567  -0.667 125.729  0.00  0.00    -0.024 C 
ATOM     15  C   LIG A   1      -4.527  -4.926 123.419  0.00  0.00    +0.039 C 
ENDROOT
TORSDOF 0
ENDMDL
