MODEL 1
REMARK VINA RESULT:      -7.1      0.000      0.000
REMARK  Name = NuBBE_1716
REMARK  4 active torsions:
REMARK  status: ('A' for Active; 'I' for Inactive)
REMARK    1  A    between atoms: C_4  and  O_5
REMARK    2  A    between atoms: O_5  and  C_6
REMARK    3  A    between atoms: C_7  and  O_8
REMARK    4  A    between atoms: C_17  and  O_18
REMARK                            x       y       z     vdW  Elec       q    Type
REMARK                         _______ _______ _______ _____ _____    ______ ____
ROOT
ATOM      1  O   LIG A   1     -11.208   6.033 132.580  0.00  0.00    -0.286 OA
ATOM      2  C   LIG A   1     -10.450   6.464 131.721  0.00  0.00    +0.207 A 
ATOM      3  C   LIG A   1      -8.982   6.341 131.875  0.00  0.00    +0.110 A 
ATOM      4  C   LIG A   1      -8.372   5.647 132.930  0.00  0.00    +0.176 A 
ATOM      5  C   LIG A   1      -6.977   5.527 132.967  0.00  0.00    +0.159 A 
ATOM      6  C   LIG A   1      -6.175   6.136 132.014  0.00  0.00    +0.053 A 
ATOM      7  C   LIG A   1      -6.778   6.852 130.983  0.00  0.00    +0.051 A 
ATOM      8  C   LIG A   1      -8.174   6.944 130.907  0.00  0.00    +0.143 A 
ATOM      9  O   LIG A   1      -8.653   7.652 129.835  0.00  0.00    -0.454 OA
ATOM     10  C   LIG A   1     -10.008   7.703 129.639  0.00  0.00    +0.143 A 
ATOM     11  C   LIG A   1     -10.415   8.373 128.480  0.00  0.00    +0.047 A 
ATOM     12  C   LIG A   1     -11.769   8.487 128.175  0.00  0.00    +0.007 A 
ATOM     13  C   LIG A   1     -12.720   7.931 129.027  0.00  0.00    +0.046 A 
ATOM     14  C   LIG A   1     -12.313   7.264 130.188  0.00  0.00    +0.131 A 
ATOM     15  C   LIG A   1     -10.951   7.147 130.504  0.00  0.00    +0.106 A 
ENDROOT
BRANCH   4  16
ATOM     16  O   LIG A   1      -9.066   4.988 133.913  0.00  0.00    -0.491 OA
ATOM     17  C   LIG A   1      -9.167   3.594 133.605  0.00  0.00    +0.277 C 
ENDBRANCH   4  16
BRANCH   5  18
ATOM     18  O   LIG A   1      -6.370   4.790 133.945  0.00  0.00    -0.503 OA
ATOM     19  H   LIG A   1      -6.141   5.427 134.651  0.00  0.00    +0.292 HD
ENDBRANCH   5  18
BRANCH  14  20
ATOM     20  O   LIG A   1     -13.274   6.726 130.997  0.00  0.00    -0.506 OA
ATOM     21  H   LIG A   1     -13.530   7.356 131.688  0.00  0.00    +0.292 HD
ENDBRANCH  14  20
TORSDOF 3
ENDMDL
MODEL 2
REMARK VINA RESULT:      -6.9      8.738     10.164
REMARK  Name = NuBBE_1716
REMARK  4 active torsions:
REMARK  status: ('A' for Active; 'I' for Inactive)
REMARK    1  A    between atoms: C_4  and  O_5
REMARK    2  A    between atoms: O_5  and  C_6
REMARK    3  A    between atoms: C_7  and  O_8
REMARK    4  A    between atoms: C_17  and  O_18
REMARK                            x       y       z     vdW  Elec       q    Type
REMARK                         _______ _______ _______ _____ _____    ______ ____
ROOT
ATOM      1  O   LIG A   1      -5.188   4.030 123.581  0.00  0.00    -0.286 OA
ATOM      2  C   LIG A   1      -6.175   3.808 122.893  0.00  0.00    +0.207 A 
ATOM      3  C   LIG A   1      -7.338   3.080 123.449  0.00  0.00    +0.110 A 
ATOM      4  C   LIG A   1      -7.440   2.699 124.795  0.00  0.00    +0.176 A 
ATOM      5  C   LIG A   1      -8.603   2.067 125.252  0.00  0.00    +0.159 A 
ATOM      6  C   LIG A   1      -9.638   1.749 124.387  0.00  0.00    +0.053 A 
ATOM      7  C   LIG A   1      -9.526   2.098 123.043  0.00  0.00    +0.051 A 
ATOM      8  C   LIG A   1      -8.388   2.771 122.580  0.00  0.00    +0.143 A 
ATOM      9  O   LIG A   1      -8.402   3.086 121.245  0.00  0.00    -0.454 OA
ATOM     10  C   LIG A   1      -7.369   3.830 120.738  0.00  0.00    +0.143 A 
ATOM     11  C   LIG A   1      -7.494   4.181 119.390  0.00  0.00    +0.047 A 
ATOM     12  C   LIG A   1      -6.506   4.937 118.767  0.00  0.00    +0.007 A 
ATOM     13  C   LIG A   1      -5.388   5.346 119.490  0.00  0.00    +0.046 A 
ATOM     14  C   LIG A   1      -5.260   4.992 120.838  0.00  0.00    +0.131 A 
ATOM     15  C   LIG A   1      -6.251   4.227 121.473  0.00  0.00    +0.106 A 
ENDROOT
BRANCH   4  16
ATOM     16  O   LIG A   1      -6.488   2.982 125.741  0.00  0.00    -0.491 OA
ATOM     17  C   LIG A   1      -5.642   1.847 125.956  0.00  0.00    +0.277 C 
ENDBRANCH   4  16
BRANCH   5  18
ATOM     18  O   LIG A   1      -8.750   1.758 126.575  0.00  0.00    -0.503 OA
ATOM     19  H   LIG A   1      -7.940   1.269 126.822  0.00  0.00    +0.292 HD
ENDBRANCH   5  18
BRANCH  14  20
ATOM     20  O   LIG A   1      -4.153   5.415 121.516  0.00  0.00    -0.506 OA
ATOM     21  H   LIG A   1      -3.541   5.874 120.920  0.00  0.00    +0.292 HD
ENDBRANCH  14  20
TORSDOF 3
ENDMDL
MODEL 3
REMARK VINA RESULT:      -6.8      1.899      5.995
REMARK  Name = NuBBE_1716
REMARK  4 active torsions:
REMARK  status: ('A' for Active; 'I' for Inactive)
REMARK    1  A    between atoms: C_4  and  O_5
REMARK    2  A    between atoms: O_5  and  C_6
REMARK    3  A    between atoms: C_7  and  O_8
REMARK    4  A    between atoms: C_17  and  O_18
REMARK                            x       y       z     vdW  Elec       q    Type
REMARK                         _______ _______ _______ _____ _____    ______ ____
ROOT
ATOM      1  O   LIG A   1      -9.021   5.735 128.473  0.00  0.00    -0.286 OA
ATOM      2  C   LIG A   1      -9.450   5.902 129.607  0.00  0.00    +0.207 A 
ATOM      3  C   LIG A   1     -10.795   6.478 129.831  0.00  0.00    +0.110 A 
ATOM      4  C   LIG A   1     -11.695   6.766 128.794  0.00  0.00    +0.176 A 
ATOM      5  C   LIG A   1     -12.972   7.254 129.098  0.00  0.00    +0.159 A 
ATOM      6  C   LIG A   1     -13.349   7.521 130.405  0.00  0.00    +0.053 A 
ATOM      7  C   LIG A   1     -12.446   7.266 131.434  0.00  0.00    +0.051 A 
ATOM      8  C   LIG A   1     -11.181   6.735 131.150  0.00  0.00    +0.143 A 
ATOM      9  O   LIG A   1     -10.389   6.501 132.244  0.00  0.00    -0.454 OA
ATOM     10  C   LIG A   1      -9.175   5.893 132.055  0.00  0.00    +0.143 A 
ATOM     11  C   LIG A   1      -8.462   5.614 133.225  0.00  0.00    +0.047 A 
ATOM     12  C   LIG A   1      -7.217   4.995 133.157  0.00  0.00    +0.007 A 
ATOM     13  C   LIG A   1      -6.680   4.654 131.917  0.00  0.00    +0.046 A 
ATOM     14  C   LIG A   1      -7.392   4.938 130.746  0.00  0.00    +0.131 A 
ATOM     15  C   LIG A   1      -8.647   5.563 130.807  0.00  0.00    +0.106 A 
ENDROOT
BRANCH   4  16
ATOM     16  O   LIG A   1     -11.436   6.521 127.470  0.00  0.00    -0.491 OA
ATOM     17  C   LIG A   1     -11.014   7.720 126.812  0.00  0.00    +0.277 C 
ENDBRANCH   4  16
BRANCH   5  18
ATOM     18  O   LIG A   1     -13.887   7.467 128.106  0.00  0.00    -0.503 OA
ATOM     19  H   LIG A   1     -14.285   6.593 127.924  0.00  0.00    +0.292 HD
ENDBRANCH   5  18
BRANCH  14  20
ATOM     20  O   LIG A   1      -6.837   4.584 129.550  0.00  0.00    -0.506 OA
ATOM     21  H   LIG A   1      -6.985   5.275 128.886  0.00  0.00    +0.292 HD
ENDBRANCH  14  20
TORSDOF 3
ENDMDL
MODEL 4
REMARK VINA RESULT:      -6.7      2.010      3.133
REMARK  Name = NuBBE_1716
REMARK  4 active torsions:
REMARK  status: ('A' for Active; 'I' for Inactive)
REMARK    1  A    between atoms: C_4  and  O_5
REMARK    2  A    between atoms: O_5  and  C_6
REMARK    3  A    between atoms: C_7  and  O_8
REMARK    4  A    between atoms: C_17  and  O_18
REMARK                            x       y       z     vdW  Elec       q    Type
REMARK                         _______ _______ _______ _____ _____    ______ ____
ROOT
ATOM      1  O   LIG A   1      -9.034   5.719 127.882  0.00  0.00    -0.286 OA
ATOM      2  C   LIG A   1      -9.702   6.083 128.840  0.00  0.00    +0.207 A 
ATOM      3  C   LIG A   1      -9.185   5.947 130.221  0.00  0.00    +0.110 A 
ATOM      4  C   LIG A   1      -7.887   5.507 130.520  0.00  0.00    +0.176 A 
ATOM      5  C   LIG A   1      -7.458   5.466 131.852  0.00  0.00    +0.159 A 
ATOM      6  C   LIG A   1      -8.311   5.791 132.895  0.00  0.00    +0.053 A 
ATOM      7  C   LIG A   1      -9.610   6.198 132.602  0.00  0.00    +0.051 A 
ATOM      8  C   LIG A   1     -10.041   6.287 131.272  0.00  0.00    +0.143 A 
ATOM      9  O   LIG A   1     -11.330   6.724 131.106  0.00  0.00    -0.454 OA
ATOM     10  C   LIG A   1     -11.791   6.930 129.832  0.00  0.00    +0.143 A 
ATOM     11  C   LIG A   1     -13.086   7.454 129.747  0.00  0.00    +0.047 A 
ATOM     12  C   LIG A   1     -13.660   7.707 128.504  0.00  0.00    +0.007 A 
ATOM     13  C   LIG A   1     -12.940   7.438 127.342  0.00  0.00    +0.046 A 
ATOM     14  C   LIG A   1     -11.647   6.910 127.427  0.00  0.00    +0.131 A 
ATOM     15  C   LIG A   1     -11.062   6.650 128.676  0.00  0.00    +0.106 A 
ENDROOT
BRANCH   4  16
ATOM     16  O   LIG A   1      -6.954   5.183 129.568  0.00  0.00    -0.491 OA
ATOM     17  C   LIG A   1      -6.881   3.762 129.403  0.00  0.00    +0.277 C 
ENDBRANCH   4  16
BRANCH   5  18
ATOM     18  O   LIG A   1      -6.173   5.113 132.156  0.00  0.00    -0.503 OA
ATOM     19  H   LIG A   1      -6.213   4.170 132.412  0.00  0.00    +0.292 HD
ENDBRANCH   5  18
BRANCH  14  20
ATOM     20  O   LIG A   1     -10.970   6.664 126.266  0.00  0.00    -0.506 OA
ATOM     21  H   LIG A   1     -10.024   6.545 126.441  0.00  0.00    +0.292 HD
ENDBRANCH  14  20
TORSDOF 3
ENDMDL
MODEL 5
REMARK VINA RESULT:      -6.6      8.196      9.627
REMARK  Name = NuBBE_1716
REMARK  4 active torsions:
REMARK  status: ('A' for Active; 'I' for Inactive)
REMARK    1  A    between atoms: C_4  and  O_5
REMARK    2  A    between atoms: O_5  and  C_6
REMARK    3  A    between atoms: C_7  and  O_8
REMARK    4  A    between atoms: C_17  and  O_18
REMARK                            x       y       z     vdW  Elec       q    Type
REMARK                         _______ _______ _______ _____ _____    ______ ____
ROOT
ATOM      1  O   LIG A   1      -9.521  -0.363 124.343  0.00  0.00    -0.286 OA
ATOM      2  C   LIG A   1      -8.929  -0.216 125.403  0.00  0.00    +0.207 A 
ATOM      3  C   LIG A   1      -8.394   1.108 125.796  0.00  0.00    +0.110 A 
ATOM      4  C   LIG A   1      -8.613   2.280 125.057  0.00  0.00    +0.176 A 
ATOM      5  C   LIG A   1      -8.122   3.503 125.532  0.00  0.00    +0.159 A 
ATOM      6  C   LIG A   1      -7.365   3.574 126.691  0.00  0.00    +0.053 A 
ATOM      7  C   LIG A   1      -7.119   2.407 127.410  0.00  0.00    +0.051 A 
ATOM      8  C   LIG A   1      -7.642   1.182 126.971  0.00  0.00    +0.143 A 
ATOM      9  O   LIG A   1      -7.356   0.108 127.774  0.00  0.00    -0.454 OA
ATOM     10  C   LIG A   1      -7.914  -1.105 127.464  0.00  0.00    +0.143 A 
ATOM     11  C   LIG A   1      -7.644  -2.133 128.374  0.00  0.00    +0.047 A 
ATOM     12  C   LIG A   1      -8.159  -3.409 128.164  0.00  0.00    +0.007 A 
ATOM     13  C   LIG A   1      -8.946  -3.662 127.043  0.00  0.00    +0.046 A 
ATOM     14  C   LIG A   1      -9.213  -2.635 126.130  0.00  0.00    +0.131 A 
ATOM     15  C   LIG A   1      -8.695  -1.346 126.334  0.00  0.00    +0.106 A 
ENDROOT
BRANCH   4  16
ATOM     16  O   LIG A   1      -9.365   2.329 123.911  0.00  0.00    -0.491 OA
ATOM     17  C   LIG A   1      -8.519   2.425 122.760  0.00  0.00    +0.277 C 
ENDBRANCH   4  16
BRANCH   5  18
ATOM     18  O   LIG A   1      -8.392   4.664 124.864  0.00  0.00    -0.503 OA
ATOM     19  H   LIG A   1      -7.686   5.288 125.127  0.00  0.00    +0.292 HD
ENDBRANCH   5  18
BRANCH  14  20
ATOM     20  O   LIG A   1      -9.993  -2.919 125.046  0.00  0.00    -0.506 OA
ATOM     21  H   LIG A   1     -10.733  -3.493 125.298  0.00  0.00    +0.292 HD
ENDBRANCH  14  20
TORSDOF 3
ENDMDL
MODEL 6
REMARK VINA RESULT:      -6.5      8.488     10.129
REMARK  Name = NuBBE_1716
REMARK  4 active torsions:
REMARK  status: ('A' for Active; 'I' for Inactive)
REMARK    1  A    between atoms: C_4  and  O_5
REMARK    2  A    between atoms: O_5  and  C_6
REMARK    3  A    between atoms: C_7  and  O_8
REMARK    4  A    between atoms: C_17  and  O_18
REMARK                            x       y       z     vdW  Elec       q    Type
REMARK                         _______ _______ _______ _____ _____    ______ ____
ROOT
ATOM      1  O   LIG A   1      -7.311   1.092 127.256  0.00  0.00    -0.286 OA
ATOM      2  C   LIG A   1      -7.921   0.375 126.474  0.00  0.00    +0.207 A 
ATOM      3  C   LIG A   1      -8.410   0.907 125.181  0.00  0.00    +0.110 A 
ATOM      4  C   LIG A   1      -8.125   2.201 124.721  0.00  0.00    +0.176 A 
ATOM      5  C   LIG A   1      -8.577   2.604 123.458  0.00  0.00    +0.159 A 
ATOM      6  C   LIG A   1      -9.358   1.771 122.672  0.00  0.00    +0.053 A 
ATOM      7  C   LIG A   1      -9.668   0.496 123.141  0.00  0.00    +0.051 A 
ATOM      8  C   LIG A   1      -9.186   0.062 124.383  0.00  0.00    +0.143 A 
ATOM      9  O   LIG A   1      -9.535  -1.218 124.726  0.00  0.00    -0.454 OA
ATOM     10  C   LIG A   1      -9.021  -1.748 125.881  0.00  0.00    +0.143 A 
ATOM     11  C   LIG A   1      -9.354  -3.085 126.121  0.00  0.00    +0.047 A 
ATOM     12  C   LIG A   1      -8.888  -3.731 127.263  0.00  0.00    +0.007 A 
ATOM     13  C   LIG A   1      -8.085  -3.040 128.169  0.00  0.00    +0.046 A 
ATOM     14  C   LIG A   1      -7.755  -1.702 127.931  0.00  0.00    +0.131 A 
ATOM     15  C   LIG A   1      -8.223  -1.043 126.783  0.00  0.00    +0.106 A 
ENDROOT
BRANCH   4  16
ATOM     16  O   LIG A   1      -7.345   3.098 125.404  0.00  0.00    -0.491 OA
ATOM     17  C   LIG A   1      -5.978   2.987 124.995  0.00  0.00    +0.277 C 
ENDBRANCH   4  16
BRANCH   5  18
ATOM     18  O   LIG A   1      -8.244   3.833 122.962  0.00  0.00    -0.503 OA
ATOM     19  H   LIG A   1      -8.220   4.431 123.736  0.00  0.00    +0.292 HD
ENDBRANCH   5  18
BRANCH  14  20
ATOM     20  O   LIG A   1      -6.961  -1.059 128.838  0.00  0.00    -0.506 OA
ATOM     21  H   LIG A   1      -6.035  -1.067 128.549  0.00  0.00    +0.292 HD
ENDBRANCH  14  20
TORSDOF 3
ENDMDL
MODEL 7
REMARK VINA RESULT:      -6.4      9.467     10.406
REMARK  Name = NuBBE_1716
REMARK  4 active torsions:
REMARK  status: ('A' for Active; 'I' for Inactive)
REMARK    1  A    between atoms: C_4  and  O_5
REMARK    2  A    between atoms: O_5  and  C_6
REMARK    3  A    between atoms: C_7  and  O_8
REMARK    4  A    between atoms: C_17  and  O_18
REMARK                            x       y       z     vdW  Elec       q    Type
REMARK                         _______ _______ _______ _____ _____    ______ ____
ROOT
ATOM      1  O   LIG A   1      -8.444   1.210 123.010  0.00  0.00    -0.286 OA
ATOM      2  C   LIG A   1      -7.842   0.501 123.805  0.00  0.00    +0.207 A 
ATOM      3  C   LIG A   1      -6.757   1.057 124.646  0.00  0.00    +0.110 A 
ATOM      4  C   LIG A   1      -6.422   2.419 124.673  0.00  0.00    +0.176 A 
ATOM      5  C   LIG A   1      -5.422   2.870 125.544  0.00  0.00    +0.159 A 
ATOM      6  C   LIG A   1      -4.706   1.988 126.338  0.00  0.00    +0.053 A 
ATOM      7  C   LIG A   1      -5.016   0.631 126.289  0.00  0.00    +0.051 A 
ATOM      8  C   LIG A   1      -6.044   0.170 125.456  0.00  0.00    +0.143 A 
ATOM      9  O   LIG A   1      -6.275  -1.180 125.512  0.00  0.00    -0.454 OA
ATOM     10  C   LIG A   1      -7.328  -1.693 124.800  0.00  0.00    +0.143 A 
ATOM     11  C   LIG A   1      -7.551  -3.063 124.972  0.00  0.00    +0.047 A 
ATOM     12  C   LIG A   1      -8.594  -3.694 124.301  0.00  0.00    +0.007 A 
ATOM     13  C   LIG A   1      -9.419  -2.956 123.455  0.00  0.00    +0.046 A 
ATOM     14  C   LIG A   1      -9.195  -1.586 123.280  0.00  0.00    +0.131 A 
ATOM     15  C   LIG A   1      -8.143  -0.943 123.951  0.00  0.00    +0.106 A 
ENDROOT
BRANCH   4  16
ATOM     16  O   LIG A   1      -7.078   3.380 123.947  0.00  0.00    -0.491 OA
ATOM     17  C   LIG A   1      -6.334   3.713 122.770  0.00  0.00    +0.277 C 
ENDBRANCH   4  16
BRANCH   5  18
ATOM     18  O   LIG A   1      -5.135   4.203 125.639  0.00  0.00    -0.503 OA
ATOM     19  H   LIG A   1      -4.373   4.265 126.249  0.00  0.00    +0.292 HD
ENDBRANCH   5  18
BRANCH  14  20
ATOM     20  O   LIG A   1     -10.028  -0.894 122.447  0.00  0.00    -0.506 OA
ATOM     21  H   LIG A   1     -10.922  -0.848 122.820  0.00  0.00    +0.292 HD
ENDBRANCH  14  20
TORSDOF 3
ENDMDL
MODEL 8
REMARK VINA RESULT:      -6.4      1.458      5.485
REMARK  Name = NuBBE_1716
REMARK  4 active torsions:
REMARK  status: ('A' for Active; 'I' for Inactive)
REMARK    1  A    between atoms: C_4  and  O_5
REMARK    2  A    between atoms: O_5  and  C_6
REMARK    3  A    between atoms: C_7  and  O_8
REMARK    4  A    between atoms: C_17  and  O_18
REMARK                            x       y       z     vdW  Elec       q    Type
REMARK                         _______ _______ _______ _____ _____    ______ ____
ROOT
ATOM      1  O   LIG A   1     -11.334   6.914 132.181  0.00  0.00    -0.286 OA
ATOM      2  C   LIG A   1     -10.572   6.730 131.241  0.00  0.00    +0.207 A 
ATOM      3  C   LIG A   1     -11.002   7.004 129.851  0.00  0.00    +0.110 A 
ATOM      4  C   LIG A   1     -12.239   7.581 129.525  0.00  0.00    +0.176 A 
ATOM      5  C   LIG A   1     -12.543   7.863 128.187  0.00  0.00    +0.159 A 
ATOM      6  C   LIG A   1     -11.671   7.525 127.164  0.00  0.00    +0.053 A 
ATOM      7  C   LIG A   1     -10.456   6.923 127.483  0.00  0.00    +0.051 A 
ATOM      8  C   LIG A   1     -10.119   6.676 128.820  0.00  0.00    +0.143 A 
ATOM      9  O   LIG A   1      -8.887   6.105 129.012  0.00  0.00    -0.454 OA
ATOM     10  C   LIG A   1      -8.445   5.921 130.297  0.00  0.00    +0.143 A 
ATOM     11  C   LIG A   1      -7.148   5.410 130.412  0.00  0.00    +0.047 A 
ATOM     12  C   LIG A   1      -6.592   5.184 131.668  0.00  0.00    +0.007 A 
ATOM     13  C   LIG A   1      -7.331   5.469 132.813  0.00  0.00    +0.046 A 
ATOM     14  C   LIG A   1      -8.630   5.976 132.699  0.00  0.00    +0.131 A 
ATOM     15  C   LIG A   1      -9.199   6.205 131.436  0.00  0.00    +0.106 A 
ENDROOT
BRANCH   4  16
ATOM     16  O   LIG A   1     -13.166   7.975 130.457  0.00  0.00    -0.491 OA
ATOM     17  C   LIG A   1     -13.122   9.395 130.636  0.00  0.00    +0.277 C 
ENDBRANCH   4  16
BRANCH   5  18
ATOM     18  O   LIG A   1     -13.710   8.494 127.859  0.00  0.00    -0.503 OA
ATOM     19  H   LIG A   1     -14.404   8.054 128.388  0.00  0.00    +0.292 HD
ENDBRANCH   5  18
BRANCH  14  20
ATOM     20  O   LIG A   1      -9.323   6.249 133.844  0.00  0.00    -0.506 OA
ATOM     21  H   LIG A   1     -10.165   6.684 133.639  0.00  0.00    +0.292 HD
ENDBRANCH  14  20
TORSDOF 3
ENDMDL
MODEL 9
REMARK VINA RESULT:      -6.4     10.165     11.913
REMARK  Name = NuBBE_1716
REMARK  4 active torsions:
REMARK  status: ('A' for Active; 'I' for Inactive)
REMARK    1  A    between atoms: C_4  and  O_5
REMARK    2  A    between atoms: O_5  and  C_6
REMARK    3  A    between atoms: C_7  and  O_8
REMARK    4  A    between atoms: C_17  and  O_18
REMARK                            x       y       z     vdW  Elec       q    Type
REMARK                         _______ _______ _______ _____ _____    ______ ____
ROOT
ATOM      1  O   LIG A   1      -5.173  -1.459 126.359  0.00  0.00    -0.286 OA
ATOM      2  C   LIG A   1      -6.205  -2.011 126.714  0.00  0.00    +0.207 A 
ATOM      3  C   LIG A   1      -7.280  -2.307 125.740  0.00  0.00    +0.110 A 
ATOM      4  C   LIG A   1      -7.156  -2.083 124.361  0.00  0.00    +0.176 A 
ATOM      5  C   LIG A   1      -8.200  -2.448 123.502  0.00  0.00    +0.159 A 
ATOM      6  C   LIG A   1      -9.387  -2.971 123.991  0.00  0.00    +0.053 A 
ATOM      7  C   LIG A   1      -9.525  -3.165 125.363  0.00  0.00    +0.051 A 
ATOM      8  C   LIG A   1      -8.472  -2.847 126.232  0.00  0.00    +0.143 A 
ATOM      9  O   LIG A   1      -8.714  -3.105 127.556  0.00  0.00    -0.454 OA
ATOM     10  C   LIG A   1      -7.697  -2.911 128.455  0.00  0.00    +0.143 A 
ATOM     11  C   LIG A   1      -7.993  -3.275 129.774  0.00  0.00    +0.047 A 
ATOM     12  C   LIG A   1      -7.037  -3.124 130.774  0.00  0.00    +0.007 A 
ATOM     13  C   LIG A   1      -5.781  -2.610 130.460  0.00  0.00    +0.046 A 
ATOM     14  C   LIG A   1      -5.486  -2.243 129.142  0.00  0.00    +0.131 A 
ATOM     15  C   LIG A   1      -6.445  -2.389 128.128  0.00  0.00    +0.106 A 
ENDROOT
BRANCH   4  16
ATOM     16  O   LIG A   1      -6.021  -1.593 123.768  0.00  0.00    -0.491 OA
ATOM     17  C   LIG A   1      -5.199  -2.666 123.296  0.00  0.00    +0.277 C 
ENDBRANCH   4  16
BRANCH   5  18
ATOM     18  O   LIG A   1      -8.066  -2.308 122.149  0.00  0.00    -0.503 OA
ATOM     19  H   LIG A   1      -8.943  -2.021 121.826  0.00  0.00    +0.292 HD
ENDBRANCH   5  18
BRANCH  14  20
ATOM     20  O   LIG A   1      -4.243  -1.747 128.870  0.00  0.00    -0.506 OA
ATOM     21  H   LIG A   1      -4.017  -1.033 129.486  0.00  0.00    +0.292 HD
ENDBRANCH  14  20
TORSDOF 3
ENDMDL
