MODEL 1
REMARK VINA RESULT:      -8.2      0.000      0.000
REMARK  Name = NuBBE_2495
REMARK  6 active torsions:
REMARK  status: ('A' for Active; 'I' for Inactive)
REMARK    1  A    between atoms: C_1  and  C_2
REMARK    2  A    between atoms: C_2  and  C_3
REMARK    3  A    between atoms: C_4  and  C_5
REMARK    4  A    between atoms: C_14  and  C_15
REMARK    5  A    between atoms: C_14  and  C_16
REMARK    6  A    between atoms: C_21  and  C_22
REMARK                            x       y       z     vdW  Elec       q    Type
REMARK                         _______ _______ _______ _____ _____    ______ ____
ROOT
ATOM      1  C   LIG A   1      -7.579  -2.092 124.767  0.00  0.00    -0.034 A 
ATOM      2  C   LIG A   1      -8.766  -2.850 124.611  0.00  0.00    -0.047 A 
ATOM      3  C   LIG A   1      -9.360  -3.166 123.261  0.00  0.00    +0.044 C 
ATOM      4  C   LIG A   1      -9.411  -3.362 125.743  0.00  0.00    +0.004 A 
ATOM      5  C   LIG A   1      -8.905  -3.146 127.022  0.00  0.00    +0.005 A 
ATOM      6  C   LIG A   1      -7.728  -2.410 127.223  0.00  0.00    -0.027 A 
ATOM      7  C   LIG A   1      -7.077  -1.864 126.081  0.00  0.00    +0.025 A 
ATOM      8  C   LIG A   1      -5.851  -1.031 126.317  0.00  0.00    +0.164 C 
ATOM      9  O   LIG A   1      -5.524  -0.130 125.549  0.00  0.00    -0.292 OA
ATOM     10  C   LIG A   1      -5.023  -1.278 127.561  0.00  0.00    +0.085 C 
ATOM     11  C   LIG A   1      -5.600  -2.363 128.471  0.00  0.00    +0.024 C 
ATOM     12  C   LIG A   1      -4.784  -2.594 129.785  0.00  0.00    +0.032 C 
ATOM     13  C   LIG A   1      -3.335  -3.005 129.439  0.00  0.00    +0.019 C 
ATOM     14  C   LIG A   1      -4.714  -1.390 130.737  0.00  0.00    +0.019 C 
ATOM     15  C   LIG A   1      -5.433  -3.746 130.559  0.00  0.00    +0.162 C 
ATOM     16  O   LIG A   1      -4.804  -4.520 131.277  0.00  0.00    -0.292 OA
ATOM     17  C   LIG A   1      -6.908  -3.864 130.530  0.00  0.00    +0.043 C 
ATOM     18  C   LIG A   1      -7.659  -3.133 129.695  0.00  0.00    -0.012 C 
ATOM     19  C   LIG A   1      -7.144  -2.166 128.637  0.00  0.00    +0.016 C 
ATOM     20  C   LIG A   1      -7.599  -0.754 129.071  0.00  0.00    +0.021 C 
ENDROOT
BRANCH   1  22
ATOM     21  C   LIG A   1      -5.768  -2.481 123.035  0.00  0.00    +0.009 C 
ATOM     22  C   LIG A   1      -6.875  -1.557 123.530  0.00  0.00    +0.033 C 
ENDBRANCH   1  22
TORSDOF 1
ENDMDL
MODEL 2
REMARK VINA RESULT:      -7.5      2.554      5.930
REMARK  Name = NuBBE_2495
REMARK  6 active torsions:
REMARK  status: ('A' for Active; 'I' for Inactive)
REMARK    1  A    between atoms: C_1  and  C_2
REMARK    2  A    between atoms: C_2  and  C_3
REMARK    3  A    between atoms: C_4  and  C_5
REMARK    4  A    between atoms: C_14  and  C_15
REMARK    5  A    between atoms: C_14  and  C_16
REMARK    6  A    between atoms: C_21  and  C_22
REMARK                            x       y       z     vdW  Elec       q    Type
REMARK                         _______ _______ _______ _____ _____    ______ ____
ROOT
ATOM      1  C   LIG A   1      -7.627   0.081 129.368  0.00  0.00    -0.034 A 
ATOM      2  C   LIG A   1      -7.959  -0.899 130.335  0.00  0.00    -0.047 A 
ATOM      3  C   LIG A   1      -8.231  -0.558 131.780  0.00  0.00    +0.044 C 
ATOM      4  C   LIG A   1      -8.078  -2.238 129.948  0.00  0.00    +0.004 A 
ATOM      5  C   LIG A   1      -7.880  -2.628 128.626  0.00  0.00    +0.005 A 
ATOM      6  C   LIG A   1      -7.559  -1.692 127.633  0.00  0.00    -0.027 A 
ATOM      7  C   LIG A   1      -7.412  -0.330 128.021  0.00  0.00    +0.025 A 
ATOM      8  C   LIG A   1      -7.011   0.652 126.957  0.00  0.00    +0.164 C 
ATOM      9  O   LIG A   1      -6.378   1.669 127.222  0.00  0.00    -0.292 OA
ATOM     10  C   LIG A   1      -7.358   0.353 125.514  0.00  0.00    +0.085 C 
ATOM     11  C   LIG A   1      -8.063  -0.991 125.321  0.00  0.00    +0.024 C 
ATOM     12  C   LIG A   1      -8.381  -1.338 123.830  0.00  0.00    +0.032 C 
ATOM     13  C   LIG A   1      -9.292  -0.249 123.220  0.00  0.00    +0.019 C 
ATOM     14  C   LIG A   1      -7.156  -1.491 122.914  0.00  0.00    +0.019 C 
ATOM     15  C   LIG A   1      -9.141  -2.667 123.796  0.00  0.00    +0.162 C 
ATOM     16  O   LIG A   1      -9.981  -2.946 122.943  0.00  0.00    -0.292 OA
ATOM     17  C   LIG A   1      -8.763  -3.714 124.773  0.00  0.00    +0.043 C 
ATOM     18  C   LIG A   1      -7.939  -3.459 125.797  0.00  0.00    -0.012 C 
ATOM     19  C   LIG A   1      -7.343  -2.104 126.155  0.00  0.00    +0.016 C 
ATOM     20  C   LIG A   1      -5.816  -2.222 125.942  0.00  0.00    +0.021 C 
ENDROOT
BRANCH   1  22
ATOM     21  C   LIG A   1      -8.836   2.292 129.646  0.00  0.00    +0.009 C 
ATOM     22  C   LIG A   1      -7.521   1.536 129.794  0.00  0.00    +0.033 C 
ENDBRANCH   1  22
TORSDOF 1
ENDMDL
MODEL 3
REMARK VINA RESULT:      -7.5      1.260      1.540
REMARK  Name = NuBBE_2495
REMARK  6 active torsions:
REMARK  status: ('A' for Active; 'I' for Inactive)
REMARK    1  A    between atoms: C_1  and  C_2
REMARK    2  A    between atoms: C_2  and  C_3
REMARK    3  A    between atoms: C_4  and  C_5
REMARK    4  A    between atoms: C_14  and  C_15
REMARK    5  A    between atoms: C_14  and  C_16
REMARK    6  A    between atoms: C_21  and  C_22
REMARK                            x       y       z     vdW  Elec       q    Type
REMARK                         _______ _______ _______ _____ _____    ______ ____
ROOT
ATOM      1  C   LIG A   1      -7.900  -1.769 126.255  0.00  0.00    -0.034 A 
ATOM      2  C   LIG A   1      -8.770  -2.868 126.044  0.00  0.00    -0.047 A 
ATOM      3  C   LIG A   1      -9.417  -3.149 124.711  0.00  0.00    +0.044 C 
ATOM      4  C   LIG A   1      -9.025  -3.757 127.093  0.00  0.00    +0.004 A 
ATOM      5  C   LIG A   1      -8.436  -3.587 128.343  0.00  0.00    +0.005 A 
ATOM      6  C   LIG A   1      -7.561  -2.520 128.595  0.00  0.00    -0.027 A 
ATOM      7  C   LIG A   1      -7.313  -1.596 127.541  0.00  0.00    +0.025 A 
ATOM      8  C   LIG A   1      -6.420  -0.427 127.844  0.00  0.00    +0.164 C 
ATOM      9  O   LIG A   1      -6.536   0.644 127.256  0.00  0.00    -0.292 OA
ATOM     10  C   LIG A   1      -5.381  -0.561 128.937  0.00  0.00    +0.085 C 
ATOM     11  C   LIG A   1      -5.412  -1.915 129.647  0.00  0.00    +0.024 C 
ATOM     12  C   LIG A   1      -4.379  -2.049 130.813  0.00  0.00    +0.032 C 
ATOM     13  C   LIG A   1      -2.946  -1.847 130.271  0.00  0.00    +0.019 C 
ATOM     14  C   LIG A   1      -4.578  -1.076 131.985  0.00  0.00    +0.019 C 
ATOM     15  C   LIG A   1      -4.476  -3.469 131.381  0.00  0.00    +0.162 C 
ATOM     16  O   LIG A   1      -3.522  -4.071 131.869  0.00  0.00    -0.292 OA
ATOM     17  C   LIG A   1      -5.811  -4.105 131.450  0.00  0.00    +0.043 C 
ATOM     18  C   LIG A   1      -6.881  -3.567 130.849  0.00  0.00    -0.012 C 
ATOM     19  C   LIG A   1      -6.888  -2.319 129.977  0.00  0.00    +0.016 C 
ATOM     20  C   LIG A   1      -7.724  -1.258 130.730  0.00  0.00    +0.021 C 
ENDROOT
BRANCH   1  22
ATOM     21  C   LIG A   1      -6.405  -1.245 124.275  0.00  0.00    +0.009 C 
ATOM     22  C   LIG A   1      -7.612  -0.820 125.103  0.00  0.00    +0.033 C 
ENDBRANCH   1  22
TORSDOF 1
ENDMDL
MODEL 4
REMARK VINA RESULT:      -7.3      3.169      5.519
REMARK  Name = NuBBE_2495
REMARK  6 active torsions:
REMARK  status: ('A' for Active; 'I' for Inactive)
REMARK    1  A    between atoms: C_1  and  C_2
REMARK    2  A    between atoms: C_2  and  C_3
REMARK    3  A    between atoms: C_4  and  C_5
REMARK    4  A    between atoms: C_14  and  C_15
REMARK    5  A    between atoms: C_14  and  C_16
REMARK    6  A    between atoms: C_21  and  C_22
REMARK                            x       y       z     vdW  Elec       q    Type
REMARK                         _______ _______ _______ _____ _____    ______ ____
ROOT
ATOM      1  C   LIG A   1      -8.591   1.003 130.936  0.00  0.00    -0.034 A 
ATOM      2  C   LIG A   1      -8.640   1.820 129.779  0.00  0.00    -0.047 A 
ATOM      3  C   LIG A   1      -9.195   3.222 129.795  0.00  0.00    +0.044 C 
ATOM      4  C   LIG A   1      -8.126   1.336 128.571  0.00  0.00    +0.004 A 
ATOM      5  C   LIG A   1      -7.563   0.066 128.482  0.00  0.00    +0.005 A 
ATOM      6  C   LIG A   1      -7.484  -0.774 129.603  0.00  0.00    -0.027 A 
ATOM      7  C   LIG A   1      -8.025  -0.300 130.832  0.00  0.00    +0.025 A 
ATOM      8  C   LIG A   1      -7.986  -1.233 132.008  0.00  0.00    +0.164 C 
ATOM      9  O   LIG A   1      -8.821  -1.177 132.906  0.00  0.00    -0.292 OA
ATOM     10  C   LIG A   1      -6.914  -2.301 132.063  0.00  0.00    +0.085 C 
ATOM     11  C   LIG A   1      -6.001  -2.314 130.836  0.00  0.00    +0.024 C 
ATOM     12  C   LIG A   1      -4.921  -3.445 130.854  0.00  0.00    +0.032 C 
ATOM     13  C   LIG A   1      -4.017  -3.288 132.098  0.00  0.00    +0.019 C 
ATOM     14  C   LIG A   1      -5.471  -4.880 130.852  0.00  0.00    +0.019 C 
ATOM     15  C   LIG A   1      -4.045  -3.293 129.607  0.00  0.00    +0.162 C 
ATOM     16  O   LIG A   1      -2.856  -3.606 129.572  0.00  0.00    -0.292 OA
ATOM     17  C   LIG A   1      -4.689  -2.855 128.348  0.00  0.00    +0.043 C 
ATOM     18  C   LIG A   1      -5.947  -2.396 128.322  0.00  0.00    -0.012 C 
ATOM     19  C   LIG A   1      -6.852  -2.187 129.528  0.00  0.00    +0.016 C 
ATOM     20  C   LIG A   1      -8.019  -3.190 129.385  0.00  0.00    +0.021 C 
ENDROOT
BRANCH   1  22
ATOM     21  C   LIG A   1      -8.070   2.259 133.075  0.00  0.00    +0.009 C 
ATOM     22  C   LIG A   1      -9.132   1.545 132.249  0.00  0.00    +0.033 C 
ENDBRANCH   1  22
TORSDOF 1
ENDMDL
MODEL 5
REMARK VINA RESULT:      -7.3      2.335      3.377
REMARK  Name = NuBBE_2495
REMARK  6 active torsions:
REMARK  status: ('A' for Active; 'I' for Inactive)
REMARK    1  A    between atoms: C_1  and  C_2
REMARK    2  A    between atoms: C_2  and  C_3
REMARK    3  A    between atoms: C_4  and  C_5
REMARK    4  A    between atoms: C_14  and  C_15
REMARK    5  A    between atoms: C_14  and  C_16
REMARK    6  A    between atoms: C_21  and  C_22
REMARK                            x       y       z     vdW  Elec       q    Type
REMARK                         _______ _______ _______ _____ _____    ______ ____
ROOT
ATOM      1  C   LIG A   1      -8.612  -0.936 124.087  0.00  0.00    -0.034 A 
ATOM      2  C   LIG A   1      -9.402   0.186 123.732  0.00  0.00    -0.047 A 
ATOM      3  C   LIG A   1     -10.185   0.256 122.445  0.00  0.00    +0.044 C 
ATOM      4  C   LIG A   1      -9.498   1.268 124.613  0.00  0.00    +0.004 A 
ATOM      5  C   LIG A   1      -8.835   1.264 125.838  0.00  0.00    +0.005 A 
ATOM      6  C   LIG A   1      -8.050   0.171 126.235  0.00  0.00    -0.027 A 
ATOM      7  C   LIG A   1      -7.926  -0.925 125.335  0.00  0.00    +0.025 A 
ATOM      8  C   LIG A   1      -7.036  -2.061 125.750  0.00  0.00    +0.164 C 
ATOM      9  O   LIG A   1      -6.456  -2.762 124.926  0.00  0.00    -0.292 OA
ATOM     10  C   LIG A   1      -6.812  -2.318 127.225  0.00  0.00    +0.085 C 
ATOM     11  C   LIG A   1      -7.520  -1.312 128.134  0.00  0.00    +0.024 C 
ATOM     12  C   LIG A   1      -7.256  -1.534 129.660  0.00  0.00    +0.032 C 
ATOM     13  C   LIG A   1      -7.731  -2.944 130.076  0.00  0.00    +0.019 C 
ATOM     14  C   LIG A   1      -5.793  -1.382 130.104  0.00  0.00    +0.019 C 
ATOM     15  C   LIG A   1      -8.077  -0.505 130.444  0.00  0.00    +0.162 C 
ATOM     16  O   LIG A   1      -8.535  -0.716 131.565  0.00  0.00    -0.292 OA
ATOM     17  C   LIG A   1      -8.230   0.851 129.872  0.00  0.00    +0.043 C 
ATOM     18  C   LIG A   1      -7.856   1.134 128.617  0.00  0.00    -0.012 C 
ATOM     19  C   LIG A   1      -7.311   0.143 127.597  0.00  0.00    +0.016 C 
ATOM     20  C   LIG A   1      -5.847   0.554 127.320  0.00  0.00    +0.021 C 
ENDROOT
BRANCH   1  22
ATOM     21  C   LIG A   1      -9.553  -3.201 123.446  0.00  0.00    +0.009 C 
ATOM     22  C   LIG A   1      -8.531  -2.116 123.132  0.00  0.00    +0.033 C 
ENDBRANCH   1  22
TORSDOF 1
ENDMDL
MODEL 6
REMARK VINA RESULT:      -7.3      2.854      5.743
REMARK  Name = NuBBE_2495
REMARK  6 active torsions:
REMARK  status: ('A' for Active; 'I' for Inactive)
REMARK    1  A    between atoms: C_1  and  C_2
REMARK    2  A    between atoms: C_2  and  C_3
REMARK    3  A    between atoms: C_4  and  C_5
REMARK    4  A    between atoms: C_14  and  C_15
REMARK    5  A    between atoms: C_14  and  C_16
REMARK    6  A    between atoms: C_21  and  C_22
REMARK                            x       y       z     vdW  Elec       q    Type
REMARK                         _______ _______ _______ _____ _____    ______ ____
ROOT
ATOM      1  C   LIG A   1      -7.696  -2.624 127.882  0.00  0.00    -0.034 A 
ATOM      2  C   LIG A   1      -8.823  -3.343 127.413  0.00  0.00    -0.047 A 
ATOM      3  C   LIG A   1      -9.375  -4.549 128.131  0.00  0.00    +0.044 C 
ATOM      4  C   LIG A   1      -9.483  -2.913 126.257  0.00  0.00    +0.004 A 
ATOM      5  C   LIG A   1      -9.057  -1.786 125.558  0.00  0.00    +0.005 A 
ATOM      6  C   LIG A   1      -7.953  -1.038 125.991  0.00  0.00    -0.027 A 
ATOM      7  C   LIG A   1      -7.259  -1.480 127.153  0.00  0.00    +0.025 A 
ATOM      8  C   LIG A   1      -6.045  -0.702 127.570  0.00  0.00    +0.164 C 
ATOM      9  O   LIG A   1      -5.116  -1.229 128.176  0.00  0.00    -0.292 OA
ATOM     10  C   LIG A   1      -5.943   0.760 127.190  0.00  0.00    +0.085 C 
ATOM     11  C   LIG A   1      -7.126   1.258 126.357  0.00  0.00    +0.024 C 
ATOM     12  C   LIG A   1      -7.010   2.753 125.914  0.00  0.00    +0.032 C 
ATOM     13  C   LIG A   1      -6.908   3.665 127.158  0.00  0.00    +0.019 C 
ATOM     14  C   LIG A   1      -5.821   3.078 124.997  0.00  0.00    +0.019 C 
ATOM     15  C   LIG A   1      -8.286   3.129 125.153  0.00  0.00    +0.162 C 
ATOM     16  O   LIG A   1      -8.766   4.261 125.153  0.00  0.00    -0.292 OA
ATOM     17  C   LIG A   1      -8.907   2.107 124.282  0.00  0.00    +0.043 C 
ATOM     18  C   LIG A   1      -8.514   0.827 124.304  0.00  0.00    -0.012 C 
ATOM     19  C   LIG A   1      -7.469   0.224 125.233  0.00  0.00    +0.016 C 
ATOM     20  C   LIG A   1      -6.286  -0.217 124.341  0.00  0.00    +0.021 C 
ENDROOT
BRANCH   1  22
ATOM     21  C   LIG A   1      -7.593  -2.469 130.411  0.00  0.00    +0.009 C 
ATOM     22  C   LIG A   1      -6.998  -3.086 129.151  0.00  0.00    +0.033 C 
ENDBRANCH   1  22
TORSDOF 1
ENDMDL
MODEL 7
REMARK VINA RESULT:      -7.1      8.809     10.936
REMARK  Name = NuBBE_2495
REMARK  6 active torsions:
REMARK  status: ('A' for Active; 'I' for Inactive)
REMARK    1  A    between atoms: C_1  and  C_2
REMARK    2  A    between atoms: C_2  and  C_3
REMARK    3  A    between atoms: C_4  and  C_5
REMARK    4  A    between atoms: C_14  and  C_15
REMARK    5  A    between atoms: C_14  and  C_16
REMARK    6  A    between atoms: C_21  and  C_22
REMARK                            x       y       z     vdW  Elec       q    Type
REMARK                         _______ _______ _______ _____ _____    ______ ____
ROOT
ATOM      1  C   LIG A   1      -8.007   5.262 132.992  0.00  0.00    -0.034 A 
ATOM      2  C   LIG A   1      -8.823   6.049 132.142  0.00  0.00    -0.047 A 
ATOM      3  C   LIG A   1     -10.329   6.055 132.235  0.00  0.00    +0.044 C 
ATOM      4  C   LIG A   1      -8.225   6.885 131.193  0.00  0.00    +0.004 A 
ATOM      5  C   LIG A   1      -6.840   6.964 131.070  0.00  0.00    +0.005 A 
ATOM      6  C   LIG A   1      -5.994   6.211 131.896  0.00  0.00    -0.027 A 
ATOM      7  C   LIG A   1      -6.592   5.339 132.849  0.00  0.00    +0.025 A 
ATOM      8  C   LIG A   1      -5.673   4.496 133.686  0.00  0.00    +0.164 C 
ATOM      9  O   LIG A   1      -6.020   3.405 134.129  0.00  0.00    -0.292 OA
ATOM     10  C   LIG A   1      -4.265   4.986 133.951  0.00  0.00    +0.085 C 
ATOM     11  C   LIG A   1      -3.940   6.313 133.261  0.00  0.00    +0.024 C 
ATOM     12  C   LIG A   1      -2.473   6.805 133.483  0.00  0.00    +0.032 C 
ATOM     13  C   LIG A   1      -2.204   6.994 134.993  0.00  0.00    +0.019 C 
ATOM     14  C   LIG A   1      -1.377   5.885 132.924  0.00  0.00    +0.019 C 
ATOM     15  C   LIG A   1      -2.314   8.167 132.798  0.00  0.00    +0.162 C 
ATOM     16  O   LIG A   1      -1.555   9.045 133.203  0.00  0.00    -0.292 OA
ATOM     17  C   LIG A   1      -3.024   8.393 131.519  0.00  0.00    +0.043 C 
ATOM     18  C   LIG A   1      -3.947   7.537 131.063  0.00  0.00    -0.012 C 
ATOM     19  C   LIG A   1      -4.451   6.292 131.781  0.00  0.00    +0.016 C 
ATOM     20  C   LIG A   1      -4.002   5.080 130.932  0.00  0.00    +0.021 C 
ENDROOT
BRANCH   1  22
ATOM     21  C   LIG A   1      -9.203   3.073 133.447  0.00  0.00    +0.009 C 
ATOM     22  C   LIG A   1      -8.665   4.372 134.034  0.00  0.00    +0.033 C 
ENDBRANCH   1  22
TORSDOF 1
ENDMDL
MODEL 8
REMARK VINA RESULT:      -6.9      5.228      7.116
REMARK  Name = NuBBE_2495
REMARK  6 active torsions:
REMARK  status: ('A' for Active; 'I' for Inactive)
REMARK    1  A    between atoms: C_1  and  C_2
REMARK    2  A    between atoms: C_2  and  C_3
REMARK    3  A    between atoms: C_4  and  C_5
REMARK    4  A    between atoms: C_14  and  C_15
REMARK    5  A    between atoms: C_14  and  C_16
REMARK    6  A    between atoms: C_21  and  C_22
REMARK                            x       y       z     vdW  Elec       q    Type
REMARK                         _______ _______ _______ _____ _____    ______ ____
ROOT
ATOM      1  C   LIG A   1      -7.686   0.584 128.918  0.00  0.00    -0.034 A 
ATOM      2  C   LIG A   1      -7.742  -0.636 129.637  0.00  0.00    -0.047 A 
ATOM      3  C   LIG A   1      -7.177  -1.926 129.096  0.00  0.00    +0.044 C 
ATOM      4  C   LIG A   1      -8.312  -0.659 130.914  0.00  0.00    +0.004 A 
ATOM      5  C   LIG A   1      -8.823   0.498 131.498  0.00  0.00    +0.005 A 
ATOM      6  C   LIG A   1      -8.780   1.729 130.828  0.00  0.00    -0.027 A 
ATOM      7  C   LIG A   1      -8.224   1.759 129.518  0.00  0.00    +0.025 A 
ATOM      8  C   LIG A   1      -8.238   3.073 128.791  0.00  0.00    +0.164 C 
ATOM      9  O   LIG A   1      -8.284   3.134 127.566  0.00  0.00    -0.292 OA
ATOM     10  C   LIG A   1      -8.244   4.356 129.595  0.00  0.00    +0.085 C 
ATOM     11  C   LIG A   1      -8.280   4.130 131.107  0.00  0.00    +0.024 C 
ATOM     12  C   LIG A   1      -8.338   5.446 131.949  0.00  0.00    +0.032 C 
ATOM     13  C   LIG A   1      -7.100   6.320 131.645  0.00  0.00    +0.019 C 
ATOM     14  C   LIG A   1      -9.588   6.312 131.732  0.00  0.00    +0.019 C 
ATOM     15  C   LIG A   1      -8.300   5.069 133.434  0.00  0.00    +0.162 C 
ATOM     16  O   LIG A   1      -7.795   5.780 134.301  0.00  0.00    -0.292 OA
ATOM     17  C   LIG A   1      -9.008   3.842 133.862  0.00  0.00    +0.043 C 
ATOM     18  C   LIG A   1      -9.491   2.960 132.977  0.00  0.00    -0.012 C 
ATOM     19  C   LIG A   1      -9.335   3.029 131.464  0.00  0.00    +0.016 C 
ATOM     20  C   LIG A   1     -10.751   3.241 130.883  0.00  0.00    +0.021 C 
ENDROOT
BRANCH   1  22
ATOM     21  C   LIG A   1      -5.550   0.889 127.586  0.00  0.00    +0.009 C 
ATOM     22  C   LIG A   1      -7.046   0.603 127.540  0.00  0.00    +0.033 C 
ENDBRANCH   1  22
TORSDOF 1
ENDMDL
MODEL 9
REMARK VINA RESULT:      -6.9      6.707      9.145
REMARK  Name = NuBBE_2495
REMARK  6 active torsions:
REMARK  status: ('A' for Active; 'I' for Inactive)
REMARK    1  A    between atoms: C_1  and  C_2
REMARK    2  A    between atoms: C_2  and  C_3
REMARK    3  A    between atoms: C_4  and  C_5
REMARK    4  A    between atoms: C_14  and  C_15
REMARK    5  A    between atoms: C_14  and  C_16
REMARK    6  A    between atoms: C_21  and  C_22
REMARK                            x       y       z     vdW  Elec       q    Type
REMARK                         _______ _______ _______ _____ _____    ______ ____
ROOT
ATOM      1  C   LIG A   1      -3.677   5.072 129.213  0.00  0.00    -0.034 A 
ATOM      2  C   LIG A   1      -3.346   6.443 129.083  0.00  0.00    -0.047 A 
ATOM      3  C   LIG A   1      -2.220   6.930 128.206  0.00  0.00    +0.044 C 
ATOM      4  C   LIG A   1      -4.104   7.403 129.763  0.00  0.00    +0.004 A 
ATOM      5  C   LIG A   1      -5.184   7.037 130.563  0.00  0.00    +0.005 A 
ATOM      6  C   LIG A   1      -5.554   5.693 130.713  0.00  0.00    -0.027 A 
ATOM      7  C   LIG A   1      -4.775   4.706 130.045  0.00  0.00    +0.025 A 
ATOM      8  C   LIG A   1      -5.148   3.268 130.262  0.00  0.00    +0.164 C 
ATOM      9  O   LIG A   1      -4.317   2.367 130.194  0.00  0.00    -0.292 OA
ATOM     10  C   LIG A   1      -6.579   2.927 130.620  0.00  0.00    +0.085 C 
ATOM     11  C   LIG A   1      -7.482   4.154 130.762  0.00  0.00    +0.024 C 
ATOM     12  C   LIG A   1      -8.951   3.820 131.182  0.00  0.00    +0.032 C 
ATOM     13  C   LIG A   1      -9.600   2.890 130.132  0.00  0.00    +0.019 C 
ATOM     14  C   LIG A   1      -9.107   3.155 132.558  0.00  0.00    +0.019 C 
ATOM     15  C   LIG A   1      -9.749   5.127 131.217  0.00  0.00    +0.162 C 
ATOM     16  O   LIG A   1     -10.950   5.195 130.965  0.00  0.00    -0.292 OA
ATOM     17  C   LIG A   1      -9.065   6.352 131.690  0.00  0.00    +0.043 C 
ATOM     18  C   LIG A   1      -7.741   6.391 131.883  0.00  0.00    -0.012 C 
ATOM     19  C   LIG A   1      -6.757   5.266 131.591  0.00  0.00    +0.016 C 
ATOM     20  C   LIG A   1      -6.179   4.820 132.954  0.00  0.00    +0.021 C 
ENDROOT
BRANCH   1  22
ATOM     21  C   LIG A   1      -3.407   3.763 127.058  0.00  0.00    +0.009 C 
ATOM     22  C   LIG A   1      -2.861   4.038 128.454  0.00  0.00    +0.033 C 
ENDBRANCH   1  22
TORSDOF 1
ENDMDL
