MODEL 1
REMARK VINA RESULT:      -7.0      0.000      0.000
REMARK  Name = NuBBE_396
REMARK  2 active torsions:
REMARK  status: ('A' for Active; 'I' for Inactive)
REMARK    1  A    between atoms: C_7  and  C_8
REMARK    2  A    between atoms: C_9  and  C_10
REMARK                            x       y       z     vdW  Elec       q    Type
REMARK                         _______ _______ _______ _____ _____    ______ ____
ROOT
ATOM      1  C   LIG A   1     -10.680   6.350 130.472  0.00  0.00    +0.018 C 
ATOM      2  C   LIG A   1     -10.098   6.347 131.684  0.00  0.00    +0.007 C 
ENDROOT
BRANCH   1   9
ATOM      3  O   LIG A   1     -12.359   6.769 126.646  0.00  0.00    -0.246 OA
ATOM      4  C   LIG A   1     -12.370   7.043 127.838  0.00  0.00    +0.332 C 
ATOM      5  C   LIG A   1     -12.326   8.448 128.282  0.00  0.00    +0.087 C 
ATOM      6  C   LIG A   1     -12.557   8.791 129.555  0.00  0.00    -0.016 C 
ATOM      7  C   LIG A   1     -12.800   7.744 130.591  0.00  0.00    +0.076 C 
ATOM      8  O   LIG A   1     -12.451   6.090 128.800  0.00  0.00    -0.454 OA
ATOM      9  C   LIG A   1     -12.164   6.409 130.177  0.00  0.00    +0.204 C 
ENDBRANCH   1   9
BRANCH   2  10
ATOM     10  C   LIG A   1      -8.645   6.279 131.899  0.00  0.00    -0.025 A 
ATOM     11  C   LIG A   1      -7.790   6.877 130.965  0.00  0.00    +0.008 A 
ATOM     12  C   LIG A   1      -6.404   6.852 131.147  0.00  0.00    +0.001 A 
ATOM     13  C   LIG A   1      -5.859   6.237 132.272  0.00  0.00    +0.000 A 
ATOM     14  C   LIG A   1      -6.698   5.656 133.220  0.00  0.00    +0.001 A 
ATOM     15  C   LIG A   1      -8.082   5.685 133.039  0.00  0.00    +0.008 A 
ENDBRANCH   2  10
TORSDOF 2
ENDMDL
MODEL 2
REMARK VINA RESULT:      -6.6      1.706      2.585
REMARK  Name = NuBBE_396
REMARK  2 active torsions:
REMARK  status: ('A' for Active; 'I' for Inactive)
REMARK    1  A    between atoms: C_7  and  C_8
REMARK    2  A    between atoms: C_9  and  C_10
REMARK                            x       y       z     vdW  Elec       q    Type
REMARK                         _______ _______ _______ _____ _____    ______ ____
ROOT
ATOM      1  C   LIG A   1     -10.222   7.166 128.690  0.00  0.00    +0.018 C 
ATOM      2  C   LIG A   1      -9.814   7.654 129.874  0.00  0.00    +0.007 C 
ENDROOT
BRANCH   1   9
ATOM      3  O   LIG A   1     -13.344   9.929 129.195  0.00  0.00    -0.246 OA
ATOM      4  C   LIG A   1     -12.830   9.024 128.552  0.00  0.00    +0.332 C 
ATOM      5  C   LIG A   1     -13.587   7.793 128.259  0.00  0.00    +0.087 C 
ATOM      6  C   LIG A   1     -13.142   6.887 127.381  0.00  0.00    -0.016 C 
ATOM      7  C   LIG A   1     -11.816   7.060 126.716  0.00  0.00    +0.076 C 
ATOM      8  O   LIG A   1     -11.570   9.111 128.057  0.00  0.00    -0.454 OA
ATOM      9  C   LIG A   1     -10.889   7.937 127.570  0.00  0.00    +0.204 C 
ENDBRANCH   1   9
BRANCH   2  10
ATOM     10  C   LIG A   1      -9.179   6.843 130.924  0.00  0.00    -0.025 A 
ATOM     11  C   LIG A   1      -7.782   6.822 131.016  0.00  0.00    +0.008 A 
ATOM     12  C   LIG A   1      -7.143   6.082 132.015  0.00  0.00    +0.001 A 
ATOM     13  C   LIG A   1      -7.896   5.362 132.939  0.00  0.00    +0.000 A 
ATOM     14  C   LIG A   1      -9.287   5.391 132.874  0.00  0.00    +0.001 A 
ATOM     15  C   LIG A   1      -9.924   6.134 131.878  0.00  0.00    +0.008 A 
ENDBRANCH   2  10
TORSDOF 2
ENDMDL
MODEL 3
REMARK VINA RESULT:      -6.5      8.101     10.163
REMARK  Name = NuBBE_396
REMARK  2 active torsions:
REMARK  status: ('A' for Active; 'I' for Inactive)
REMARK    1  A    between atoms: C_7  and  C_8
REMARK    2  A    between atoms: C_9  and  C_10
REMARK                            x       y       z     vdW  Elec       q    Type
REMARK                         _______ _______ _______ _____ _____    ______ ____
ROOT
ATOM      1  C   LIG A   1      -5.230   4.083 124.879  0.00  0.00    +0.018 C 
ATOM      2  C   LIG A   1      -5.908   3.501 123.875  0.00  0.00    +0.007 C 
ENDROOT
BRANCH   1   9
ATOM      3  O   LIG A   1      -4.106   6.596 128.050  0.00  0.00    -0.246 OA
ATOM      4  C   LIG A   1      -4.128   5.483 127.543  0.00  0.00    +0.332 C 
ATOM      5  C   LIG A   1      -2.873   4.743 127.310  0.00  0.00    +0.087 C 
ATOM      6  C   LIG A   1      -2.873   3.450 126.967  0.00  0.00    -0.016 C 
ATOM      7  C   LIG A   1      -4.158   2.725 126.737  0.00  0.00    +0.076 C 
ATOM      8  O   LIG A   1      -5.285   4.864 127.200  0.00  0.00    -0.454 OA
ATOM      9  C   LIG A   1      -5.273   3.704 126.344  0.00  0.00    +0.204 C 
ENDBRANCH   1   9
BRANCH   2  10
ATOM     10  C   LIG A   1      -5.826   3.928 122.469  0.00  0.00    -0.025 A 
ATOM     11  C   LIG A   1      -6.858   3.577 121.590  0.00  0.00    +0.008 A 
ATOM     12  C   LIG A   1      -6.826   3.985 120.254  0.00  0.00    +0.001 A 
ATOM     13  C   LIG A   1      -5.766   4.757 119.785  0.00  0.00    +0.000 A 
ATOM     14  C   LIG A   1      -4.743   5.132 120.653  0.00  0.00    +0.001 A 
ATOM     15  C   LIG A   1      -4.778   4.727 121.989  0.00  0.00    +0.008 A 
ENDBRANCH   2  10
TORSDOF 2
ENDMDL
MODEL 4
REMARK VINA RESULT:      -6.5      9.287     10.873
REMARK  Name = NuBBE_396
REMARK  2 active torsions:
REMARK  status: ('A' for Active; 'I' for Inactive)
REMARK    1  A    between atoms: C_7  and  C_8
REMARK    2  A    between atoms: C_9  and  C_10
REMARK                            x       y       z     vdW  Elec       q    Type
REMARK                         _______ _______ _______ _____ _____    ______ ____
ROOT
ATOM      1  C   LIG A   1      -7.872   2.317 123.031  0.00  0.00    +0.018 C 
ATOM      2  C   LIG A   1      -8.289   3.091 122.015  0.00  0.00    +0.007 C 
ENDROOT
BRANCH   1   9
ATOM      3  O   LIG A   1      -7.595  -1.784 123.893  0.00  0.00    -0.246 OA
ATOM      4  C   LIG A   1      -8.282  -0.788 123.710  0.00  0.00    +0.332 C 
ATOM      5  C   LIG A   1      -9.334  -0.788 122.676  0.00  0.00    +0.087 C 
ATOM      6  C   LIG A   1     -10.242   0.191 122.598  0.00  0.00    -0.016 C 
ATOM      7  C   LIG A   1     -10.176   1.365 123.519  0.00  0.00    +0.076 C 
ATOM      8  O   LIG A   1      -8.140   0.339 124.451  0.00  0.00    -0.454 OA
ATOM      9  C   LIG A   1      -8.742   1.578 124.026  0.00  0.00    +0.204 C 
ENDBRANCH   1   9
BRANCH   2  10
ATOM     10  C   LIG A   1      -7.385   3.790 121.088  0.00  0.00    -0.025 A 
ATOM     11  C   LIG A   1      -6.068   4.050 121.488  0.00  0.00    +0.008 A 
ATOM     12  C   LIG A   1      -5.174   4.690 120.625  0.00  0.00    +0.001 A 
ATOM     13  C   LIG A   1      -5.585   5.070 119.350  0.00  0.00    +0.000 A 
ATOM     14  C   LIG A   1      -6.885   4.799 118.931  0.00  0.00    +0.001 A 
ATOM     15  C   LIG A   1      -7.777   4.155 119.791  0.00  0.00    +0.008 A 
ENDBRANCH   2  10
TORSDOF 2
ENDMDL
MODEL 5
REMARK VINA RESULT:      -6.4      9.606     10.632
REMARK  Name = NuBBE_396
REMARK  2 active torsions:
REMARK  status: ('A' for Active; 'I' for Inactive)
REMARK    1  A    between atoms: C_7  and  C_8
REMARK    2  A    between atoms: C_9  and  C_10
REMARK                            x       y       z     vdW  Elec       q    Type
REMARK                         _______ _______ _______ _____ _____    ______ ____
ROOT
ATOM      1  C   LIG A   1      -7.266   1.700 123.140  0.00  0.00    +0.018 C 
ATOM      2  C   LIG A   1      -8.141   0.864 123.724  0.00  0.00    +0.007 C 
ENDROOT
BRANCH   1   9
ATOM      3  O   LIG A   1      -9.190   3.865 120.099  0.00  0.00    -0.246 OA
ATOM      4  C   LIG A   1      -8.254   3.743 120.877  0.00  0.00    +0.332 C 
ATOM      5  C   LIG A   1      -6.867   3.729 120.378  0.00  0.00    +0.087 C 
ATOM      6  C   LIG A   1      -5.820   3.820 121.207  0.00  0.00    -0.016 C 
ATOM      7  C   LIG A   1      -6.025   3.868 122.686  0.00  0.00    +0.076 C 
ATOM      8  O   LIG A   1      -8.432   3.647 122.218  0.00  0.00    -0.454 OA
ATOM      9  C   LIG A   1      -7.357   3.210 123.073  0.00  0.00    +0.204 C 
ENDBRANCH   1   9
BRANCH   2  10
ATOM     10  C   LIG A   1      -7.995  -0.600 123.743  0.00  0.00    -0.025 A 
ATOM     11  C   LIG A   1      -6.815  -1.159 124.249  0.00  0.00    +0.008 A 
ATOM     12  C   LIG A   1      -6.650  -2.546 124.305  0.00  0.00    +0.001 A 
ATOM     13  C   LIG A   1      -7.667  -3.388 123.864  0.00  0.00    +0.000 A 
ATOM     14  C   LIG A   1      -8.855  -2.846 123.378  0.00  0.00    +0.001 A 
ATOM     15  C   LIG A   1      -9.021  -1.461 123.326  0.00  0.00    +0.008 A 
ENDBRANCH   2  10
TORSDOF 2
ENDMDL
MODEL 6
REMARK VINA RESULT:      -6.3      2.798      6.024
REMARK  Name = NuBBE_396
REMARK  2 active torsions:
REMARK  status: ('A' for Active; 'I' for Inactive)
REMARK    1  A    between atoms: C_7  and  C_8
REMARK    2  A    between atoms: C_9  and  C_10
REMARK                            x       y       z     vdW  Elec       q    Type
REMARK                         _______ _______ _______ _____ _____    ______ ____
ROOT
ATOM      1  C   LIG A   1      -9.134   6.216 131.868  0.00  0.00    +0.018 C 
ATOM      2  C   LIG A   1      -9.175   6.858 130.688  0.00  0.00    +0.007 C 
ENDROOT
BRANCH   1   9
ATOM      3  O   LIG A   1      -7.617   2.327 131.409  0.00  0.00    -0.246 OA
ATOM      4  C   LIG A   1      -7.866   3.284 132.129  0.00  0.00    +0.332 C 
ATOM      5  C   LIG A   1      -8.710   3.118 133.327  0.00  0.00    +0.087 C 
ATOM      6  C   LIG A   1      -8.821   4.081 134.248  0.00  0.00    -0.016 C 
ATOM      7  C   LIG A   1      -8.141   5.397 134.057  0.00  0.00    +0.076 C 
ATOM      8  O   LIG A   1      -7.365   4.522 131.891  0.00  0.00    -0.454 OA
ATOM      9  C   LIG A   1      -7.904   5.676 132.566  0.00  0.00    +0.204 C 
ENDBRANCH   1   9
BRANCH   2  10
ATOM     10  C   LIG A   1     -10.412   7.349 130.061  0.00  0.00    -0.025 A 
ATOM     11  C   LIG A   1     -10.332   8.036 128.844  0.00  0.00    +0.008 A 
ATOM     12  C   LIG A   1     -11.487   8.498 128.207  0.00  0.00    +0.001 A 
ATOM     13  C   LIG A   1     -12.737   8.268 128.777  0.00  0.00    +0.000 A 
ATOM     14  C   LIG A   1     -12.834   7.567 129.976  0.00  0.00    +0.001 A 
ATOM     15  C   LIG A   1     -11.680   7.103 130.610  0.00  0.00    +0.008 A 
ENDBRANCH   2  10
TORSDOF 2
ENDMDL
MODEL 7
REMARK VINA RESULT:      -6.0     10.051     10.633
REMARK  Name = NuBBE_396
REMARK  2 active torsions:
REMARK  status: ('A' for Active; 'I' for Inactive)
REMARK    1  A    between atoms: C_7  and  C_8
REMARK    2  A    between atoms: C_9  and  C_10
REMARK                            x       y       z     vdW  Elec       q    Type
REMARK                         _______ _______ _______ _____ _____    ______ ____
ROOT
ATOM      1  C   LIG A   1      -7.589  -1.897 126.426  0.00  0.00    +0.018 C 
ATOM      2  C   LIG A   1      -7.475  -1.801 127.762  0.00  0.00    +0.007 C 
ENDROOT
BRANCH   1   9
ATOM      3  O   LIG A   1      -9.827  -3.630 123.324  0.00  0.00    -0.246 OA
ATOM      4  C   LIG A   1      -9.177  -2.688 123.757  0.00  0.00    +0.332 C 
ATOM      5  C   LIG A   1      -8.008  -2.184 123.014  0.00  0.00    +0.087 C 
ATOM      6  C   LIG A   1      -7.412  -1.031 123.338  0.00  0.00    -0.016 C 
ATOM      7  C   LIG A   1      -7.874  -0.243 124.520  0.00  0.00    +0.076 C 
ATOM      8  O   LIG A   1      -9.505  -2.047 124.907  0.00  0.00    -0.454 OA
ATOM      9  C   LIG A   1      -8.569  -1.154 125.543  0.00  0.00    +0.204 C 
ENDBRANCH   1   9
BRANCH   2  10
ATOM     10  C   LIG A   1      -6.503  -2.563 128.562  0.00  0.00    -0.025 A 
ATOM     11  C   LIG A   1      -6.972  -3.454 129.535  0.00  0.00    +0.008 A 
ATOM     12  C   LIG A   1      -6.079  -4.212 130.298  0.00  0.00    +0.001 A 
ATOM     13  C   LIG A   1      -4.707  -4.093 130.089  0.00  0.00    +0.000 A 
ATOM     14  C   LIG A   1      -4.227  -3.226 129.110  0.00  0.00    +0.001 A 
ATOM     15  C   LIG A   1      -5.120  -2.473 128.345  0.00  0.00    +0.008 A 
ENDBRANCH   2  10
TORSDOF 2
ENDMDL
MODEL 8
REMARK VINA RESULT:      -6.0      8.678     10.375
REMARK  Name = NuBBE_396
REMARK  2 active torsions:
REMARK  status: ('A' for Active; 'I' for Inactive)
REMARK    1  A    between atoms: C_7  and  C_8
REMARK    2  A    between atoms: C_9  and  C_10
REMARK                            x       y       z     vdW  Elec       q    Type
REMARK                         _______ _______ _______ _____ _____    ______ ____
ROOT
ATOM      1  C   LIG A   1      -7.314   2.252 122.942  0.00  0.00    +0.018 C 
ATOM      2  C   LIG A   1      -7.899   3.003 121.993  0.00  0.00    +0.007 C 
ENDROOT
BRANCH   1   9
ATOM      3  O   LIG A   1      -8.381   3.613 126.768  0.00  0.00    -0.246 OA
ATOM      4  C   LIG A   1      -7.949   2.724 126.047  0.00  0.00    +0.332 C 
ATOM      5  C   LIG A   1      -6.636   2.113 126.322  0.00  0.00    +0.087 C 
ATOM      6  C   LIG A   1      -6.233   1.001 125.696  0.00  0.00    -0.016 C 
ATOM      7  C   LIG A   1      -7.081   0.376 124.637  0.00  0.00    +0.076 C 
ATOM      8  O   LIG A   1      -8.652   2.238 124.993  0.00  0.00    -0.454 OA
ATOM      9  C   LIG A   1      -8.009   1.418 123.997  0.00  0.00    +0.204 C 
ENDBRANCH   1   9
BRANCH   2  10
ATOM     10  C   LIG A   1      -7.159   3.799 121.001  0.00  0.00    -0.025 A 
ATOM     11  C   LIG A   1      -5.842   4.183 121.282  0.00  0.00    +0.008 A 
ATOM     12  C   LIG A   1      -5.100   4.919 120.354  0.00  0.00    +0.001 A 
ATOM     13  C   LIG A   1      -5.665   5.271 119.131  0.00  0.00    +0.000 A 
ATOM     14  C   LIG A   1      -6.967   4.878 118.829  0.00  0.00    +0.001 A 
ATOM     15  C   LIG A   1      -7.706   4.139 119.755  0.00  0.00    +0.008 A 
ENDBRANCH   2  10
TORSDOF 2
ENDMDL
MODEL 9
REMARK VINA RESULT:      -5.9     10.592     12.189
REMARK  Name = NuBBE_396
REMARK  2 active torsions:
REMARK  status: ('A' for Active; 'I' for Inactive)
REMARK    1  A    between atoms: C_7  and  C_8
REMARK    2  A    between atoms: C_9  and  C_10
REMARK                            x       y       z     vdW  Elec       q    Type
REMARK                         _______ _______ _______ _____ _____    ______ ____
ROOT
ATOM      1  C   LIG A   1      -6.686  -2.224 128.299  0.00  0.00    +0.018 C 
ATOM      2  C   LIG A   1      -7.786  -2.742 127.727  0.00  0.00    +0.007 C 
ENDROOT
BRANCH   1   9
ATOM      3  O   LIG A   1      -2.888  -2.549 130.061  0.00  0.00    -0.246 OA
ATOM      4  C   LIG A   1      -4.089  -2.781 130.093  0.00  0.00    +0.332 C 
ATOM      5  C   LIG A   1      -4.578  -4.166 130.221  0.00  0.00    +0.087 C 
ATOM      6  C   LIG A   1      -5.863  -4.437 130.479  0.00  0.00    -0.016 C 
ATOM      7  C   LIG A   1      -6.867  -3.335 130.576  0.00  0.00    +0.076 C 
ATOM      8  O   LIG A   1      -5.020  -1.796 130.043  0.00  0.00    -0.454 OA
ATOM      9  C   LIG A   1      -6.404  -2.105 129.782  0.00  0.00    +0.204 C 
ENDBRANCH   1   9
BRANCH   2  10
ATOM     10  C   LIG A   1      -8.000  -2.818 126.273  0.00  0.00    -0.025 A 
ATOM     11  C   LIG A   1      -6.904  -2.660 125.415  0.00  0.00    +0.008 A 
ATOM     12  C   LIG A   1      -7.064  -2.749 124.029  0.00  0.00    +0.001 A 
ATOM     13  C   LIG A   1      -8.321  -3.007 123.487  0.00  0.00    +0.000 A 
ATOM     14  C   LIG A   1      -9.415  -3.188 124.329  0.00  0.00    +0.001 A 
ATOM     15  C   LIG A   1      -9.254  -3.103 125.713  0.00  0.00    +0.008 A 
ENDBRANCH   2  10
TORSDOF 2
ENDMDL
