MODEL 1
REMARK VINA RESULT:      -9.0      0.000      0.000
REMARK  Name = NuBBE_1368
REMARK  6 active torsions:
REMARK  status: ('A' for Active; 'I' for Inactive)
REMARK    1  A    between atoms: C_2  and  O_3
REMARK    2  A    between atoms: C_2  and  C_11
REMARK    3  A    between atoms: O_3  and  C_4
REMARK    4  A    between atoms: C_4  and  C_5
REMARK    5  A    between atoms: C_11  and  C_12
REMARK    6  A    between atoms: C_12  and  O_13
REMARK                            x       y       z     vdW  Elec       q    Type
REMARK                         _______ _______ _______ _____ _____    ______ ____
ROOT
ATOM      1  C   LIG A   1      -7.497  -0.023 125.658  0.00  0.00    +0.164 C 
ATOM      2  C   LIG A   1      -8.078  -1.127 124.800  0.00  0.00    -0.000 A 
ATOM      3  C   LIG A   1      -8.162  -0.933 123.402  0.00  0.00    +0.007 A 
ATOM      4  C   LIG A   1      -8.765  -1.876 122.579  0.00  0.00    +0.000 A 
ATOM      5  C   LIG A   1      -9.297  -3.023 123.143  0.00  0.00    +0.001 A 
ATOM      6  C   LIG A   1      -9.196  -3.240 124.521  0.00  0.00    +0.009 A 
ATOM      7  C   LIG A   1      -8.572  -2.313 125.384  0.00  0.00    -0.011 A 
ATOM      8  C   LIG A   1      -8.412  -2.556 126.842  0.00  0.00    -0.007 A 
ATOM      9  C   LIG A   1      -8.952  -3.683 127.496  0.00  0.00    +0.009 A 
ATOM     10  C   LIG A   1      -8.768  -3.909 128.866  0.00  0.00    +0.001 A 
ATOM     11  C   LIG A   1      -8.036  -3.011 129.632  0.00  0.00    +0.001 A 
ATOM     12  C   LIG A   1      -7.490  -1.888 129.024  0.00  0.00    +0.012 A 
ATOM     13  C   LIG A   1      -7.678  -1.665 127.648  0.00  0.00    +0.028 A 
ATOM     14  C   LIG A   1      -7.077  -0.448 127.060  0.00  0.00    +0.200 C 
ATOM     15  O   LIG A   1      -6.244   0.210 127.691  0.00  0.00    -0.289 OA
ENDROOT
BRANCH   1  16
ATOM     16  O   LIG A   1      -6.252   0.392 125.032  0.00  0.00    -0.375 OA
ATOM     17  H   LIG A   1      -5.815   0.984 125.678  0.00  0.00    +0.211 HD
ENDBRANCH   1  16
BRANCH   1  18
ATOM     18  C   LIG A   1      -8.373   1.234 125.708  0.00  0.00    +0.168 C 
BRANCH  18  20
ATOM     19  O   LIG A   1      -6.904   3.131 126.054  0.00  0.00    -0.251 OA
ATOM     20  C   LIG A   1      -7.656   2.505 125.331  0.00  0.00    +0.311 C 
BRANCH  20  21
ATOM     21  O   LIG A   1      -7.916   2.790 124.020  0.00  0.00    -0.460 OA
BRANCH  21  22
ATOM     22  C   LIG A   1      -6.775   3.187 123.246  0.00  0.00    +0.267 C 
BRANCH  22  23
ATOM     23  C   LIG A   1      -7.211   3.499 121.837  0.00  0.00    -0.010 A 
ATOM     24  C   LIG A   1      -6.272   3.910 120.880  0.00  0.00    +0.007 A 
ATOM     25  C   LIG A   1      -6.688   4.302 119.608  0.00  0.00    +0.000 A 
ATOM     26  C   LIG A   1      -8.042   4.277 119.277  0.00  0.00    +0.000 A 
ATOM     27  C   LIG A   1      -8.981   3.853 120.216  0.00  0.00    +0.000 A 
ATOM     28  C   LIG A   1      -8.568   3.464 121.490  0.00  0.00    +0.007 A 
ENDBRANCH  22  23
ENDBRANCH  21  22
ENDBRANCH  20  21
ENDBRANCH  18  20
ENDBRANCH   1  18
TORSDOF 6
ENDMDL
MODEL 2
REMARK VINA RESULT:      -8.9      1.867      6.580
REMARK  Name = NuBBE_1368
REMARK  6 active torsions:
REMARK  status: ('A' for Active; 'I' for Inactive)
REMARK    1  A    between atoms: C_2  and  O_3
REMARK    2  A    between atoms: C_2  and  C_11
REMARK    3  A    between atoms: O_3  and  C_4
REMARK    4  A    between atoms: C_4  and  C_5
REMARK    5  A    between atoms: C_11  and  C_12
REMARK    6  A    between atoms: C_12  and  O_13
REMARK                            x       y       z     vdW  Elec       q    Type
REMARK                         _______ _______ _______ _____ _____    ______ ____
ROOT
ATOM      1  C   LIG A   1      -6.464   2.420 125.204  0.00  0.00    +0.164 C 
ATOM      2  C   LIG A   1      -7.793   2.080 124.564  0.00  0.00    -0.000 A 
ATOM      3  C   LIG A   1      -8.766   1.399 125.331  0.00  0.00    +0.007 A 
ATOM      4  C   LIG A   1      -9.967   0.987 124.768  0.00  0.00    +0.000 A 
ATOM      5  C   LIG A   1     -10.209   1.244 123.429  0.00  0.00    +0.001 A 
ATOM      6  C   LIG A   1      -9.266   1.941 122.666  0.00  0.00    +0.009 A 
ATOM      7  C   LIG A   1      -8.045   2.392 123.211  0.00  0.00    -0.011 A 
ATOM      8  C   LIG A   1      -7.058   3.179 122.424  0.00  0.00    -0.007 A 
ATOM      9  C   LIG A   1      -7.217   3.455 121.050  0.00  0.00    +0.009 A 
ATOM     10  C   LIG A   1      -6.289   4.221 120.333  0.00  0.00    +0.001 A 
ATOM     11  C   LIG A   1      -5.167   4.737 120.966  0.00  0.00    +0.001 A 
ATOM     12  C   LIG A   1      -4.975   4.485 122.318  0.00  0.00    +0.012 A 
ATOM     13  C   LIG A   1      -5.908   3.715 123.035  0.00  0.00    +0.028 A 
ATOM     14  C   LIG A   1      -5.645   3.476 124.471  0.00  0.00    +0.200 C 
ATOM     15  O   LIG A   1      -4.781   4.125 125.068  0.00  0.00    -0.289 OA
ENDROOT
BRANCH   1  16
ATOM     16  O   LIG A   1      -6.755   3.035 126.488  0.00  0.00    -0.375 OA
ATOM     17  H   LIG A   1      -7.582   2.615 126.803  0.00  0.00    +0.211 HD
ENDBRANCH   1  16
BRANCH   1  18
ATOM     18  C   LIG A   1      -5.608   1.188 125.520  0.00  0.00    +0.168 C 
BRANCH  18  20
ATOM     19  O   LIG A   1      -5.506   1.143 127.943  0.00  0.00    -0.251 OA
ATOM     20  C   LIG A   1      -5.832   0.614 126.896  0.00  0.00    +0.311 C 
BRANCH  20  21
ATOM     21  O   LIG A   1      -6.538  -0.550 126.782  0.00  0.00    -0.460 OA
BRANCH  21  22
ATOM     22  C   LIG A   1      -6.079  -1.442 125.758  0.00  0.00    +0.267 C 
BRANCH  22  23
ATOM     23  C   LIG A   1      -7.247  -1.869 124.906  0.00  0.00    -0.010 A 
ATOM     24  C   LIG A   1      -8.255  -2.683 125.442  0.00  0.00    +0.007 A 
ATOM     25  C   LIG A   1      -9.279  -3.166 124.628  0.00  0.00    +0.000 A 
ATOM     26  C   LIG A   1      -9.311  -2.833 123.275  0.00  0.00    +0.000 A 
ATOM     27  C   LIG A   1      -8.323  -2.010 122.736  0.00  0.00    +0.000 A 
ATOM     28  C   LIG A   1      -7.296  -1.529 123.548  0.00  0.00    +0.007 A 
ENDBRANCH  22  23
ENDBRANCH  21  22
ENDBRANCH  20  21
ENDBRANCH  18  20
ENDBRANCH   1  18
TORSDOF 6
ENDMDL
MODEL 3
REMARK VINA RESULT:      -8.8      1.710      3.647
REMARK  Name = NuBBE_1368
REMARK  6 active torsions:
REMARK  status: ('A' for Active; 'I' for Inactive)
REMARK    1  A    between atoms: C_2  and  O_3
REMARK    2  A    between atoms: C_2  and  C_11
REMARK    3  A    between atoms: O_3  and  C_4
REMARK    4  A    between atoms: C_4  and  C_5
REMARK    5  A    between atoms: C_11  and  C_12
REMARK    6  A    between atoms: C_12  and  O_13
REMARK                            x       y       z     vdW  Elec       q    Type
REMARK                         _______ _______ _______ _____ _____    ______ ____
ROOT
ATOM      1  C   LIG A   1      -8.312   1.347 125.139  0.00  0.00    +0.164 C 
ATOM      2  C   LIG A   1      -8.132   0.752 126.520  0.00  0.00    -0.000 A 
ATOM      3  C   LIG A   1      -7.914   1.620 127.614  0.00  0.00    +0.007 A 
ATOM      4  C   LIG A   1      -7.657   1.125 128.885  0.00  0.00    +0.000 A 
ATOM      5  C   LIG A   1      -7.608  -0.245 129.081  0.00  0.00    +0.001 A 
ATOM      6  C   LIG A   1      -7.850  -1.114 128.012  0.00  0.00    +0.009 A 
ATOM      7  C   LIG A   1      -8.134  -0.646 126.711  0.00  0.00    -0.011 A 
ATOM      8  C   LIG A   1      -8.444  -1.560 125.580  0.00  0.00    -0.007 A 
ATOM      9  C   LIG A   1      -8.386  -2.965 125.689  0.00  0.00    +0.009 A 
ATOM     10  C   LIG A   1      -8.707  -3.809 124.619  0.00  0.00    +0.001 A 
ATOM     11  C   LIG A   1      -9.098  -3.276 123.398  0.00  0.00    +0.001 A 
ATOM     12  C   LIG A   1      -9.166  -1.896 123.251  0.00  0.00    +0.012 A 
ATOM     13  C   LIG A   1      -8.841  -1.052 124.328  0.00  0.00    +0.028 A 
ATOM     14  C   LIG A   1      -8.927   0.408 124.107  0.00  0.00    +0.200 C 
ATOM     15  O   LIG A   1      -9.493   0.860 123.107  0.00  0.00    -0.289 OA
ENDROOT
BRANCH   1  16
ATOM     16  O   LIG A   1      -9.288   2.417 125.260  0.00  0.00    -0.375 OA
ATOM     17  H   LIG A   1      -8.775   3.250 125.211  0.00  0.00    +0.211 HD
ENDBRANCH   1  16
BRANCH   1  18
ATOM     18  C   LIG A   1      -7.041   2.005 124.589  0.00  0.00    +0.168 C 
BRANCH  18  20
ATOM     19  O   LIG A   1      -6.865   4.320 125.289  0.00  0.00    -0.251 OA
ATOM     20  C   LIG A   1      -7.137   3.500 124.431  0.00  0.00    +0.311 C 
BRANCH  20  21
ATOM     21  O   LIG A   1      -7.492   3.790 123.144  0.00  0.00    -0.460 OA
BRANCH  21  22
ATOM     22  C   LIG A   1      -6.881   2.963 122.144  0.00  0.00    +0.267 C 
BRANCH  22  23
ATOM     23  C   LIG A   1      -6.511   3.810 120.952  0.00  0.00    -0.010 A 
ATOM     24  C   LIG A   1      -5.313   4.539 120.946  0.00  0.00    +0.007 A 
ATOM     25  C   LIG A   1      -5.021   5.406 119.894  0.00  0.00    +0.000 A 
ATOM     26  C   LIG A   1      -5.916   5.544 118.835  0.00  0.00    +0.000 A 
ATOM     27  C   LIG A   1      -7.101   4.810 118.822  0.00  0.00    +0.000 A 
ATOM     28  C   LIG A   1      -7.397   3.946 119.877  0.00  0.00    +0.007 A 
ENDBRANCH  22  23
ENDBRANCH  21  22
ENDBRANCH  20  21
ENDBRANCH  18  20
ENDBRANCH   1  18
TORSDOF 6
ENDMDL
MODEL 4
REMARK VINA RESULT:      -8.8      1.939      6.941
REMARK  Name = NuBBE_1368
REMARK  6 active torsions:
REMARK  status: ('A' for Active; 'I' for Inactive)
REMARK    1  A    between atoms: C_2  and  O_3
REMARK    2  A    between atoms: C_2  and  C_11
REMARK    3  A    between atoms: O_3  and  C_4
REMARK    4  A    between atoms: C_4  and  C_5
REMARK    5  A    between atoms: C_11  and  C_12
REMARK    6  A    between atoms: C_12  and  O_13
REMARK                            x       y       z     vdW  Elec       q    Type
REMARK                         _______ _______ _______ _____ _____    ______ ____
ROOT
ATOM      1  C   LIG A   1      -8.191   2.242 123.673  0.00  0.00    +0.164 C 
ATOM      2  C   LIG A   1      -7.260   3.069 122.812  0.00  0.00    -0.000 A 
ATOM      3  C   LIG A   1      -7.585   3.270 121.451  0.00  0.00    +0.007 A 
ATOM      4  C   LIG A   1      -6.724   3.947 120.598  0.00  0.00    +0.000 A 
ATOM      5  C   LIG A   1      -5.522   4.427 121.090  0.00  0.00    +0.001 A 
ATOM      6  C   LIG A   1      -5.201   4.259 122.441  0.00  0.00    +0.009 A 
ATOM      7  C   LIG A   1      -6.061   3.595 123.341  0.00  0.00    -0.011 A 
ATOM      8  C   LIG A   1      -5.755   3.456 124.790  0.00  0.00    -0.007 A 
ATOM      9  C   LIG A   1      -4.541   3.891 125.363  0.00  0.00    +0.009 A 
ATOM     10  C   LIG A   1      -4.282   3.775 126.734  0.00  0.00    +0.001 A 
ATOM     11  C   LIG A   1      -5.230   3.218 127.583  0.00  0.00    +0.001 A 
ATOM     12  C   LIG A   1      -6.437   2.778 127.056  0.00  0.00    +0.012 A 
ATOM     13  C   LIG A   1      -6.693   2.894 125.678  0.00  0.00    +0.028 A 
ATOM     14  C   LIG A   1      -7.994   2.401 125.176  0.00  0.00    +0.200 C 
ATOM     15  O   LIG A   1      -8.908   2.129 125.960  0.00  0.00    -0.289 OA
ENDROOT
BRANCH   1  16
ATOM     16  O   LIG A   1      -9.537   2.740 123.444  0.00  0.00    -0.375 OA
ATOM     17  H   LIG A   1     -10.019   2.010 123.004  0.00  0.00    +0.211 HD
ENDBRANCH   1  16
BRANCH   1  18
ATOM     18  C   LIG A   1      -8.226   0.760 123.281  0.00  0.00    +0.168 C 
BRANCH  18  20
ATOM     19  O   LIG A   1     -10.486   0.336 122.510  0.00  0.00    -0.251 OA
ATOM     20  C   LIG A   1      -9.600   0.141 123.322  0.00  0.00    +0.311 C 
BRANCH  20  21
ATOM     21  O   LIG A   1      -9.659  -0.741 124.364  0.00  0.00    -0.460 OA
BRANCH  21  22
ATOM     22  C   LIG A   1      -8.460  -1.493 124.594  0.00  0.00    +0.267 C 
BRANCH  22  23
ATOM     23  C   LIG A   1      -8.461  -2.017 126.007  0.00  0.00    -0.010 A 
ATOM     24  C   LIG A   1      -7.827  -1.297 127.030  0.00  0.00    +0.007 A 
ATOM     25  C   LIG A   1      -7.733  -1.831 128.315  0.00  0.00    +0.000 A 
ATOM     26  C   LIG A   1      -8.281  -3.082 128.592  0.00  0.00    +0.000 A 
ATOM     27  C   LIG A   1      -8.929  -3.798 127.587  0.00  0.00    +0.000 A 
ATOM     28  C   LIG A   1      -9.020  -3.267 126.300  0.00  0.00    +0.007 A 
ENDBRANCH  22  23
ENDBRANCH  21  22
ENDBRANCH  20  21
ENDBRANCH  18  20
ENDBRANCH   1  18
TORSDOF 6
ENDMDL
MODEL 5
REMARK VINA RESULT:      -8.2      2.959      7.187
REMARK  Name = NuBBE_1368
REMARK  6 active torsions:
REMARK  status: ('A' for Active; 'I' for Inactive)
REMARK    1  A    between atoms: C_2  and  O_3
REMARK    2  A    between atoms: C_2  and  C_11
REMARK    3  A    between atoms: O_3  and  C_4
REMARK    4  A    between atoms: C_4  and  C_5
REMARK    5  A    between atoms: C_11  and  C_12
REMARK    6  A    between atoms: C_12  and  O_13
REMARK                            x       y       z     vdW  Elec       q    Type
REMARK                         _______ _______ _______ _____ _____    ______ ____
ROOT
ATOM      1  C   LIG A   1      -7.343  -0.223 127.193  0.00  0.00    +0.164 C 
ATOM      2  C   LIG A   1      -7.872  -1.525 127.757  0.00  0.00    -0.000 A 
ATOM      3  C   LIG A   1      -7.762  -1.762 129.146  0.00  0.00    +0.007 A 
ATOM      4  C   LIG A   1      -8.152  -2.973 129.703  0.00  0.00    +0.000 A 
ATOM      5  C   LIG A   1      -8.651  -3.967 128.878  0.00  0.00    +0.001 A 
ATOM      6  C   LIG A   1      -8.791  -3.735 127.506  0.00  0.00    +0.009 A 
ATOM      7  C   LIG A   1      -8.424  -2.510 126.910  0.00  0.00    -0.011 A 
ATOM      8  C   LIG A   1      -8.617  -2.233 125.461  0.00  0.00    -0.007 A 
ATOM      9  C   LIG A   1      -9.090  -3.201 124.551  0.00  0.00    +0.009 A 
ATOM     10  C   LIG A   1      -9.289  -2.913 123.195  0.00  0.00    +0.001 A 
ATOM     11  C   LIG A   1      -9.020  -1.643 122.701  0.00  0.00    +0.001 A 
ATOM     12  C   LIG A   1      -8.552  -0.663 123.566  0.00  0.00    +0.012 A 
ATOM     13  C   LIG A   1      -8.351  -0.957 124.927  0.00  0.00    +0.028 A 
ATOM     14  C   LIG A   1      -7.844   0.126 125.797  0.00  0.00    +0.200 C 
ATOM     15  O   LIG A   1      -7.833   1.296 125.402  0.00  0.00    -0.289 OA
ENDROOT
BRANCH   1  16
ATOM     16  O   LIG A   1      -7.865   0.846 128.028  0.00  0.00    -0.375 OA
ATOM     17  H   LIG A   1      -7.347   0.810 128.859  0.00  0.00    +0.211 HD
ENDBRANCH   1  16
BRANCH   1  18
ATOM     18  C   LIG A   1      -5.817  -0.102 127.271  0.00  0.00    +0.168 C 
BRANCH  18  20
ATOM     19  O   LIG A   1      -5.022   2.106 127.882  0.00  0.00    -0.251 OA
ATOM     20  C   LIG A   1      -5.328   0.973 128.207  0.00  0.00    +0.311 C 
BRANCH  20  21
ATOM     21  O   LIG A   1      -5.369   0.500 129.488  0.00  0.00    -0.460 OA
BRANCH  21  22
ATOM     22  C   LIG A   1      -4.139  -0.057 129.971  0.00  0.00    +0.267 C 
BRANCH  22  23
ATOM     23  C   LIG A   1      -4.346  -1.513 130.302  0.00  0.00    -0.010 A 
ATOM     24  C   LIG A   1      -4.142  -2.498 129.325  0.00  0.00    +0.007 A 
ATOM     25  C   LIG A   1      -4.437  -3.834 129.598  0.00  0.00    +0.000 A 
ATOM     26  C   LIG A   1      -4.927  -4.198 130.851  0.00  0.00    +0.000 A 
ATOM     27  C   LIG A   1      -5.115  -3.230 131.835  0.00  0.00    +0.000 A 
ATOM     28  C   LIG A   1      -4.825  -1.892 131.563  0.00  0.00    +0.007 A 
ENDBRANCH  22  23
ENDBRANCH  21  22
ENDBRANCH  20  21
ENDBRANCH  18  20
ENDBRANCH   1  18
TORSDOF 6
ENDMDL
MODEL 6
REMARK VINA RESULT:      -8.2      1.722      2.441
REMARK  Name = NuBBE_1368
REMARK  6 active torsions:
REMARK  status: ('A' for Active; 'I' for Inactive)
REMARK    1  A    between atoms: C_2  and  O_3
REMARK    2  A    between atoms: C_2  and  C_11
REMARK    3  A    between atoms: O_3  and  C_4
REMARK    4  A    between atoms: C_4  and  C_5
REMARK    5  A    between atoms: C_11  and  C_12
REMARK    6  A    between atoms: C_12  and  O_13
REMARK                            x       y       z     vdW  Elec       q    Type
REMARK                         _______ _______ _______ _____ _____    ______ ____
ROOT
ATOM      1  C   LIG A   1      -6.108  -0.281 126.291  0.00  0.00    +0.164 C 
ATOM      2  C   LIG A   1      -6.854  -0.912 125.135  0.00  0.00    -0.000 A 
ATOM      3  C   LIG A   1      -6.617  -0.432 123.826  0.00  0.00    +0.007 A 
ATOM      4  C   LIG A   1      -7.336  -0.915 122.741  0.00  0.00    +0.000 A 
ATOM      5  C   LIG A   1      -8.306  -1.882 122.949  0.00  0.00    +0.001 A 
ATOM      6  C   LIG A   1      -8.530  -2.385 124.235  0.00  0.00    +0.009 A 
ATOM      7  C   LIG A   1      -7.804  -1.931 125.357  0.00  0.00    -0.011 A 
ATOM      8  C   LIG A   1      -7.997  -2.496 126.719  0.00  0.00    -0.007 A 
ATOM      9  C   LIG A   1      -8.983  -3.459 127.018  0.00  0.00    +0.009 A 
ATOM     10  C   LIG A   1      -9.132  -3.998 128.302  0.00  0.00    +0.001 A 
ATOM     11  C   LIG A   1      -8.298  -3.591 129.335  0.00  0.00    +0.001 A 
ATOM     12  C   LIG A   1      -7.315  -2.643 129.079  0.00  0.00    +0.012 A 
ATOM     13  C   LIG A   1      -7.170  -2.103 127.789  0.00  0.00    +0.028 A 
ATOM     14  C   LIG A   1      -6.109  -1.093 127.581  0.00  0.00    +0.200 C 
ATOM     15  O   LIG A   1      -5.235  -0.915 128.435  0.00  0.00    -0.289 OA
ENDROOT
BRANCH   1  16
ATOM     16  O   LIG A   1      -4.705  -0.227 125.915  0.00  0.00    -0.375 OA
ATOM     17  H   LIG A   1      -4.429   0.703 126.051  0.00  0.00    +0.211 HD
ENDBRANCH   1  16
BRANCH   1  18
ATOM     18  C   LIG A   1      -6.520   1.171 126.561  0.00  0.00    +0.168 C 
BRANCH  18  20
ATOM     19  O   LIG A   1      -4.427   2.375 126.331  0.00  0.00    -0.251 OA
ATOM     20  C   LIG A   1      -5.581   2.199 125.984  0.00  0.00    +0.311 C 
BRANCH  20  21
ATOM     21  O   LIG A   1      -6.204   2.840 124.950  0.00  0.00    -0.460 OA
BRANCH  21  22
ATOM     22  C   LIG A   1      -7.524   3.321 125.239  0.00  0.00    +0.267 C 
BRANCH  22  23
ATOM     23  C   LIG A   1      -8.507   2.683 124.291  0.00  0.00    -0.010 A 
ATOM     24  C   LIG A   1      -9.478   1.792 124.772  0.00  0.00    +0.007 A 
ATOM     25  C   LIG A   1     -10.317   1.118 123.885  0.00  0.00    +0.000 A 
ATOM     26  C   LIG A   1     -10.202   1.336 122.513  0.00  0.00    +0.000 A 
ATOM     27  C   LIG A   1      -9.253   2.233 122.027  0.00  0.00    +0.000 A 
ATOM     28  C   LIG A   1      -8.409   2.904 122.912  0.00  0.00    +0.007 A 
ENDBRANCH  22  23
ENDBRANCH  21  22
ENDBRANCH  20  21
ENDBRANCH  18  20
ENDBRANCH   1  18
TORSDOF 6
ENDMDL
MODEL 7
REMARK VINA RESULT:      -8.2      8.928     10.569
REMARK  Name = NuBBE_1368
REMARK  6 active torsions:
REMARK  status: ('A' for Active; 'I' for Inactive)
REMARK    1  A    between atoms: C_2  and  O_3
REMARK    2  A    between atoms: C_2  and  C_11
REMARK    3  A    between atoms: O_3  and  C_4
REMARK    4  A    between atoms: C_4  and  C_5
REMARK    5  A    between atoms: C_11  and  C_12
REMARK    6  A    between atoms: C_12  and  O_13
REMARK                            x       y       z     vdW  Elec       q    Type
REMARK                         _______ _______ _______ _____ _____    ______ ____
ROOT
ATOM      1  C   LIG A   1      -7.197   5.699 131.450  0.00  0.00    +0.164 C 
ATOM      2  C   LIG A   1      -6.941   5.628 132.940  0.00  0.00    -0.000 A 
ATOM      3  C   LIG A   1      -8.005   5.272 133.800  0.00  0.00    +0.007 A 
ATOM      4  C   LIG A   1      -7.848   5.276 135.179  0.00  0.00    +0.000 A 
ATOM      5  C   LIG A   1      -6.627   5.642 135.720  0.00  0.00    +0.001 A 
ATOM      6  C   LIG A   1      -5.558   5.970 134.880  0.00  0.00    +0.009 A 
ATOM      7  C   LIG A   1      -5.676   5.957 133.474  0.00  0.00    -0.011 A 
ATOM      8  C   LIG A   1      -4.533   6.252 132.570  0.00  0.00    -0.007 A 
ATOM      9  C   LIG A   1      -3.268   6.662 133.041  0.00  0.00    +0.009 A 
ATOM     10  C   LIG A   1      -2.195   6.910 132.175  0.00  0.00    +0.001 A 
ATOM     11  C   LIG A   1      -2.352   6.759 130.804  0.00  0.00    +0.001 A 
ATOM     12  C   LIG A   1      -3.583   6.358 130.302  0.00  0.00    +0.012 A 
ATOM     13  C   LIG A   1      -4.658   6.111 131.174  0.00  0.00    +0.028 A 
ATOM     14  C   LIG A   1      -5.946   5.693 130.579  0.00  0.00    +0.200 C 
ATOM     15  O   LIG A   1      -6.006   5.339 129.397  0.00  0.00    -0.289 OA
ENDROOT
BRANCH   1  16
ATOM     16  O   LIG A   1      -7.885   4.474 131.077  0.00  0.00    -0.375 OA
ATOM     17  H   LIG A   1      -7.824   4.421 130.101  0.00  0.00    +0.211 HD
ENDBRANCH   1  16
BRANCH   1  18
ATOM     18  C   LIG A   1      -8.136   6.841 131.047  0.00  0.00    +0.168 C 
BRANCH  18  20
ATOM     19  O   LIG A   1      -9.302   6.061 129.068  0.00  0.00    -0.251 OA
ATOM     20  C   LIG A   1      -9.330   6.405 130.236  0.00  0.00    +0.311 C 
BRANCH  20  21
ATOM     21  O   LIG A   1     -10.430   6.372 131.045  0.00  0.00    -0.460 OA
BRANCH  21  22
ATOM     22  C   LIG A   1     -11.614   5.835 130.441  0.00  0.00    +0.267 C 
BRANCH  22  23
ATOM     23  C   LIG A   1     -12.352   6.935 129.722  0.00  0.00    -0.010 A 
ATOM     24  C   LIG A   1     -13.021   6.670 128.518  0.00  0.00    +0.007 A 
ATOM     25  C   LIG A   1     -13.613   7.707 127.797  0.00  0.00    +0.000 A 
ATOM     26  C   LIG A   1     -13.550   9.014 128.276  0.00  0.00    +0.000 A 
ATOM     27  C   LIG A   1     -12.902   9.286 129.480  0.00  0.00    +0.000 A 
ATOM     28  C   LIG A   1     -12.307   8.250 130.201  0.00  0.00    +0.007 A 
ENDBRANCH  22  23
ENDBRANCH  21  22
ENDBRANCH  20  21
ENDBRANCH  18  20
ENDBRANCH   1  18
TORSDOF 6
ENDMDL
MODEL 8
REMARK VINA RESULT:      -8.1      1.337      3.801
REMARK  Name = NuBBE_1368
REMARK  6 active torsions:
REMARK  status: ('A' for Active; 'I' for Inactive)
REMARK    1  A    between atoms: C_2  and  O_3
REMARK    2  A    between atoms: C_2  and  C_11
REMARK    3  A    between atoms: O_3  and  C_4
REMARK    4  A    between atoms: C_4  and  C_5
REMARK    5  A    between atoms: C_11  and  C_12
REMARK    6  A    between atoms: C_12  and  O_13
REMARK                            x       y       z     vdW  Elec       q    Type
REMARK                         _______ _______ _______ _____ _____    ______ ____
ROOT
ATOM      1  C   LIG A   1      -7.599   0.298 126.777  0.00  0.00    +0.164 C 
ATOM      2  C   LIG A   1      -7.836  -0.923 127.640  0.00  0.00    -0.000 A 
ATOM      3  C   LIG A   1      -7.571  -0.842 129.026  0.00  0.00    +0.007 A 
ATOM      4  C   LIG A   1      -7.689  -1.955 129.847  0.00  0.00    +0.000 A 
ATOM      5  C   LIG A   1      -8.069  -3.167 129.294  0.00  0.00    +0.001 A 
ATOM      6  C   LIG A   1      -8.361  -3.253 127.929  0.00  0.00    +0.009 A 
ATOM      7  C   LIG A   1      -8.271  -2.138 127.069  0.00  0.00    -0.011 A 
ATOM      8  C   LIG A   1      -8.630  -2.206 125.628  0.00  0.00    -0.007 A 
ATOM      9  C   LIG A   1      -8.995  -3.406 124.983  0.00  0.00    +0.009 A 
ATOM     10  C   LIG A   1      -9.355  -3.445 123.630  0.00  0.00    +0.001 A 
ATOM     11  C   LIG A   1      -9.360  -2.282 122.872  0.00  0.00    +0.001 A 
ATOM     12  C   LIG A   1      -9.005  -1.080 123.471  0.00  0.00    +0.012 A 
ATOM     13  C   LIG A   1      -8.643  -1.046 124.830  0.00  0.00    +0.028 A 
ATOM     14  C   LIG A   1      -8.269   0.263 125.409  0.00  0.00    +0.200 C 
ATOM     15  O   LIG A   1      -8.500   1.310 124.797  0.00  0.00    -0.289 OA
ENDROOT
BRANCH   1  16
ATOM     16  O   LIG A   1      -8.233   1.422 127.446  0.00  0.00    -0.375 OA
ATOM     17  H   LIG A   1      -8.622   1.970 126.734  0.00  0.00    +0.211 HD
ENDBRANCH   1  16
BRANCH   1  18
ATOM     18  C   LIG A   1      -6.118   0.674 126.650  0.00  0.00    +0.168 C 
BRANCH  18  20
ATOM     19  O   LIG A   1      -5.883   2.901 127.581  0.00  0.00    -0.251 OA
ATOM     20  C   LIG A   1      -5.856   2.158 126.617  0.00  0.00    +0.311 C 
BRANCH  20  21
ATOM     21  O   LIG A   1      -5.497   2.518 125.349  0.00  0.00    -0.460 OA
BRANCH  21  22
ATOM     22  C   LIG A   1      -5.837   3.862 124.978  0.00  0.00    +0.267 C 
BRANCH  22  23
ATOM     23  C   LIG A   1      -5.875   3.972 123.475  0.00  0.00    -0.010 A 
ATOM     24  C   LIG A   1      -6.924   3.389 122.749  0.00  0.00    +0.007 A 
ATOM     25  C   LIG A   1      -6.906   3.396 121.355  0.00  0.00    +0.000 A 
ATOM     26  C   LIG A   1      -5.846   3.993 120.674  0.00  0.00    +0.000 A 
ATOM     27  C   LIG A   1      -4.807   4.591 121.387  0.00  0.00    +0.000 A 
ATOM     28  C   LIG A   1      -4.822   4.581 122.782  0.00  0.00    +0.007 A 
ENDBRANCH  22  23
ENDBRANCH  21  22
ENDBRANCH  20  21
ENDBRANCH  18  20
ENDBRANCH   1  18
TORSDOF 6
ENDMDL
MODEL 9
REMARK VINA RESULT:      -8.1      3.362      5.686
REMARK  Name = NuBBE_1368
REMARK  6 active torsions:
REMARK  status: ('A' for Active; 'I' for Inactive)
REMARK    1  A    between atoms: C_2  and  O_3
REMARK    2  A    between atoms: C_2  and  C_11
REMARK    3  A    between atoms: O_3  and  C_4
REMARK    4  A    between atoms: C_4  and  C_5
REMARK    5  A    between atoms: C_11  and  C_12
REMARK    6  A    between atoms: C_12  and  O_13
REMARK                            x       y       z     vdW  Elec       q    Type
REMARK                         _______ _______ _______ _____ _____    ______ ____
ROOT
ATOM      1  C   LIG A   1      -7.833   1.903 125.429  0.00  0.00    +0.164 C 
ATOM      2  C   LIG A   1      -6.961   1.433 126.574  0.00  0.00    -0.000 A 
ATOM      3  C   LIG A   1      -6.970   2.163 127.785  0.00  0.00    +0.007 A 
ATOM      4  C   LIG A   1      -6.127   1.827 128.835  0.00  0.00    +0.000 A 
ATOM      5  C   LIG A   1      -5.258   0.758 128.689  0.00  0.00    +0.001 A 
ATOM      6  C   LIG A   1      -5.259   0.010 127.507  0.00  0.00    +0.009 A 
ATOM      7  C   LIG A   1      -6.117   0.312 126.427  0.00  0.00    -0.011 A 
ATOM      8  C   LIG A   1      -6.164  -0.508 125.187  0.00  0.00    -0.007 A 
ATOM      9  C   LIG A   1      -5.292  -1.590 124.949  0.00  0.00    +0.009 A 
ATOM     10  C   LIG A   1      -5.369  -2.367 123.786  0.00  0.00    +0.001 A 
ATOM     11  C   LIG A   1      -6.323  -2.085 122.817  0.00  0.00    +0.001 A 
ATOM     12  C   LIG A   1      -7.199  -1.025 123.015  0.00  0.00    +0.012 A 
ATOM     13  C   LIG A   1      -7.117  -0.248 124.184  0.00  0.00    +0.028 A 
ATOM     14  C   LIG A   1      -8.073   0.871 124.334  0.00  0.00    +0.200 C 
ATOM     15  O   LIG A   1      -9.053   0.965 123.588  0.00  0.00    -0.289 OA
ENDROOT
BRANCH   1  16
ATOM     16  O   LIG A   1      -9.158   2.146 125.975  0.00  0.00    -0.375 OA
ATOM     17  H   LIG A   1      -9.649   1.307 125.862  0.00  0.00    +0.211 HD
ENDBRANCH   1  16
BRANCH   1  18
ATOM     18  C   LIG A   1      -7.381   3.240 124.830  0.00  0.00    +0.168 C 
BRANCH  18  20
ATOM     19  O   LIG A   1      -9.077   4.812 125.560  0.00  0.00    -0.251 OA
ATOM     20  C   LIG A   1      -7.914   4.453 125.548  0.00  0.00    +0.311 C 
BRANCH  20  21
ATOM     21  O   LIG A   1      -6.899   5.033 126.256  0.00  0.00    -0.460 OA
BRANCH  21  22
ATOM     22  C   LIG A   1      -5.654   5.147 125.553  0.00  0.00    +0.267 C 
BRANCH  22  23
ATOM     23  C   LIG A   1      -4.552   4.546 126.387  0.00  0.00    -0.010 A 
ATOM     24  C   LIG A   1      -3.812   3.457 125.905  0.00  0.00    +0.007 A 
ATOM     25  C   LIG A   1      -2.865   2.832 126.717  0.00  0.00    +0.000 A 
ATOM     26  C   LIG A   1      -2.644   3.295 128.013  0.00  0.00    +0.000 A 
ATOM     27  C   LIG A   1      -3.361   4.388 128.496  0.00  0.00    +0.000 A 
ATOM     28  C   LIG A   1      -4.311   5.012 127.686  0.00  0.00    +0.007 A 
ENDBRANCH  22  23
ENDBRANCH  21  22
ENDBRANCH  20  21
ENDBRANCH  18  20
ENDBRANCH   1  18
TORSDOF 6
ENDMDL
