MODEL 1
REMARK VINA RESULT:      -6.2      0.000      0.000
REMARK  Name = NuBBE_254
REMARK  2 active torsions:
REMARK  status: ('A' for Active; 'I' for Inactive)
REMARK    1  A    between atoms: O_1  and  C_2
REMARK    2  A    between atoms: C_5  and  O_7
REMARK                            x       y       z     vdW  Elec       q    Type
REMARK                         _______ _______ _______ _____ _____    ______ ____
ROOT
ATOM      1  C   LIG A   1     -11.609   8.413 128.566  0.00  0.00    +0.128 A 
ATOM      2  C   LIG A   1     -11.202   7.339 129.370  0.00  0.00    +0.064 A 
ATOM      3  C   LIG A   1     -11.790   7.144 130.634  0.00  0.00    -0.005 A 
ATOM      4  C   LIG A   1     -11.384   5.998 131.526  0.00  0.00    +0.146 C 
ATOM      5  C   LIG A   1     -10.724   4.863 130.750  0.00  0.00    +0.044 C 
ATOM      6  C   LIG A   1      -9.604   5.389 129.866  0.00  0.00    +0.082 C 
ATOM      7  C   LIG A   1     -10.132   6.420 128.899  0.00  0.00    +0.167 C 
ATOM      8  O   LIG A   1      -9.666   6.557 127.769  0.00  0.00    -0.292 OA
ATOM      9  C   LIG A   1     -12.761   8.059 131.078  0.00  0.00    +0.007 A 
ATOM     10  C   LIG A   1     -13.146   9.136 130.279  0.00  0.00    +0.004 A 
ATOM     11  C   LIG A   1     -12.575   9.310 129.021  0.00  0.00    +0.046 A 
ENDROOT
BRANCH   1  12
ATOM     12  O   LIG A   1     -11.101   8.654 127.318  0.00  0.00    -0.506 OA
ATOM     13  H   LIG A   1     -11.853   8.882 126.725  0.00  0.00    +0.292 HD
ENDBRANCH   1  12
BRANCH   4  14
ATOM     14  O   LIG A   1     -10.475   6.467 132.514  0.00  0.00    -0.387 OA
ATOM     15  H   LIG A   1     -10.983   6.938 133.196  0.00  0.00    +0.210 HD
ENDBRANCH   4  14
TORSDOF 2
ENDMDL
MODEL 2
REMARK VINA RESULT:      -6.0      8.701     10.168
REMARK  Name = NuBBE_254
REMARK  2 active torsions:
REMARK  status: ('A' for Active; 'I' for Inactive)
REMARK    1  A    between atoms: O_1  and  C_2
REMARK    2  A    between atoms: C_5  and  O_7
REMARK                            x       y       z     vdW  Elec       q    Type
REMARK                         _______ _______ _______ _____ _____    ______ ____
ROOT
ATOM      1  C   LIG A   1      -6.413   4.624 119.865  0.00  0.00    +0.128 A 
ATOM      2  C   LIG A   1      -6.501   4.139 121.178  0.00  0.00    +0.064 A 
ATOM      3  C   LIG A   1      -7.701   3.564 121.636  0.00  0.00    -0.005 A 
ATOM      4  C   LIG A   1      -7.835   3.027 123.038  0.00  0.00    +0.146 C 
ATOM      5  C   LIG A   1      -6.483   2.706 123.670  0.00  0.00    +0.044 C 
ATOM      6  C   LIG A   1      -5.532   3.886 123.544  0.00  0.00    +0.082 C 
ATOM      7  C   LIG A   1      -5.337   4.256 122.095  0.00  0.00    +0.167 C 
ATOM      8  O   LIG A   1      -4.271   4.703 121.672  0.00  0.00    -0.292 OA
ATOM      9  C   LIG A   1      -8.805   3.514 120.766  0.00  0.00    +0.007 A 
ATOM     10  C   LIG A   1      -8.713   4.015 119.467  0.00  0.00    +0.004 A 
ATOM     11  C   LIG A   1      -7.516   4.565 119.015  0.00  0.00    +0.046 A 
ENDROOT
BRANCH   1  12
ATOM     12  O   LIG A   1      -5.275   5.175 119.341  0.00  0.00    -0.506 OA
ATOM     13  H   LIG A   1      -4.760   4.453 118.913  0.00  0.00    +0.292 HD
ENDBRANCH   1  12
BRANCH   4  14
ATOM     14  O   LIG A   1      -8.503   3.985 123.850  0.00  0.00    -0.387 OA
ATOM     15  H   LIG A   1      -8.266   3.816 124.778  0.00  0.00    +0.210 HD
ENDBRANCH   4  14
TORSDOF 2
ENDMDL
MODEL 3
REMARK VINA RESULT:      -5.9      1.759      2.289
REMARK  Name = NuBBE_254
REMARK  2 active torsions:
REMARK  status: ('A' for Active; 'I' for Inactive)
REMARK    1  A    between atoms: O_1  and  C_2
REMARK    2  A    between atoms: C_5  and  O_7
REMARK                            x       y       z     vdW  Elec       q    Type
REMARK                         _______ _______ _______ _____ _____    ______ ____
ROOT
ATOM      1  C   LIG A   1     -11.065   6.869 127.487  0.00  0.00    +0.128 A 
ATOM      2  C   LIG A   1     -11.247   6.827 128.877  0.00  0.00    +0.064 A 
ATOM      3  C   LIG A   1     -12.529   7.024 129.424  0.00  0.00    -0.005 A 
ATOM      4  C   LIG A   1     -12.769   6.981 130.912  0.00  0.00    +0.146 C 
ATOM      5  C   LIG A   1     -11.671   6.225 131.656  0.00  0.00    +0.044 C 
ATOM      6  C   LIG A   1     -10.295   6.738 131.262  0.00  0.00    +0.082 C 
ATOM      7  C   LIG A   1     -10.084   6.599 129.775  0.00  0.00    +0.167 C 
ATOM      8  O   LIG A   1      -8.978   6.366 129.290  0.00  0.00    -0.292 OA
ATOM      9  C   LIG A   1     -13.603   7.291 128.556  0.00  0.00    +0.007 A 
ATOM     10  C   LIG A   1     -13.408   7.349 127.176  0.00  0.00    +0.004 A 
ATOM     11  C   LIG A   1     -12.140   7.133 126.641  0.00  0.00    +0.046 A 
ENDROOT
BRANCH   1  12
ATOM     12  O   LIG A   1      -9.854   6.664 126.881  0.00  0.00    -0.506 OA
ATOM     13  H   LIG A   1      -9.419   5.902 127.327  0.00  0.00    +0.292 HD
ENDBRANCH   1  12
BRANCH   4  14
ATOM     14  O   LIG A   1     -12.834   8.308 131.419  0.00  0.00    -0.387 OA
ATOM     15  H   LIG A   1     -12.389   8.897 130.786  0.00  0.00    +0.210 HD
ENDBRANCH   4  14
TORSDOF 2
ENDMDL
MODEL 4
REMARK VINA RESULT:      -5.8      1.152      4.469
REMARK  Name = NuBBE_254
REMARK  2 active torsions:
REMARK  status: ('A' for Active; 'I' for Inactive)
REMARK    1  A    between atoms: O_1  and  C_2
REMARK    2  A    between atoms: C_5  and  O_7
REMARK                            x       y       z     vdW  Elec       q    Type
REMARK                         _______ _______ _______ _____ _____    ______ ____
ROOT
ATOM      1  C   LIG A   1     -10.839   6.045 131.325  0.00  0.00    +0.128 A 
ATOM      2  C   LIG A   1     -11.385   6.868 130.329  0.00  0.00    +0.064 A 
ATOM      3  C   LIG A   1     -10.798   6.909 129.051  0.00  0.00    -0.005 A 
ATOM      4  C   LIG A   1     -11.356   7.777 127.952  0.00  0.00    +0.146 C 
ATOM      5  C   LIG A   1     -12.817   8.150 128.191  0.00  0.00    +0.044 C 
ATOM      6  C   LIG A   1     -13.010   8.716 129.589  0.00  0.00    +0.082 C 
ATOM      7  C   LIG A   1     -12.567   7.717 130.630  0.00  0.00    +0.167 C 
ATOM      8  O   LIG A   1     -13.114   7.632 131.729  0.00  0.00    -0.292 OA
ATOM      9  C   LIG A   1      -9.647   6.137 128.808  0.00  0.00    +0.007 A 
ATOM     10  C   LIG A   1      -9.101   5.335 129.810  0.00  0.00    +0.004 A 
ATOM     11  C   LIG A   1      -9.700   5.284 131.067  0.00  0.00    +0.046 A 
ENDROOT
BRANCH   1  12
ATOM     12  O   LIG A   1     -11.368   5.934 132.583  0.00  0.00    -0.506 OA
ATOM     13  H   LIG A   1     -10.882   5.218 133.052  0.00  0.00    +0.292 HD
ENDBRANCH   1  12
BRANCH   4  14
ATOM     14  O   LIG A   1     -10.589   8.971 127.856  0.00  0.00    -0.387 OA
ATOM     15  H   LIG A   1     -10.267   9.197 128.745  0.00  0.00    +0.210 HD
ENDBRANCH   4  14
TORSDOF 2
ENDMDL
MODEL 5
REMARK VINA RESULT:      -5.6      1.417      3.451
REMARK  Name = NuBBE_254
REMARK  2 active torsions:
REMARK  status: ('A' for Active; 'I' for Inactive)
REMARK    1  A    between atoms: O_1  and  C_2
REMARK    2  A    between atoms: C_5  and  O_7
REMARK                            x       y       z     vdW  Elec       q    Type
REMARK                         _______ _______ _______ _____ _____    ______ ____
ROOT
ATOM      1  C   LIG A   1      -9.548   5.775 129.284  0.00  0.00    +0.128 A 
ATOM      2  C   LIG A   1     -10.674   6.592 129.458  0.00  0.00    +0.064 A 
ATOM      3  C   LIG A   1     -11.118   6.911 130.756  0.00  0.00    -0.005 A 
ATOM      4  C   LIG A   1     -12.321   7.789 130.986  0.00  0.00    +0.146 C 
ATOM      5  C   LIG A   1     -12.645   8.661 129.776  0.00  0.00    +0.044 C 
ATOM      6  C   LIG A   1     -12.719   7.825 128.508  0.00  0.00    +0.082 C 
ATOM      7  C   LIG A   1     -11.416   7.100 128.275  0.00  0.00    +0.167 C 
ATOM      8  O   LIG A   1     -10.989   6.871 127.144  0.00  0.00    -0.292 OA
ATOM      9  C   LIG A   1     -10.430   6.373 131.859  0.00  0.00    +0.007 A 
ATOM     10  C   LIG A   1      -9.321   5.547 131.675  0.00  0.00    +0.004 A 
ATOM     11  C   LIG A   1      -8.876   5.252 130.388  0.00  0.00    +0.046 A 
ENDROOT
BRANCH   1  12
ATOM     12  O   LIG A   1      -9.044   5.441 128.056  0.00  0.00    -0.506 OA
ATOM     13  H   LIG A   1      -9.307   6.146 127.420  0.00  0.00    +0.292 HD
ENDBRANCH   1  12
BRANCH   4  14
ATOM     14  O   LIG A   1     -13.451   6.977 131.279  0.00  0.00    -0.387 OA
ATOM     15  H   LIG A   1     -13.173   6.045 131.240  0.00  0.00    +0.210 HD
ENDBRANCH   4  14
TORSDOF 2
ENDMDL
MODEL 6
REMARK VINA RESULT:      -5.6      8.666     10.386
REMARK  Name = NuBBE_254
REMARK  2 active torsions:
REMARK  status: ('A' for Active; 'I' for Inactive)
REMARK    1  A    between atoms: O_1  and  C_2
REMARK    2  A    between atoms: C_5  and  O_7
REMARK                            x       y       z     vdW  Elec       q    Type
REMARK                         _______ _______ _______ _____ _____    ______ ____
ROOT
ATOM      1  C   LIG A   1      -9.364   0.716 124.965  0.00  0.00    +0.128 A 
ATOM      2  C   LIG A   1      -9.057  -0.641 124.787  0.00  0.00    +0.064 A 
ATOM      3  C   LIG A   1      -9.270  -1.253 123.538  0.00  0.00    -0.005 A 
ATOM      4  C   LIG A   1      -8.948  -2.707 123.305  0.00  0.00    +0.146 C 
ATOM      5  C   LIG A   1      -7.944  -3.250 124.319  0.00  0.00    +0.044 C 
ATOM      6  C   LIG A   1      -8.381  -2.930 125.740  0.00  0.00    +0.082 C 
ATOM      7  C   LIG A   1      -8.530  -1.440 125.925  0.00  0.00    +0.167 C 
ATOM      8  O   LIG A   1      -8.286  -0.887 126.997  0.00  0.00    -0.292 OA
ATOM      9  C   LIG A   1      -9.820  -0.488 122.494  0.00  0.00    +0.007 A 
ATOM     10  C   LIG A   1     -10.140   0.856 122.685  0.00  0.00    +0.004 A 
ATOM     11  C   LIG A   1      -9.907   1.460 123.919  0.00  0.00    +0.046 A 
ENDROOT
BRANCH   1  12
ATOM     12  O   LIG A   1      -9.162   1.385 126.142  0.00  0.00    -0.506 OA
ATOM     13  H   LIG A   1      -8.917   2.313 125.922  0.00  0.00    +0.292 HD
ENDBRANCH   1  12
BRANCH   4  14
ATOM     14  O   LIG A   1     -10.142  -3.475 123.387  0.00  0.00    -0.387 OA
ATOM     15  H   LIG A   1     -10.716  -3.074 124.062  0.00  0.00    +0.210 HD
ENDBRANCH   4  14
TORSDOF 2
ENDMDL
MODEL 7
REMARK VINA RESULT:      -5.4      7.474      9.599
REMARK  Name = NuBBE_254
REMARK  2 active torsions:
REMARK  status: ('A' for Active; 'I' for Inactive)
REMARK    1  A    between atoms: O_1  and  C_2
REMARK    2  A    between atoms: C_5  and  O_7
REMARK                            x       y       z     vdW  Elec       q    Type
REMARK                         _______ _______ _______ _____ _____    ______ ____
ROOT
ATOM      1  C   LIG A   1      -7.875   3.440 124.213  0.00  0.00    +0.128 A 
ATOM      2  C   LIG A   1      -7.108   3.617 123.052  0.00  0.00    +0.064 A 
ATOM      3  C   LIG A   1      -5.748   3.962 123.154  0.00  0.00    -0.005 A 
ATOM      4  C   LIG A   1      -4.888   4.156 121.932  0.00  0.00    +0.146 C 
ATOM      5  C   LIG A   1      -5.463   3.463 120.699  0.00  0.00    +0.044 C 
ATOM      6  C   LIG A   1      -6.923   3.838 120.499  0.00  0.00    +0.082 C 
ATOM      7  C   LIG A   1      -7.737   3.466 121.714  0.00  0.00    +0.167 C 
ATOM      8  O   LIG A   1      -8.910   3.103 121.629  0.00  0.00    -0.292 OA
ATOM      9  C   LIG A   1      -5.190   4.152 124.432  0.00  0.00    +0.007 A 
ATOM     10  C   LIG A   1      -5.966   3.991 125.580  0.00  0.00    +0.004 A 
ATOM     11  C   LIG A   1      -7.307   3.630 125.471  0.00  0.00    +0.046 A 
ENDROOT
BRANCH   1  12
ATOM     12  O   LIG A   1      -9.196   3.082 124.194  0.00  0.00    -0.506 OA
ATOM     13  H   LIG A   1      -9.728   3.880 124.415  0.00  0.00    +0.292 HD
ENDBRANCH   1  12
BRANCH   4  14
ATOM     14  O   LIG A   1      -4.763   5.547 121.658  0.00  0.00    -0.387 OA
ATOM     15  H   LIG A   1      -5.578   5.988 121.950  0.00  0.00    +0.210 HD
ENDBRANCH   4  14
TORSDOF 2
ENDMDL
MODEL 8
REMARK VINA RESULT:      -5.3      8.815     10.874
REMARK  Name = NuBBE_254
REMARK  2 active torsions:
REMARK  status: ('A' for Active; 'I' for Inactive)
REMARK    1  A    between atoms: O_1  and  C_2
REMARK    2  A    between atoms: C_5  and  O_7
REMARK                            x       y       z     vdW  Elec       q    Type
REMARK                         _______ _______ _______ _____ _____    ______ ____
ROOT
ATOM      1  C   LIG A   1      -8.924  -1.828 123.331  0.00  0.00    +0.128 A 
ATOM      2  C   LIG A   1      -8.637  -0.456 123.348  0.00  0.00    +0.064 A 
ATOM      3  C   LIG A   1      -7.359  -0.010 123.734  0.00  0.00    -0.005 A 
ATOM      4  C   LIG A   1      -7.009   1.457 123.761  0.00  0.00    +0.146 C 
ATOM      5  C   LIG A   1      -7.933   2.292 122.878  0.00  0.00    +0.044 C 
ATOM      6  C   LIG A   1      -9.392   1.995 123.187  0.00  0.00    +0.082 C 
ATOM      7  C   LIG A   1      -9.689   0.529 122.984  0.00  0.00    +0.167 C 
ATOM      8  O   LIG A   1     -10.784   0.133 122.588  0.00  0.00    -0.292 OA
ATOM      9  C   LIG A   1      -6.399  -0.960 124.126  0.00  0.00    +0.007 A 
ATOM     10  C   LIG A   1      -6.700  -2.322 124.123  0.00  0.00    +0.004 A 
ATOM     11  C   LIG A   1      -7.960  -2.757 123.720  0.00  0.00    +0.046 A 
ENDROOT
BRANCH   1  12
ATOM     12  O   LIG A   1     -10.134  -2.339 122.945  0.00  0.00    -0.506 OA
ATOM     13  H   LIG A   1     -10.314  -3.136 123.495  0.00  0.00    +0.292 HD
ENDBRANCH   1  12
BRANCH   4  14
ATOM     14  O   LIG A   1      -7.094   1.939 125.097  0.00  0.00    -0.387 OA
ATOM     15  H   LIG A   1      -7.792   1.440 125.556  0.00  0.00    +0.210 HD
ENDBRANCH   4  14
TORSDOF 2
ENDMDL
MODEL 9
REMARK VINA RESULT:      -5.2      9.625     10.843
REMARK  Name = NuBBE_254
REMARK  2 active torsions:
REMARK  status: ('A' for Active; 'I' for Inactive)
REMARK    1  A    between atoms: O_1  and  C_2
REMARK    2  A    between atoms: C_5  and  O_7
REMARK                            x       y       z     vdW  Elec       q    Type
REMARK                         _______ _______ _______ _____ _____    ______ ____
ROOT
ATOM      1  C   LIG A   1      -9.275   0.013 123.151  0.00  0.00    +0.128 A 
ATOM      2  C   LIG A   1      -8.484  -0.974 123.756  0.00  0.00    +0.064 A 
ATOM      3  C   LIG A   1      -7.277  -0.619 124.388  0.00  0.00    -0.005 A 
ATOM      4  C   LIG A   1      -6.401  -1.649 125.054  0.00  0.00    +0.146 C 
ATOM      5  C   LIG A   1      -7.167  -2.919 125.414  0.00  0.00    +0.044 C 
ATOM      6  C   LIG A   1      -7.941  -3.444 124.215  0.00  0.00    +0.082 C 
ATOM      7  C   LIG A   1      -8.906  -2.399 123.710  0.00  0.00    +0.167 C 
ATOM      8  O   LIG A   1      -9.990  -2.697 123.211  0.00  0.00    -0.292 OA
ATOM      9  C   LIG A   1      -6.874   0.729 124.371  0.00  0.00    +0.007 A 
ATOM     10  C   LIG A   1      -7.659   1.701 123.750  0.00  0.00    +0.004 A 
ATOM     11  C   LIG A   1      -8.862   1.344 123.145  0.00  0.00    +0.046 A 
ENDROOT
BRANCH   1  12
ATOM     12  O   LIG A   1     -10.470  -0.252 122.539  0.00  0.00    -0.506 OA
ATOM     13  H   LIG A   1     -11.189  -0.033 123.175  0.00  0.00    +0.292 HD
ENDBRANCH   1  12
BRANCH   4  14
ATOM     14  O   LIG A   1      -5.329  -1.992 124.184  0.00  0.00    -0.387 OA
ATOM     15  H   LIG A   1      -4.652  -2.457 124.705  0.00  0.00    +0.210 HD
ENDBRANCH   4  14
TORSDOF 2
ENDMDL
