MODEL 1
REMARK VINA RESULT:      -7.2      0.000      0.000
REMARK  Name = NuBBE_2014
REMARK  6 active torsions:
REMARK  status: ('A' for Active; 'I' for Inactive)
REMARK    1  A    between atoms: C_10  and  O_11
REMARK    2  A    between atoms: O_11  and  C_12
REMARK    3  A    between atoms: C_13  and  O_14
REMARK    4  A    between atoms: O_14  and  C_15
REMARK    5  A    between atoms: C_16  and  O_17
REMARK    6  A    between atoms: O_17  and  C_18
REMARK                            x       y       z     vdW  Elec       q    Type
REMARK                         _______ _______ _______ _____ _____    ______ ____
ROOT
ATOM      1  O   LIG A   1      -4.515   4.350 121.532  0.00  0.00    -0.285 OA
ATOM      2  C   LIG A   1      -5.573   4.020 122.053  0.00  0.00    +0.212 C 
ATOM      3  C   LIG A   1      -6.788   3.855 121.224  0.00  0.00    +0.032 A 
ATOM      4  C   LIG A   1      -6.731   4.313 119.896  0.00  0.00    +0.012 A 
ATOM      5  C   LIG A   1      -7.884   4.347 119.125  0.00  0.00    +0.001 A 
ATOM      6  C   LIG A   1      -9.086   3.949 119.696  0.00  0.00    +0.001 A 
ATOM      7  C   LIG A   1      -9.127   3.459 121.011  0.00  0.00    +0.009 A 
ATOM      8  C   LIG A   1      -7.968   3.344 121.803  0.00  0.00    -0.003 A 
ATOM      9  C   LIG A   1      -7.946   2.799 123.202  0.00  0.00    +0.038 A 
ATOM     10  C   LIG A   1      -8.925   1.927 123.763  0.00  0.00    +0.173 A 
ATOM     11  C   LIG A   1      -8.837   1.525 125.119  0.00  0.00    +0.205 A 
ATOM     12  C   LIG A   1      -7.856   2.079 125.954  0.00  0.00    +0.173 A 
ATOM     13  C   LIG A   1      -6.812   2.845 125.397  0.00  0.00    +0.032 A 
ATOM     14  C   LIG A   1      -5.718   3.276 126.171  0.00  0.00    +0.032 A 
ATOM     15  C   LIG A   1      -4.678   3.951 125.569  0.00  0.00    +0.112 A 
ATOM     16  N   LIG A   1      -4.637   4.213 124.255  0.00  0.00    -0.251 NA
ATOM     17  C   LIG A   1      -5.703   3.806 123.516  0.00  0.00    +0.119 A 
ATOM     18  C   LIG A   1      -6.839   3.158 124.019  0.00  0.00    +0.026 A 
ENDROOT
BRANCH  10  19
ATOM     19  O   LIG A   1      -9.831   1.392 122.875  0.00  0.00    -0.491 OA
ATOM     20  C   LIG A   1      -9.645   0.040 122.466  0.00  0.00    +0.277 C 
ENDBRANCH  10  19
BRANCH  11  21
ATOM     21  O   LIG A   1      -9.737   0.596 125.591  0.00  0.00    -0.488 OA
ATOM     22  C   LIG A   1      -9.222  -0.716 125.834  0.00  0.00    +0.277 C 
ENDBRANCH  11  21
BRANCH  12  23
ATOM     23  O   LIG A   1      -7.760   1.788 127.294  0.00  0.00    -0.491 OA
ATOM     24  C   LIG A   1      -8.542   2.625 128.144  0.00  0.00    +0.277 C 
ENDBRANCH  12  23
TORSDOF 3
ENDMDL
MODEL 2
REMARK VINA RESULT:      -7.2      2.271      5.376
REMARK  Name = NuBBE_2014
REMARK  6 active torsions:
REMARK  status: ('A' for Active; 'I' for Inactive)
REMARK    1  A    between atoms: C_10  and  O_11
REMARK    2  A    between atoms: O_11  and  C_12
REMARK    3  A    between atoms: C_13  and  O_14
REMARK    4  A    between atoms: O_14  and  C_15
REMARK    5  A    between atoms: C_16  and  O_17
REMARK    6  A    between atoms: O_17  and  C_18
REMARK                            x       y       z     vdW  Elec       q    Type
REMARK                         _______ _______ _______ _____ _____    ______ ____
ROOT
ATOM      1  O   LIG A   1      -6.694  -1.858 127.417  0.00  0.00    -0.285 OA
ATOM      2  C   LIG A   1      -6.936  -1.260 126.376  0.00  0.00    +0.212 C 
ATOM      3  C   LIG A   1      -7.851  -1.853 125.375  0.00  0.00    +0.032 A 
ATOM      4  C   LIG A   1      -8.226  -3.195 125.559  0.00  0.00    +0.012 A 
ATOM      5  C   LIG A   1      -8.936  -3.858 124.568  0.00  0.00    +0.001 A 
ATOM      6  C   LIG A   1      -9.240  -3.182 123.393  0.00  0.00    +0.001 A 
ATOM      7  C   LIG A   1      -8.893  -1.831 123.234  0.00  0.00    +0.009 A 
ATOM      8  C   LIG A   1      -8.233  -1.104 124.243  0.00  0.00    -0.003 A 
ATOM      9  C   LIG A   1      -7.864   0.348 124.142  0.00  0.00    +0.038 A 
ATOM     10  C   LIG A   1      -8.487   1.299 123.280  0.00  0.00    +0.173 A 
ATOM     11  C   LIG A   1      -8.013   2.633 123.220  0.00  0.00    +0.205 A 
ATOM     12  C   LIG A   1      -6.852   2.998 123.915  0.00  0.00    +0.173 A 
ATOM     13  C   LIG A   1      -6.293   2.115 124.861  0.00  0.00    +0.032 A 
ATOM     14  C   LIG A   1      -5.232   2.505 125.700  0.00  0.00    +0.032 A 
ATOM     15  C   LIG A   1      -4.771   1.638 126.667  0.00  0.00    +0.112 A 
ATOM     16  N   LIG A   1      -5.296   0.422 126.872  0.00  0.00    -0.251 NA
ATOM     17  C   LIG A   1      -6.311   0.046 126.049  0.00  0.00    +0.119 A 
ATOM     18  C   LIG A   1      -6.833   0.816 125.001  0.00  0.00    +0.026 A 
ENDROOT
BRANCH  10  19
ATOM     19  O   LIG A   1      -9.644   0.881 122.662  0.00  0.00    -0.491 OA
ATOM     20  C   LIG A   1     -10.884   1.172 123.300  0.00  0.00    +0.277 C 
ENDBRANCH  10  19
BRANCH  11  21
ATOM     21  O   LIG A   1      -8.710   3.546 122.461  0.00  0.00    -0.488 OA
ATOM     22  C   LIG A   1      -8.410   3.566 121.062  0.00  0.00    +0.277 C 
ENDBRANCH  11  21
BRANCH  12  23
ATOM     23  O   LIG A   1      -6.298   4.255 123.843  0.00  0.00    -0.491 OA
ATOM     24  C   LIG A   1      -5.321   4.418 122.818  0.00  0.00    +0.277 C 
ENDBRANCH  12  23
TORSDOF 3
ENDMDL
MODEL 3
REMARK VINA RESULT:      -7.0      3.214      6.893
REMARK  Name = NuBBE_2014
REMARK  6 active torsions:
REMARK  status: ('A' for Active; 'I' for Inactive)
REMARK    1  A    between atoms: C_10  and  O_11
REMARK    2  A    between atoms: O_11  and  C_12
REMARK    3  A    between atoms: C_13  and  O_14
REMARK    4  A    between atoms: O_14  and  C_15
REMARK    5  A    between atoms: C_16  and  O_17
REMARK    6  A    between atoms: O_17  and  C_18
REMARK                            x       y       z     vdW  Elec       q    Type
REMARK                         _______ _______ _______ _____ _____    ______ ____
ROOT
ATOM      1  O   LIG A   1      -9.580  -2.807 124.289  0.00  0.00    -0.285 OA
ATOM      2  C   LIG A   1      -9.119  -1.954 125.034  0.00  0.00    +0.212 C 
ATOM      3  C   LIG A   1      -8.644  -2.327 126.385  0.00  0.00    +0.032 A 
ATOM      4  C   LIG A   1      -8.960  -3.616 126.847  0.00  0.00    +0.012 A 
ATOM      5  C   LIG A   1      -8.699  -3.964 128.165  0.00  0.00    +0.001 A 
ATOM      6  C   LIG A   1      -8.150  -3.012 129.014  0.00  0.00    +0.001 A 
ATOM      7  C   LIG A   1      -7.803  -1.738 128.535  0.00  0.00    +0.009 A 
ATOM      8  C   LIG A   1      -7.990  -1.370 127.189  0.00  0.00    -0.003 A 
ATOM      9  C   LIG A   1      -7.611  -0.036 126.613  0.00  0.00    +0.038 A 
ATOM     10  C   LIG A   1      -6.638   0.852 127.159  0.00  0.00    +0.173 A 
ATOM     11  C   LIG A   1      -6.407   2.118 126.566  0.00  0.00    +0.205 A 
ATOM     12  C   LIG A   1      -7.218   2.558 125.511  0.00  0.00    +0.173 A 
ATOM     13  C   LIG A   1      -8.099   1.657 124.880  0.00  0.00    +0.032 A 
ATOM     14  C   LIG A   1      -8.805   2.009 123.714  0.00  0.00    +0.032 A 
ATOM     15  C   LIG A   1      -9.592   1.069 123.083  0.00  0.00    +0.112 A 
ATOM     16  N   LIG A   1      -9.716  -0.194 123.514  0.00  0.00    -0.251 NA
ATOM     17  C   LIG A   1      -9.042  -0.522 124.649  0.00  0.00    +0.119 A 
ATOM     18  C   LIG A   1      -8.253   0.354 125.406  0.00  0.00    +0.026 A 
ENDROOT
BRANCH  10  19
ATOM     19  O   LIG A   1      -5.853   0.336 128.166  0.00  0.00    -0.491 OA
ATOM     20  C   LIG A   1      -5.917   0.958 129.446  0.00  0.00    +0.277 C 
ENDBRANCH  10  19
BRANCH  11  21
ATOM     21  O   LIG A   1      -5.384   2.898 127.056  0.00  0.00    -0.488 OA
ATOM     22  C   LIG A   1      -4.112   2.747 126.418  0.00  0.00    +0.277 C 
ENDBRANCH  11  21
BRANCH  12  23
ATOM     23  O   LIG A   1      -7.095   3.803 124.939  0.00  0.00    -0.491 OA
ATOM     24  C   LIG A   1      -7.780   4.846 125.627  0.00  0.00    +0.277 C 
ENDBRANCH  12  23
TORSDOF 3
ENDMDL
MODEL 4
REMARK VINA RESULT:      -7.0      3.271      5.608
REMARK  Name = NuBBE_2014
REMARK  6 active torsions:
REMARK  status: ('A' for Active; 'I' for Inactive)
REMARK    1  A    between atoms: C_10  and  O_11
REMARK    2  A    between atoms: O_11  and  C_12
REMARK    3  A    between atoms: C_13  and  O_14
REMARK    4  A    between atoms: O_14  and  C_15
REMARK    5  A    between atoms: C_16  and  O_17
REMARK    6  A    between atoms: O_17  and  C_18
REMARK                            x       y       z     vdW  Elec       q    Type
REMARK                         _______ _______ _______ _____ _____    ______ ____
ROOT
ATOM      1  O   LIG A   1      -8.814   4.126 125.320  0.00  0.00    -0.285 OA
ATOM      2  C   LIG A   1      -8.098   3.150 125.139  0.00  0.00    +0.212 C 
ATOM      3  C   LIG A   1      -6.760   3.085 125.768  0.00  0.00    +0.032 A 
ATOM      4  C   LIG A   1      -6.268   4.259 126.362  0.00  0.00    +0.012 A 
ATOM      5  C   LIG A   1      -4.956   4.312 126.811  0.00  0.00    +0.001 A 
ATOM      6  C   LIG A   1      -4.141   3.200 126.636  0.00  0.00    +0.001 A 
ATOM      7  C   LIG A   1      -4.652   2.019 126.074  0.00  0.00    +0.009 A 
ATOM      8  C   LIG A   1      -5.995   1.903 125.670  0.00  0.00    -0.003 A 
ATOM      9  C   LIG A   1      -6.604   0.658 125.092  0.00  0.00    +0.038 A 
ATOM     10  C   LIG A   1      -6.107  -0.665 125.277  0.00  0.00    +0.173 A 
ATOM     11  C   LIG A   1      -6.726  -1.764 124.630  0.00  0.00    +0.205 A 
ATOM     12  C   LIG A   1      -7.757  -1.544 123.706  0.00  0.00    +0.173 A 
ATOM     13  C   LIG A   1      -8.342  -0.266 123.598  0.00  0.00    +0.032 A 
ATOM     14  C   LIG A   1      -9.487  -0.042 122.810  0.00  0.00    +0.032 A 
ATOM     15  C   LIG A   1     -10.075   1.205 122.798  0.00  0.00    +0.112 A 
ATOM     16  N   LIG A   1      -9.621   2.237 123.523  0.00  0.00    -0.251 NA
ATOM     17  C   LIG A   1      -8.507   2.017 124.271  0.00  0.00    +0.119 A 
ATOM     18  C   LIG A   1      -7.793   0.813 124.327  0.00  0.00    +0.026 A 
ENDROOT
BRANCH  10  19
ATOM     19  O   LIG A   1      -5.122  -0.809 126.229  0.00  0.00    -0.491 OA
ATOM     20  C   LIG A   1      -5.510  -1.238 127.530  0.00  0.00    +0.277 C 
ENDBRANCH  10  19
BRANCH  11  21
ATOM     21  O   LIG A   1      -6.286  -3.035 124.922  0.00  0.00    -0.488 OA
ATOM     22  C   LIG A   1      -5.228  -3.541 124.103  0.00  0.00    +0.277 C 
ENDBRANCH  11  21
BRANCH  12  23
ATOM     23  O   LIG A   1      -8.352  -2.556 122.990  0.00  0.00    -0.491 OA
ATOM     24  C   LIG A   1      -9.329  -3.303 123.712  0.00  0.00    +0.277 C 
ENDBRANCH  12  23
TORSDOF 3
ENDMDL
MODEL 5
REMARK VINA RESULT:      -6.6      3.149      5.828
REMARK  Name = NuBBE_2014
REMARK  6 active torsions:
REMARK  status: ('A' for Active; 'I' for Inactive)
REMARK    1  A    between atoms: C_10  and  O_11
REMARK    2  A    between atoms: O_11  and  C_12
REMARK    3  A    between atoms: C_13  and  O_14
REMARK    4  A    between atoms: O_14  and  C_15
REMARK    5  A    between atoms: C_16  and  O_17
REMARK    6  A    between atoms: O_17  and  C_18
REMARK                            x       y       z     vdW  Elec       q    Type
REMARK                         _______ _______ _______ _____ _____    ______ ____
ROOT
ATOM      1  O   LIG A   1      -8.558  -2.947 127.642  0.00  0.00    -0.285 OA
ATOM      2  C   LIG A   1      -8.024  -2.140 126.893  0.00  0.00    +0.212 C 
ATOM      3  C   LIG A   1      -8.386  -2.108 125.458  0.00  0.00    +0.032 A 
ATOM      4  C   LIG A   1      -9.165  -3.168 124.965  0.00  0.00    +0.012 A 
ATOM      5  C   LIG A   1      -9.389  -3.287 123.601  0.00  0.00    +0.001 A 
ATOM      6  C   LIG A   1      -8.810  -2.362 122.741  0.00  0.00    +0.001 A 
ATOM      7  C   LIG A   1      -8.063  -1.285 123.246  0.00  0.00    +0.009 A 
ATOM      8  C   LIG A   1      -7.871  -1.091 124.627  0.00  0.00    -0.003 A 
ATOM      9  C   LIG A   1      -7.109   0.057 125.225  0.00  0.00    +0.038 A 
ATOM     10  C   LIG A   1      -6.873   1.311 124.589  0.00  0.00    +0.173 A 
ATOM     11  C   LIG A   1      -6.083   2.302 125.224  0.00  0.00    +0.205 A 
ATOM     12  C   LIG A   1      -5.428   2.013 126.428  0.00  0.00    +0.173 A 
ATOM     13  C   LIG A   1      -5.740   0.832 127.131  0.00  0.00    +0.032 A 
ATOM     14  C   LIG A   1      -5.233   0.584 128.421  0.00  0.00    +0.032 A 
ATOM     15  C   LIG A   1      -5.631  -0.545 129.106  0.00  0.00    +0.112 A 
ATOM     16  N   LIG A   1      -6.505  -1.433 128.613  0.00  0.00    -0.251 NA
ATOM     17  C   LIG A   1      -6.980  -1.194 127.361  0.00  0.00    +0.119 A 
ATOM     18  C   LIG A   1      -6.614  -0.113 126.547  0.00  0.00    +0.026 A 
ENDROOT
BRANCH  10  19
ATOM     19  O   LIG A   1      -7.582   1.539 123.431  0.00  0.00    -0.491 OA
ATOM     20  C   LIG A   1      -8.850   2.179 123.541  0.00  0.00    +0.277 C 
ENDBRANCH  10  19
BRANCH  11  21
ATOM     21  O   LIG A   1      -5.972   3.538 124.627  0.00  0.00    -0.488 OA
ATOM     22  C   LIG A   1      -6.762   4.587 125.193  0.00  0.00    +0.277 C 
ENDBRANCH  11  21
BRANCH  12  23
ATOM     23  O   LIG A   1      -4.590   2.902 127.060  0.00  0.00    -0.491 OA
ATOM     24  C   LIG A   1      -3.250   2.908 126.573  0.00  0.00    +0.277 C 
ENDBRANCH  12  23
TORSDOF 3
ENDMDL
MODEL 6
REMARK VINA RESULT:      -6.5      5.049      9.058
REMARK  Name = NuBBE_2014
REMARK  6 active torsions:
REMARK  status: ('A' for Active; 'I' for Inactive)
REMARK    1  A    between atoms: C_10  and  O_11
REMARK    2  A    between atoms: O_11  and  C_12
REMARK    3  A    between atoms: C_13  and  O_14
REMARK    4  A    between atoms: O_14  and  C_15
REMARK    5  A    between atoms: C_16  and  O_17
REMARK    6  A    between atoms: O_17  and  C_18
REMARK                            x       y       z     vdW  Elec       q    Type
REMARK                         _______ _______ _______ _____ _____    ______ ____
ROOT
ATOM      1  O   LIG A   1      -7.872  -1.789 133.681  0.00  0.00    -0.285 OA
ATOM      2  C   LIG A   1      -7.581  -1.620 132.504  0.00  0.00    +0.212 C 
ATOM      3  C   LIG A   1      -6.912  -2.699 131.743  0.00  0.00    +0.032 A 
ATOM      4  C   LIG A   1      -6.425  -3.797 132.473  0.00  0.00    +0.012 A 
ATOM      5  C   LIG A   1      -5.638  -4.752 131.846  0.00  0.00    +0.001 A 
ATOM      6  C   LIG A   1      -5.323  -4.586 130.502  0.00  0.00    +0.001 A 
ATOM      7  C   LIG A   1      -5.845  -3.506 129.773  0.00  0.00    +0.009 A 
ATOM      8  C   LIG A   1      -6.702  -2.554 130.356  0.00  0.00    -0.003 A 
ATOM      9  C   LIG A   1      -7.315  -1.397 129.619  0.00  0.00    +0.038 A 
ATOM     10  C   LIG A   1      -7.511  -1.329 128.209  0.00  0.00    +0.173 A 
ATOM     11  C   LIG A   1      -8.041  -0.158 127.611  0.00  0.00    +0.205 A 
ATOM     12  C   LIG A   1      -8.262   0.988 128.388  0.00  0.00    +0.173 A 
ATOM     13  C   LIG A   1      -8.189   0.907 129.794  0.00  0.00    +0.032 A 
ATOM     14  C   LIG A   1      -8.568   1.986 130.616  0.00  0.00    +0.032 A 
ATOM     15  C   LIG A   1      -8.560   1.836 131.986  0.00  0.00    +0.112 A 
ATOM     16  N   LIG A   1      -8.222   0.692 132.597  0.00  0.00    -0.251 NA
ATOM     17  C   LIG A   1      -7.845  -0.341 131.798  0.00  0.00    +0.119 A 
ATOM     18  C   LIG A   1      -7.764  -0.297 130.399  0.00  0.00    +0.026 A 
ENDROOT
BRANCH  10  19
ATOM     19  O   LIG A   1      -7.313  -2.504 127.518  0.00  0.00    -0.491 OA
ATOM     20  C   LIG A   1      -8.457  -3.284 127.187  0.00  0.00    +0.277 C 
ENDBRANCH  10  19
BRANCH  11  21
ATOM     21  O   LIG A   1      -8.319  -0.173 126.263  0.00  0.00    -0.488 OA
ATOM     22  C   LIG A   1      -7.217   0.081 125.388  0.00  0.00    +0.277 C 
ENDBRANCH  11  21
BRANCH  12  23
ATOM     23  O   LIG A   1      -8.705   2.178 127.862  0.00  0.00    -0.491 OA
ATOM     24  C   LIG A   1      -7.673   3.057 127.422  0.00  0.00    +0.277 C 
ENDBRANCH  12  23
TORSDOF 3
ENDMDL
MODEL 7
REMARK VINA RESULT:      -6.3      3.423      7.820
REMARK  Name = NuBBE_2014
REMARK  6 active torsions:
REMARK  status: ('A' for Active; 'I' for Inactive)
REMARK    1  A    between atoms: C_10  and  O_11
REMARK    2  A    between atoms: O_11  and  C_12
REMARK    3  A    between atoms: C_13  and  O_14
REMARK    4  A    between atoms: O_14  and  C_15
REMARK    5  A    between atoms: C_16  and  O_17
REMARK    6  A    between atoms: O_17  and  C_18
REMARK                            x       y       z     vdW  Elec       q    Type
REMARK                         _______ _______ _______ _____ _____    ______ ____
ROOT
ATOM      1  O   LIG A   1      -7.682  -3.784 129.075  0.00  0.00    -0.285 OA
ATOM      2  C   LIG A   1      -7.878  -2.661 128.630  0.00  0.00    +0.212 C 
ATOM      3  C   LIG A   1      -7.754  -1.481 129.514  0.00  0.00    +0.032 A 
ATOM      4  C   LIG A   1      -7.644  -1.718 130.895  0.00  0.00    +0.012 A 
ATOM      5  C   LIG A   1      -7.701  -0.657 131.788  0.00  0.00    +0.001 A 
ATOM      6  C   LIG A   1      -7.896   0.627 131.293  0.00  0.00    +0.001 A 
ATOM      7  C   LIG A   1      -7.969   0.858 129.910  0.00  0.00    +0.009 A 
ATOM      8  C   LIG A   1      -7.846  -0.183 128.970  0.00  0.00    -0.003 A 
ATOM      9  C   LIG A   1      -7.885   0.008 127.481  0.00  0.00    +0.038 A 
ATOM     10  C   LIG A   1      -7.595   1.225 126.798  0.00  0.00    +0.173 A 
ATOM     11  C   LIG A   1      -7.726   1.308 125.389  0.00  0.00    +0.205 A 
ATOM     12  C   LIG A   1      -8.259   0.231 124.669  0.00  0.00    +0.173 A 
ATOM     13  C   LIG A   1      -8.439  -1.016 125.301  0.00  0.00    +0.032 A 
ATOM     14  C   LIG A   1      -8.811  -2.165 124.577  0.00  0.00    +0.032 A 
ATOM     15  C   LIG A   1      -8.895  -3.381 125.222  0.00  0.00    +0.112 A 
ATOM     16  N   LIG A   1      -8.621  -3.542 126.523  0.00  0.00    -0.251 NA
ATOM     17  C   LIG A   1      -8.276  -2.426 127.219  0.00  0.00    +0.119 A 
ATOM     18  C   LIG A   1      -8.205  -1.130 126.690  0.00  0.00    +0.026 A 
ENDROOT
BRANCH  10  19
ATOM     19  O   LIG A   1      -7.037   2.225 127.564  0.00  0.00    -0.491 OA
ATOM     20  C   LIG A   1      -5.620   2.366 127.546  0.00  0.00    +0.277 C 
ENDBRANCH  10  19
BRANCH  11  21
ATOM     21  O   LIG A   1      -7.330   2.466 124.757  0.00  0.00    -0.488 OA
ATOM     22  C   LIG A   1      -8.270   3.544 124.766  0.00  0.00    +0.277 C 
ENDBRANCH  11  21
BRANCH  12  23
ATOM     23  O   LIG A   1      -8.481   0.271 123.312  0.00  0.00    -0.491 OA
ATOM     24  C   LIG A   1      -9.765   0.758 122.932  0.00  0.00    +0.277 C 
ENDBRANCH  12  23
TORSDOF 3
ENDMDL
MODEL 8
REMARK VINA RESULT:      -6.3      3.662      6.989
REMARK  Name = NuBBE_2014
REMARK  6 active torsions:
REMARK  status: ('A' for Active; 'I' for Inactive)
REMARK    1  A    between atoms: C_10  and  O_11
REMARK    2  A    between atoms: O_11  and  C_12
REMARK    3  A    between atoms: C_13  and  O_14
REMARK    4  A    between atoms: O_14  and  C_15
REMARK    5  A    between atoms: C_16  and  O_17
REMARK    6  A    between atoms: O_17  and  C_18
REMARK                            x       y       z     vdW  Elec       q    Type
REMARK                         _______ _______ _______ _____ _____    ______ ____
ROOT
ATOM      1  O   LIG A   1      -5.448   1.960 129.725  0.00  0.00    -0.285 OA
ATOM      2  C   LIG A   1      -5.806   1.100 128.931  0.00  0.00    +0.212 C 
ATOM      3  C   LIG A   1      -5.348  -0.298 129.095  0.00  0.00    +0.032 A 
ATOM      4  C   LIG A   1      -4.324  -0.536 130.028  0.00  0.00    +0.012 A 
ATOM      5  C   LIG A   1      -3.731  -1.789 130.102  0.00  0.00    +0.001 A 
ATOM      6  C   LIG A   1      -4.149  -2.782 129.224  0.00  0.00    +0.001 A 
ATOM      7  C   LIG A   1      -5.197  -2.545 128.320  0.00  0.00    +0.009 A 
ATOM      8  C   LIG A   1      -5.869  -1.310 128.262  0.00  0.00    -0.003 A 
ATOM      9  C   LIG A   1      -7.015  -1.009 127.340  0.00  0.00    +0.038 A 
ATOM     10  C   LIG A   1      -7.873  -1.981 126.746  0.00  0.00    +0.173 A 
ATOM     11  C   LIG A   1      -8.886  -1.587 125.836  0.00  0.00    +0.205 A 
ATOM     12  C   LIG A   1      -8.975  -0.252 125.419  0.00  0.00    +0.173 A 
ATOM     13  C   LIG A   1      -8.221   0.741 126.078  0.00  0.00    +0.032 A 
ATOM     14  C   LIG A   1      -8.405   2.110 125.806  0.00  0.00    +0.032 A 
ATOM     15  C   LIG A   1      -7.707   3.050 126.533  0.00  0.00    +0.112 A 
ATOM     16  N   LIG A   1      -6.856   2.732 127.518  0.00  0.00    -0.251 NA
ATOM     17  C   LIG A   1      -6.673   1.408 127.766  0.00  0.00    +0.119 A 
ATOM     18  C   LIG A   1      -7.284   0.360 127.065  0.00  0.00    +0.026 A 
ENDROOT
BRANCH  10  19
ATOM     19  O   LIG A   1      -7.756  -3.264 127.234  0.00  0.00    -0.491 OA
ATOM     20  C   LIG A   1      -8.637  -3.662 128.279  0.00  0.00    +0.277 C 
ENDBRANCH  10  19
BRANCH  11  21
ATOM     21  O   LIG A   1      -9.763  -2.542 125.372  0.00  0.00    -0.488 OA
ATOM     22  C   LIG A   1      -9.338  -3.288 124.228  0.00  0.00    +0.277 C 
ENDBRANCH  11  21
BRANCH  12  23
ATOM     23  O   LIG A   1      -9.886   0.184 124.486  0.00  0.00    -0.491 OA
ATOM     24  C   LIG A   1      -9.427   0.137 123.137  0.00  0.00    +0.277 C 
ENDBRANCH  12  23
TORSDOF 3
ENDMDL
MODEL 9
REMARK VINA RESULT:      -6.3      3.171      7.157
REMARK  Name = NuBBE_2014
REMARK  6 active torsions:
REMARK  status: ('A' for Active; 'I' for Inactive)
REMARK    1  A    between atoms: C_10  and  O_11
REMARK    2  A    between atoms: O_11  and  C_12
REMARK    3  A    between atoms: C_13  and  O_14
REMARK    4  A    between atoms: O_14  and  C_15
REMARK    5  A    between atoms: C_16  and  O_17
REMARK    6  A    between atoms: O_17  and  C_18
REMARK                            x       y       z     vdW  Elec       q    Type
REMARK                         _______ _______ _______ _____ _____    ______ ____
ROOT
ATOM      1  O   LIG A   1      -8.326   1.125 130.764  0.00  0.00    -0.285 OA
ATOM      2  C   LIG A   1      -8.031   0.573 129.712  0.00  0.00    +0.212 C 
ATOM      3  C   LIG A   1      -7.817  -0.891 129.677  0.00  0.00    +0.032 A 
ATOM      4  C   LIG A   1      -7.734  -1.561 130.909  0.00  0.00    +0.012 A 
ATOM      5  C   LIG A   1      -7.361  -2.897 130.948  0.00  0.00    +0.001 A 
ATOM      6  C   LIG A   1      -7.050  -3.542 129.758  0.00  0.00    +0.001 A 
ATOM      7  C   LIG A   1      -7.171  -2.875 128.528  0.00  0.00    +0.009 A 
ATOM      8  C   LIG A   1      -7.612  -1.540 128.442  0.00  0.00    -0.003 A 
ATOM      9  C   LIG A   1      -7.791  -0.786 127.156  0.00  0.00    +0.038 A 
ATOM     10  C   LIG A   1      -7.993  -1.378 125.874  0.00  0.00    +0.173 A 
ATOM     11  C   LIG A   1      -8.085  -0.568 124.714  0.00  0.00    +0.205 A 
ATOM     12  C   LIG A   1      -7.857   0.812 124.802  0.00  0.00    +0.173 A 
ATOM     13  C   LIG A   1      -7.775   1.431 126.065  0.00  0.00    +0.032 A 
ATOM     14  C   LIG A   1      -7.715   2.831 126.199  0.00  0.00    +0.032 A 
ATOM     15  C   LIG A   1      -7.720   3.398 127.456  0.00  0.00    +0.112 A 
ATOM     16  N   LIG A   1      -7.797   2.680 128.584  0.00  0.00    -0.251 NA
ATOM     17  C   LIG A   1      -7.840   1.328 128.448  0.00  0.00    +0.119 A 
ATOM     18  C   LIG A   1      -7.791   0.633 127.232  0.00  0.00    +0.026 A 
ENDROOT
BRANCH  10  19
ATOM     19  O   LIG A   1      -8.250  -2.731 125.872  0.00  0.00    -0.491 OA
ATOM     20  C   LIG A   1      -9.609  -3.151 125.799  0.00  0.00    +0.277 C 
ENDBRANCH  10  19
BRANCH  11  21
ATOM     21  O   LIG A   1      -8.391  -1.168 123.514  0.00  0.00    -0.488 OA
ATOM     22  C   LIG A   1      -7.288  -1.695 122.771  0.00  0.00    +0.277 C 
ENDBRANCH  11  21
BRANCH  12  23
ATOM     23  O   LIG A   1      -7.859   1.644 123.707  0.00  0.00    -0.491 OA
ATOM     24  C   LIG A   1      -9.155   1.991 123.224  0.00  0.00    +0.277 C 
ENDBRANCH  12  23
TORSDOF 3
ENDMDL
