MODEL 1
REMARK VINA RESULT:      -6.6      0.000      0.000
REMARK  Name = NuBBE_1165
REMARK  7 active torsions:
REMARK  status: ('A' for Active; 'I' for Inactive)
REMARK    1  A    between atoms: C_1  and  C_2
REMARK    2  A    between atoms: C_2  and  C_3
REMARK    3  A    between atoms: C_4  and  C_5
REMARK    4  A    between atoms: C_5  and  C_6
REMARK    5  A    between atoms: C_7  and  O_8
REMARK    6  A    between atoms: O_8  and  C_9
REMARK    7  A    between atoms: N_12  and  C_13
REMARK                            x       y       z     vdW  Elec       q    Type
REMARK                         _______ _______ _______ _____ _____    ______ ____
ROOT
ATOM      1  C   LIG A   1      -7.406   1.199 124.343  0.00  0.00    +0.063 A 
ATOM      2  C   LIG A   1      -8.271   0.350 123.733  0.00  0.00    +0.138 A 
ATOM      3  C   LIG A   1      -8.249  -1.105 124.036  0.00  0.00    +0.041 A 
ATOM      4  C   LIG A   1      -7.348  -1.613 124.978  0.00  0.00    +0.055 A 
ATOM      5  N   LIG A   1      -6.432  -0.726 125.602  0.00  0.00    -0.311 N 
ATOM      6  C   LIG A   1      -5.501  -1.244 126.598  0.00  0.00    +0.152 C 
ATOM      7  C   LIG A   1      -6.389   0.624 125.296  0.00  0.00    +0.259 A 
ATOM      8  O   LIG A   1      -5.543   1.381 125.798  0.00  0.00    -0.267 OA
ATOM      9  C   LIG A   1      -7.370  -2.990 125.287  0.00  0.00    +0.026 A 
ATOM     10  C   LIG A   1      -8.266  -3.858 124.662  0.00  0.00    +0.002 A 
ATOM     11  C   LIG A   1      -9.158  -3.362 123.724  0.00  0.00    +0.001 A 
ATOM     12  C   LIG A   1      -9.151  -1.999 123.419  0.00  0.00    +0.013 A 
ENDROOT
BRANCH   2  13
ATOM     13  O   LIG A   1      -9.245   0.673 122.811  0.00  0.00    -0.494 OA
ATOM     14  C   LIG A   1     -10.436   1.284 123.277  0.00  0.00    +0.277 C 
ENDBRANCH   2  13
BRANCH   1  15
ATOM     15  C   LIG A   1      -7.252   2.708 124.118  0.00  0.00    +0.071 C 
BRANCH  15  19
ATOM     16  C   LIG A   1      -5.909   3.784 120.550  0.00  0.00    +0.038 C 
ATOM     17  C   LIG A   1      -6.886   3.455 121.656  0.00  0.00    -0.079 C 
ATOM     18  C   LIG A   1      -8.321   3.605 121.226  0.00  0.00    +0.038 C 
ATOM     19  C   LIG A   1      -6.450   3.055 122.873  0.00  0.00    -0.023 C 
ENDBRANCH  15  19
ENDBRANCH   1  15
TORSDOF 3
ENDMDL
MODEL 2
REMARK VINA RESULT:      -6.3      2.816      5.732
REMARK  Name = NuBBE_1165
REMARK  7 active torsions:
REMARK  status: ('A' for Active; 'I' for Inactive)
REMARK    1  A    between atoms: C_1  and  C_2
REMARK    2  A    between atoms: C_2  and  C_3
REMARK    3  A    between atoms: C_4  and  C_5
REMARK    4  A    between atoms: C_5  and  C_6
REMARK    5  A    between atoms: C_7  and  O_8
REMARK    6  A    between atoms: O_8  and  C_9
REMARK    7  A    between atoms: N_12  and  C_13
REMARK                            x       y       z     vdW  Elec       q    Type
REMARK                         _______ _______ _______ _____ _____    ______ ____
ROOT
ATOM      1  C   LIG A   1      -8.391  -1.919 125.462  0.00  0.00    +0.063 A 
ATOM      2  C   LIG A   1      -8.043  -1.861 126.772  0.00  0.00    +0.138 A 
ATOM      3  C   LIG A   1      -8.036  -0.566 127.500  0.00  0.00    +0.041 A 
ATOM      4  C   LIG A   1      -8.413   0.611 126.844  0.00  0.00    +0.055 A 
ATOM      5  N   LIG A   1      -8.760   0.551 125.468  0.00  0.00    -0.311 N 
ATOM      6  C   LIG A   1      -9.171   1.769 124.781  0.00  0.00    +0.152 C 
ATOM      7  C   LIG A   1      -8.719  -0.632 124.749  0.00  0.00    +0.259 A 
ATOM      8  O   LIG A   1      -8.961  -0.665 123.532  0.00  0.00    -0.267 OA
ATOM      9  C   LIG A   1      -8.443   1.827 127.561  0.00  0.00    +0.026 A 
ATOM     10  C   LIG A   1      -8.091   1.880 128.910  0.00  0.00    +0.002 A 
ATOM     11  C   LIG A   1      -7.712   0.719 129.564  0.00  0.00    +0.001 A 
ATOM     12  C   LIG A   1      -7.689  -0.491 128.866  0.00  0.00    +0.013 A 
ENDROOT
BRANCH   2  13
ATOM     13  O   LIG A   1      -7.680  -2.914 127.585  0.00  0.00    -0.494 OA
ATOM     14  C   LIG A   1      -8.696  -3.782 128.057  0.00  0.00    +0.277 C 
ENDBRANCH   2  13
BRANCH   1  15
ATOM     15  C   LIG A   1      -8.406  -3.149 124.546  0.00  0.00    +0.071 C 
BRANCH  15  19
ATOM     16  C   LIG A   1      -4.676  -4.248 123.793  0.00  0.00    +0.038 C 
ATOM     17  C   LIG A   1      -5.945  -3.426 123.760  0.00  0.00    -0.079 C 
ATOM     18  C   LIG A   1      -5.812  -2.186 122.917  0.00  0.00    +0.038 C 
ATOM     19  C   LIG A   1      -7.052  -3.831 124.425  0.00  0.00    -0.023 C 
ENDBRANCH  15  19
ENDBRANCH   1  15
TORSDOF 3
ENDMDL
MODEL 3
REMARK VINA RESULT:      -6.2      8.115     10.058
REMARK  Name = NuBBE_1165
REMARK  7 active torsions:
REMARK  status: ('A' for Active; 'I' for Inactive)
REMARK    1  A    between atoms: C_1  and  C_2
REMARK    2  A    between atoms: C_2  and  C_3
REMARK    3  A    between atoms: C_4  and  C_5
REMARK    4  A    between atoms: C_5  and  C_6
REMARK    5  A    between atoms: C_7  and  O_8
REMARK    6  A    between atoms: O_8  and  C_9
REMARK    7  A    between atoms: N_12  and  C_13
REMARK                            x       y       z     vdW  Elec       q    Type
REMARK                         _______ _______ _______ _____ _____    ______ ____
ROOT
ATOM      1  C   LIG A   1      -9.646   6.190 130.606  0.00  0.00    +0.063 A 
ATOM      2  C   LIG A   1      -9.817   6.179 129.260  0.00  0.00    +0.138 A 
ATOM      3  C   LIG A   1     -11.087   6.654 128.652  0.00  0.00    +0.041 A 
ATOM      4  C   LIG A   1     -12.116   7.143 129.465  0.00  0.00    +0.055 A 
ATOM      5  N   LIG A   1     -11.942   7.137 130.874  0.00  0.00    -0.311 N 
ATOM      6  C   LIG A   1     -13.001   7.660 131.727  0.00  0.00    +0.152 C 
ATOM      7  C   LIG A   1     -10.792   6.645 131.472  0.00  0.00    +0.259 A 
ATOM      8  O   LIG A   1     -10.674   6.584 132.706  0.00  0.00    -0.267 OA
ATOM      9  C   LIG A   1     -13.299   7.631 128.869  0.00  0.00    +0.026 A 
ATOM     10  C   LIG A   1     -13.467   7.625 127.484  0.00  0.00    +0.002 A 
ATOM     11  C   LIG A   1     -12.454   7.138 126.674  0.00  0.00    +0.001 A 
ATOM     12  C   LIG A   1     -11.275   6.662 127.253  0.00  0.00    +0.013 A 
ENDROOT
BRANCH   2  13
ATOM     13  O   LIG A   1      -8.907   5.770 128.307  0.00  0.00    -0.494 OA
ATOM     14  C   LIG A   1      -8.458   4.426 128.339  0.00  0.00    +0.277 C 
ENDBRANCH   2  13
BRANCH   1  15
ATOM     15  C   LIG A   1      -8.433   5.695 131.404  0.00  0.00    +0.071 C 
BRANCH  15  19
ATOM     16  C   LIG A   1      -4.918   7.410 130.779  0.00  0.00    +0.038 C 
ATOM     17  C   LIG A   1      -5.982   6.336 130.830  0.00  0.00    -0.079 C 
ATOM     18  C   LIG A   1      -5.484   5.003 130.341  0.00  0.00    +0.038 C 
ATOM     19  C   LIG A   1      -7.223   6.609 131.295  0.00  0.00    -0.023 C 
ENDBRANCH  15  19
ENDBRANCH   1  15
TORSDOF 3
ENDMDL
MODEL 4
REMARK VINA RESULT:      -6.1      2.016      5.860
REMARK  Name = NuBBE_1165
REMARK  7 active torsions:
REMARK  status: ('A' for Active; 'I' for Inactive)
REMARK    1  A    between atoms: C_1  and  C_2
REMARK    2  A    between atoms: C_2  and  C_3
REMARK    3  A    between atoms: C_4  and  C_5
REMARK    4  A    between atoms: C_5  and  C_6
REMARK    5  A    between atoms: C_7  and  O_8
REMARK    6  A    between atoms: O_8  and  C_9
REMARK    7  A    between atoms: N_12  and  C_13
REMARK                            x       y       z     vdW  Elec       q    Type
REMARK                         _______ _______ _______ _____ _____    ______ ____
ROOT
ATOM      1  C   LIG A   1      -7.163  -0.370 125.032  0.00  0.00    +0.063 A 
ATOM      2  C   LIG A   1      -6.175   0.367 125.600  0.00  0.00    +0.138 A 
ATOM      3  C   LIG A   1      -6.025   1.811 125.280  0.00  0.00    +0.041 A 
ATOM      4  C   LIG A   1      -6.920   2.434 124.403  0.00  0.00    +0.055 A 
ATOM      5  N   LIG A   1      -7.941   1.657 123.796  0.00  0.00    -0.311 N 
ATOM      6  C   LIG A   1      -8.888   2.301 122.894  0.00  0.00    +0.152 C 
ATOM      7  C   LIG A   1      -8.070   0.297 124.030  0.00  0.00    +0.259 A 
ATOM      8  O   LIG A   1      -8.925  -0.388 123.445  0.00  0.00    -0.267 OA
ATOM      9  C   LIG A   1      -6.789   3.815 124.143  0.00  0.00    +0.026 A 
ATOM     10  C   LIG A   1      -5.776   4.570 124.735  0.00  0.00    +0.002 A 
ATOM     11  C   LIG A   1      -4.883   3.958 125.601  0.00  0.00    +0.001 A 
ATOM     12  C   LIG A   1      -5.010   2.594 125.873  0.00  0.00    +0.013 A 
ENDROOT
BRANCH   2  13
ATOM     13  O   LIG A   1      -5.231  -0.064 126.507  0.00  0.00    -0.494 OA
ATOM     14  C   LIG A   1      -5.643  -0.317 127.840  0.00  0.00    +0.277 C 
ENDBRANCH   2  13
BRANCH   1  15
ATOM     15  C   LIG A   1      -7.436  -1.869 125.204  0.00  0.00    +0.071 C 
BRANCH  15  19
ATOM     16  C   LIG A   1      -4.412  -3.795 123.522  0.00  0.00    +0.038 C 
ATOM     17  C   LIG A   1      -5.607  -2.879 123.660  0.00  0.00    -0.079 C 
ATOM     18  C   LIG A   1      -5.971  -2.200 122.367  0.00  0.00    +0.038 C 
ATOM     19  C   LIG A   1      -6.247  -2.746 124.845  0.00  0.00    -0.023 C 
ENDBRANCH  15  19
ENDBRANCH   1  15
TORSDOF 3
ENDMDL
MODEL 5
REMARK VINA RESULT:      -6.1      1.690      5.288
REMARK  Name = NuBBE_1165
REMARK  7 active torsions:
REMARK  status: ('A' for Active; 'I' for Inactive)
REMARK    1  A    between atoms: C_1  and  C_2
REMARK    2  A    between atoms: C_2  and  C_3
REMARK    3  A    between atoms: C_4  and  C_5
REMARK    4  A    between atoms: C_5  and  C_6
REMARK    5  A    between atoms: C_7  and  O_8
REMARK    6  A    between atoms: O_8  and  C_9
REMARK    7  A    between atoms: N_12  and  C_13
REMARK                            x       y       z     vdW  Elec       q    Type
REMARK                         _______ _______ _______ _____ _____    ______ ____
ROOT
ATOM      1  C   LIG A   1      -8.303   0.390 125.401  0.00  0.00    +0.063 A 
ATOM      2  C   LIG A   1      -8.120   0.897 124.156  0.00  0.00    +0.138 A 
ATOM      3  C   LIG A   1      -7.238   2.072 123.935  0.00  0.00    +0.041 A 
ATOM      4  C   LIG A   1      -6.563   2.656 125.013  0.00  0.00    +0.055 A 
ATOM      5  N   LIG A   1      -6.769   2.136 126.317  0.00  0.00    -0.311 N 
ATOM      6  C   LIG A   1      -6.056   2.727 127.443  0.00  0.00    +0.152 C 
ATOM      7  C   LIG A   1      -7.631   1.079 126.561  0.00  0.00    +0.259 A 
ATOM      8  O   LIG A   1      -7.855   0.672 127.713  0.00  0.00    -0.267 OA
ATOM      9  C   LIG A   1      -5.695   3.744 124.780  0.00  0.00    +0.026 A 
ATOM     10  C   LIG A   1      -5.504   4.257 123.496  0.00  0.00    +0.002 A 
ATOM     11  C   LIG A   1      -6.174   3.686 122.425  0.00  0.00    +0.001 A 
ATOM     12  C   LIG A   1      -7.028   2.602 122.644  0.00  0.00    +0.013 A 
ENDROOT
BRANCH   2  13
ATOM     13  O   LIG A   1      -8.671   0.433 122.979  0.00  0.00    -0.494 OA
ATOM     14  C   LIG A   1     -10.036   0.711 122.719  0.00  0.00    +0.277 C 
ENDBRANCH   2  13
BRANCH   1  15
ATOM     15  C   LIG A   1      -9.208  -0.775 125.820  0.00  0.00    +0.071 C 
BRANCH  15  19
ATOM     16  C   LIG A   1      -7.864  -4.338 124.732  0.00  0.00    +0.038 C 
ATOM     17  C   LIG A   1      -8.642  -3.042 124.685  0.00  0.00    -0.079 C 
ATOM     18  C   LIG A   1      -9.502  -2.926 123.455  0.00  0.00    +0.038 C 
ATOM     19  C   LIG A   1      -8.543  -2.136 125.685  0.00  0.00    -0.023 C 
ENDBRANCH  15  19
ENDBRANCH   1  15
TORSDOF 3
ENDMDL
MODEL 6
REMARK VINA RESULT:      -6.1      7.105      8.387
REMARK  Name = NuBBE_1165
REMARK  7 active torsions:
REMARK  status: ('A' for Active; 'I' for Inactive)
REMARK    1  A    between atoms: C_1  and  C_2
REMARK    2  A    between atoms: C_2  and  C_3
REMARK    3  A    between atoms: C_4  and  C_5
REMARK    4  A    between atoms: C_5  and  C_6
REMARK    5  A    between atoms: C_7  and  O_8
REMARK    6  A    between atoms: O_8  and  C_9
REMARK    7  A    between atoms: N_12  and  C_13
REMARK                            x       y       z     vdW  Elec       q    Type
REMARK                         _______ _______ _______ _____ _____    ______ ____
ROOT
ATOM      1  C   LIG A   1      -9.072   5.283 130.282  0.00  0.00    +0.063 A 
ATOM      2  C   LIG A   1      -9.253   4.459 131.345  0.00  0.00    +0.138 A 
ATOM      3  C   LIG A   1      -9.030   2.995 131.217  0.00  0.00    +0.041 A 
ATOM      4  C   LIG A   1      -8.603   2.452 130.000  0.00  0.00    +0.055 A 
ATOM      5  N   LIG A   1      -8.431   3.314 128.886  0.00  0.00    -0.311 N 
ATOM      6  C   LIG A   1      -7.970   2.759 127.619  0.00  0.00    +0.152 C 
ATOM      7  C   LIG A   1      -8.688   4.673 128.958  0.00  0.00    +0.259 A 
ATOM      8  O   LIG A   1      -8.597   5.409 127.962  0.00  0.00    -0.267 OA
ATOM      9  C   LIG A   1      -8.353   1.066 129.909  0.00  0.00    +0.026 A 
ATOM     10  C   LIG A   1      -8.534   0.223 131.006  0.00  0.00    +0.002 A 
ATOM     11  C   LIG A   1      -8.961   0.754 132.213  0.00  0.00    +0.001 A 
ATOM     12  C   LIG A   1      -9.202   2.126 132.317  0.00  0.00    +0.013 A 
ENDROOT
BRANCH   2  13
ATOM     13  O   LIG A   1      -9.634   4.816 132.621  0.00  0.00    -0.494 OA
ATOM     14  C   LIG A   1      -8.710   5.531 133.424  0.00  0.00    +0.277 C 
ENDBRANCH   2  13
BRANCH   1  15
ATOM     15  C   LIG A   1      -9.303   6.798 130.216  0.00  0.00    +0.071 C 
BRANCH  15  19
ATOM     16  C   LIG A   1     -12.899   8.088 129.173  0.00  0.00    +0.038 C 
ATOM     17  C   LIG A   1     -11.411   7.828 129.101  0.00  0.00    -0.079 C 
ATOM     18  C   LIG A   1     -10.786   8.378 127.847  0.00  0.00    +0.038 C 
ATOM     19  C   LIG A   1     -10.770   7.182 130.102  0.00  0.00    -0.023 C 
ENDBRANCH  15  19
ENDBRANCH   1  15
TORSDOF 3
ENDMDL
MODEL 7
REMARK VINA RESULT:      -6.0      2.514      5.900
REMARK  Name = NuBBE_1165
REMARK  7 active torsions:
REMARK  status: ('A' for Active; 'I' for Inactive)
REMARK    1  A    between atoms: C_1  and  C_2
REMARK    2  A    between atoms: C_2  and  C_3
REMARK    3  A    between atoms: C_4  and  C_5
REMARK    4  A    between atoms: C_5  and  C_6
REMARK    5  A    between atoms: C_7  and  O_8
REMARK    6  A    between atoms: O_8  and  C_9
REMARK    7  A    between atoms: N_12  and  C_13
REMARK                            x       y       z     vdW  Elec       q    Type
REMARK                         _______ _______ _______ _____ _____    ______ ____
ROOT
ATOM      1  C   LIG A   1      -6.895  -1.350 127.278  0.00  0.00    +0.063 A 
ATOM      2  C   LIG A   1      -7.615  -2.375 126.757  0.00  0.00    +0.138 A 
ATOM      3  C   LIG A   1      -8.214  -2.271 125.401  0.00  0.00    +0.041 A 
ATOM      4  C   LIG A   1      -8.020  -1.117 124.633  0.00  0.00    +0.055 A 
ATOM      5  N   LIG A   1      -7.281  -0.038 125.187  0.00  0.00    -0.311 N 
ATOM      6  C   LIG A   1      -7.059   1.160 124.388  0.00  0.00    +0.152 C 
ATOM      7  C   LIG A   1      -6.761  -0.084 126.471  0.00  0.00    +0.259 A 
ATOM      8  O   LIG A   1      -6.172   0.887 126.971  0.00  0.00    -0.267 OA
ATOM      9  C   LIG A   1      -8.559  -1.051 123.331  0.00  0.00    +0.026 A 
ATOM     10  C   LIG A   1      -9.293  -2.111 122.796  0.00  0.00    +0.002 A 
ATOM     11  C   LIG A   1      -9.493  -3.254 123.553  0.00  0.00    +0.001 A 
ATOM     12  C   LIG A   1      -8.955  -3.334 124.840  0.00  0.00    +0.013 A 
ENDROOT
BRANCH   2  13
ATOM     13  O   LIG A   1      -7.879  -3.593 127.347  0.00  0.00    -0.494 OA
ATOM     14  C   LIG A   1      -8.811  -3.636 128.415  0.00  0.00    +0.277 C 
ENDBRANCH   2  13
BRANCH   1  15
ATOM     15  C   LIG A   1      -6.252  -1.262 128.667  0.00  0.00    +0.071 C 
BRANCH  15  19
ATOM     16  C   LIG A   1      -3.168  -3.668 129.287  0.00  0.00    +0.038 C 
ATOM     17  C   LIG A   1      -4.581  -3.134 129.342  0.00  0.00    -0.079 C 
ATOM     18  C   LIG A   1      -5.511  -4.031 130.114  0.00  0.00    +0.038 C 
ATOM     19  C   LIG A   1      -4.902  -1.958 128.754  0.00  0.00    -0.023 C 
ENDBRANCH  15  19
ENDBRANCH   1  15
TORSDOF 3
ENDMDL
MODEL 8
REMARK VINA RESULT:      -6.0      7.537      8.707
REMARK  Name = NuBBE_1165
REMARK  7 active torsions:
REMARK  status: ('A' for Active; 'I' for Inactive)
REMARK    1  A    between atoms: C_1  and  C_2
REMARK    2  A    between atoms: C_2  and  C_3
REMARK    3  A    between atoms: C_4  and  C_5
REMARK    4  A    between atoms: C_5  and  C_6
REMARK    5  A    between atoms: C_7  and  O_8
REMARK    6  A    between atoms: O_8  and  C_9
REMARK    7  A    between atoms: N_12  and  C_13
REMARK                            x       y       z     vdW  Elec       q    Type
REMARK                         _______ _______ _______ _____ _____    ______ ____
ROOT
ATOM      1  C   LIG A   1      -9.282   5.385 130.603  0.00  0.00    +0.063 A 
ATOM      2  C   LIG A   1      -9.031   4.262 129.885  0.00  0.00    +0.138 A 
ATOM      3  C   LIG A   1      -8.758   2.970 130.567  0.00  0.00    +0.041 A 
ATOM      4  C   LIG A   1      -8.782   2.893 131.964  0.00  0.00    +0.055 A 
ATOM      5  N   LIG A   1      -9.028   4.074 132.714  0.00  0.00    -0.311 N 
ATOM      6  C   LIG A   1      -9.072   4.000 134.169  0.00  0.00    +0.152 C 
ATOM      7  C   LIG A   1      -9.227   5.304 132.107  0.00  0.00    +0.259 A 
ATOM      8  O   LIG A   1      -9.377   6.342 132.770  0.00  0.00    -0.267 OA
ATOM      9  C   LIG A   1      -8.564   1.650 132.595  0.00  0.00    +0.026 A 
ATOM     10  C   LIG A   1      -8.314   0.495 131.853  0.00  0.00    +0.002 A 
ATOM     11  C   LIG A   1      -8.283   0.565 130.469  0.00  0.00    +0.001 A 
ATOM     12  C   LIG A   1      -8.508   1.789 129.834  0.00  0.00    +0.013 A 
ENDROOT
BRANCH   2  13
ATOM     13  O   LIG A   1      -9.002   4.139 128.512  0.00  0.00    -0.494 OA
ATOM     14  C   LIG A   1      -7.784   4.405 127.838  0.00  0.00    +0.277 C 
ENDBRANCH   2  13
BRANCH   1  15
ATOM     15  C   LIG A   1      -9.532   6.803 130.075  0.00  0.00    +0.071 C 
BRANCH  15  19
ATOM     16  C   LIG A   1     -13.278   7.266 128.875  0.00  0.00    +0.038 C 
ATOM     17  C   LIG A   1     -12.098   7.113 129.807  0.00  0.00    -0.079 C 
ATOM     18  C   LIG A   1     -12.496   7.150 131.258  0.00  0.00    +0.038 C 
ATOM     19  C   LIG A   1     -10.846   6.945 129.322  0.00  0.00    -0.023 C 
ENDBRANCH  15  19
ENDBRANCH   1  15
TORSDOF 3
ENDMDL
MODEL 9
REMARK VINA RESULT:      -5.9      2.318      6.010
REMARK  Name = NuBBE_1165
REMARK  7 active torsions:
REMARK  status: ('A' for Active; 'I' for Inactive)
REMARK    1  A    between atoms: C_1  and  C_2
REMARK    2  A    between atoms: C_2  and  C_3
REMARK    3  A    between atoms: C_4  and  C_5
REMARK    4  A    between atoms: C_5  and  C_6
REMARK    5  A    between atoms: C_7  and  O_8
REMARK    6  A    between atoms: O_8  and  C_9
REMARK    7  A    between atoms: N_12  and  C_13
REMARK                            x       y       z     vdW  Elec       q    Type
REMARK                         _______ _______ _______ _____ _____    ______ ____
ROOT
ATOM      1  C   LIG A   1      -6.998  -1.585 125.835  0.00  0.00    +0.063 A 
ATOM      2  C   LIG A   1      -7.161  -0.246 125.691  0.00  0.00    +0.138 A 
ATOM      3  C   LIG A   1      -8.072   0.301 124.652  0.00  0.00    +0.041 A 
ATOM      4  C   LIG A   1      -8.794  -0.566 123.823  0.00  0.00    +0.055 A 
ATOM      5  N   LIG A   1      -8.608  -1.966 123.964  0.00  0.00    -0.311 N 
ATOM      6  C   LIG A   1      -9.368  -2.877 123.117  0.00  0.00    +0.152 C 
ATOM      7  C   LIG A   1      -7.721  -2.503 124.884  0.00  0.00    +0.259 A 
ATOM      8  O   LIG A   1      -7.517  -3.725 124.957  0.00  0.00    -0.267 OA
ATOM      9  C   LIG A   1      -9.687  -0.031 122.870  0.00  0.00    +0.026 A 
ATOM     10  C   LIG A   1      -9.857   1.347 122.730  0.00  0.00    +0.002 A 
ATOM     11  C   LIG A   1      -9.142   2.210 123.545  0.00  0.00    +0.001 A 
ATOM     12  C   LIG A   1      -8.262   1.691 124.498  0.00  0.00    +0.013 A 
ENDROOT
BRANCH   2  13
ATOM     13  O   LIG A   1      -6.566   0.751 126.435  0.00  0.00    -0.494 OA
ATOM     14  C   LIG A   1      -5.196   1.034 126.207  0.00  0.00    +0.277 C 
ENDBRANCH   2  13
BRANCH   1  15
ATOM     15  C   LIG A   1      -6.070  -2.320 126.810  0.00  0.00    +0.071 C 
BRANCH  15  19
ATOM     16  C   LIG A   1      -7.751  -2.529 130.391  0.00  0.00    +0.038 C 
ATOM     17  C   LIG A   1      -7.520  -2.778 128.918  0.00  0.00    -0.079 C 
ATOM     18  C   LIG A   1      -8.546  -3.701 128.318  0.00  0.00    +0.038 C 
ATOM     19  C   LIG A   1      -6.493  -2.186 128.266  0.00  0.00    -0.023 C 
ENDBRANCH  15  19
ENDBRANCH   1  15
TORSDOF 3
ENDMDL
