MODEL 1
REMARK VINA RESULT:      -8.0      0.000      0.000
REMARK  Name = NuBBE_1814
REMARK  9 active torsions:
REMARK  status: ('A' for Active; 'I' for Inactive)
REMARK    1  A    between atoms: C_6  and  O_7
REMARK    2  A    between atoms: O_7  and  C_8
REMARK    3  A    between atoms: C_8  and  C_9
REMARK    4  A    between atoms: C_24  and  O_25
REMARK    5  A    between atoms: O_25  and  C_26
REMARK    6  A    between atoms: C_26  and  C_27
REMARK    7  A    between atoms: C_29  and  O_30
REMARK    8  A    between atoms: O_30  and  C_31
REMARK    9  A    between atoms: C_31  and  C_32
REMARK                            x       y       z     vdW  Elec       q    Type
REMARK                         _______ _______ _______ _____ _____    ______ ____
ROOT
ATOM      1  O   LIG A   1      -5.807   5.415 130.248  0.00  0.00    -0.289 OA
ATOM      2  C   LIG A   1      -6.789   4.894 129.729  0.00  0.00    +0.199 C 
ATOM      3  C   LIG A   1      -8.145   5.186 130.219  0.00  0.00    +0.062 A 
ATOM      4  C   LIG A   1      -8.417   6.314 131.002  0.00  0.00    +0.019 A 
ATOM      5  C   LIG A   1      -9.736   6.585 131.386  0.00  0.00    +0.047 A 
ATOM      6  C   LIG A   1     -10.764   5.720 130.991  0.00  0.00    +0.135 A 
ATOM      7  C   LIG A   1     -10.477   4.601 130.215  0.00  0.00    +0.092 A 
ATOM      8  C   LIG A   1      -9.169   4.325 129.841  0.00  0.00    +0.136 A 
ATOM      9  O   LIG A   1      -9.011   3.198 129.087  0.00  0.00    -0.480 OA
ATOM     10  C   LIG A   1      -7.658   2.773 128.890  0.00  0.00    +0.240 C 
ATOM     11  C   LIG A   1      -6.718   3.930 128.559  0.00  0.00    +0.234 C 
ATOM     12  O   LIG A   1      -7.147   4.580 127.362  0.00  0.00    -0.360 OA
ATOM     13  C   LIG A   1      -7.054   3.735 126.204  0.00  0.00    +0.200 C 
ATOM     14  C   LIG A   1      -7.462   2.286 126.410  0.00  0.00    +0.031 A 
ATOM     15  C   LIG A   1      -7.710   1.816 127.717  0.00  0.00    +0.005 A 
ATOM     16  C   LIG A   1      -8.073   0.478 127.924  0.00  0.00    +0.011 A 
ATOM     17  C   LIG A   1      -8.131  -0.421 126.856  0.00  0.00    +0.050 A 
ATOM     18  C   LIG A   1      -7.886   0.021 125.553  0.00  0.00    +0.174 A 
ATOM     19  C   LIG A   1      -7.556   1.374 125.330  0.00  0.00    +0.179 A 
ENDROOT
BRANCH   6  20
ATOM     20  O   LIG A   1     -12.063   6.028 131.461  0.00  0.00    -0.426 OA
BRANCH  20  21
ATOM     21  C   LIG A   1     -12.770   7.176 131.088  0.00  0.00    +0.309 C 
ATOM     22  C   LIG A   1     -13.088   7.118 129.632  0.00  0.00    +0.136 C 
ATOM     23  O   LIG A   1     -13.090   8.122 131.796  0.00  0.00    -0.251 OA
ENDBRANCH  20  21
ENDBRANCH   6  20
BRANCH  18  24
ATOM     24  O   LIG A   1      -7.781  -0.935 124.507  0.00  0.00    -0.422 OA
BRANCH  24  25
ATOM     25  C   LIG A   1      -8.913  -1.566 123.983  0.00  0.00    +0.309 C 
ATOM     26  C   LIG A   1      -8.961  -3.013 124.406  0.00  0.00    +0.136 C 
ATOM     27  O   LIG A   1      -9.750  -1.046 123.253  0.00  0.00    -0.251 OA
ENDBRANCH  24  25
ENDBRANCH  18  24
BRANCH  19  28
ATOM     28  O   LIG A   1      -7.459   1.890 124.021  0.00  0.00    -0.422 OA
BRANCH  28  29
ATOM     29  C   LIG A   1      -8.603   2.345 123.399  0.00  0.00    +0.309 C 
ATOM     30  C   LIG A   1      -8.279   3.094 122.158  0.00  0.00    +0.136 C 
ATOM     31  O   LIG A   1      -9.739   2.109 123.761  0.00  0.00    -0.251 OA
ENDBRANCH  28  29
ENDBRANCH  19  28
TORSDOF 6
ENDMDL
MODEL 2
REMARK VINA RESULT:      -7.7      5.583      7.542
REMARK  Name = NuBBE_1814
REMARK  9 active torsions:
REMARK  status: ('A' for Active; 'I' for Inactive)
REMARK    1  A    between atoms: C_6  and  O_7
REMARK    2  A    between atoms: O_7  and  C_8
REMARK    3  A    between atoms: C_8  and  C_9
REMARK    4  A    between atoms: C_24  and  O_25
REMARK    5  A    between atoms: O_25  and  C_26
REMARK    6  A    between atoms: C_26  and  C_27
REMARK    7  A    between atoms: C_29  and  O_30
REMARK    8  A    between atoms: O_30  and  C_31
REMARK    9  A    between atoms: C_31  and  C_32
REMARK                            x       y       z     vdW  Elec       q    Type
REMARK                         _______ _______ _______ _____ _____    ______ ____
ROOT
ATOM      1  O   LIG A   1      -3.562  -3.618 131.220  0.00  0.00    -0.289 OA
ATOM      2  C   LIG A   1      -4.726  -3.247 131.109  0.00  0.00    +0.199 C 
ATOM      3  C   LIG A   1      -5.610  -3.176 132.282  0.00  0.00    +0.062 A 
ATOM      4  C   LIG A   1      -5.101  -3.148 133.586  0.00  0.00    +0.019 A 
ATOM      5  C   LIG A   1      -5.981  -3.010 134.666  0.00  0.00    +0.047 A 
ATOM      6  C   LIG A   1      -7.358  -2.913 134.431  0.00  0.00    +0.135 A 
ATOM      7  C   LIG A   1      -7.849  -2.945 133.129  0.00  0.00    +0.092 A 
ATOM      8  C   LIG A   1      -6.979  -3.090 132.056  0.00  0.00    +0.136 A 
ATOM      9  O   LIG A   1      -7.578  -3.115 130.829  0.00  0.00    -0.480 OA
ATOM     10  C   LIG A   1      -6.731  -3.495 129.739  0.00  0.00    +0.240 C 
ATOM     11  C   LIG A   1      -5.359  -2.826 129.795  0.00  0.00    +0.234 C 
ATOM     12  O   LIG A   1      -5.507  -1.406 129.756  0.00  0.00    -0.360 OA
ATOM     13  C   LIG A   1      -6.055  -0.936 128.513  0.00  0.00    +0.200 C 
ATOM     14  C   LIG A   1      -7.169  -1.783 127.922  0.00  0.00    +0.031 A 
ATOM     15  C   LIG A   1      -7.462  -3.040 128.493  0.00  0.00    +0.005 A 
ATOM     16  C   LIG A   1      -8.477  -3.838 127.948  0.00  0.00    +0.011 A 
ATOM     17  C   LIG A   1      -9.167  -3.435 126.802  0.00  0.00    +0.050 A 
ATOM     18  C   LIG A   1      -8.892  -2.196 126.216  0.00  0.00    +0.174 A 
ATOM     19  C   LIG A   1      -7.897  -1.369 126.778  0.00  0.00    +0.179 A 
ENDROOT
BRANCH   6  20
ATOM     20  O   LIG A   1      -8.189  -2.830 135.573  0.00  0.00    -0.426 OA
BRANCH  20  21
ATOM     21  C   LIG A   1      -8.159  -3.755 136.623  0.00  0.00    +0.309 C 
ATOM     22  C   LIG A   1      -8.852  -5.008 136.206  0.00  0.00    +0.136 C 
ATOM     23  O   LIG A   1      -7.672  -3.608 137.736  0.00  0.00    -0.251 OA
ENDBRANCH  20  21
ENDBRANCH   6  20
BRANCH  18  24
ATOM     24  O   LIG A   1      -9.476  -1.879 124.961  0.00  0.00    -0.422 OA
BRANCH  24  25
ATOM     25  C   LIG A   1      -9.220  -2.653 123.825  0.00  0.00    +0.309 C 
ATOM     26  C   LIG A   1      -7.838  -2.372 123.290  0.00  0.00    +0.136 C 
ATOM     27  O   LIG A   1     -10.004  -3.435 123.299  0.00  0.00    -0.251 OA
ENDBRANCH  24  25
ENDBRANCH  18  24
BRANCH  19  28
ATOM     28  O   LIG A   1      -7.703  -0.051 126.315  0.00  0.00    -0.422 OA
BRANCH  28  29
ATOM     29  C   LIG A   1      -8.678   0.892 126.563  0.00  0.00    +0.309 C 
ATOM     30  C   LIG A   1      -8.554   1.446 127.936  0.00  0.00    +0.136 C 
ATOM     31  O   LIG A   1      -9.494   1.287 125.753  0.00  0.00    -0.251 OA
ENDBRANCH  28  29
ENDBRANCH  19  28
TORSDOF 6
ENDMDL
MODEL 3
REMARK VINA RESULT:      -7.7      3.665      8.534
REMARK  Name = NuBBE_1814
REMARK  9 active torsions:
REMARK  status: ('A' for Active; 'I' for Inactive)
REMARK    1  A    between atoms: C_6  and  O_7
REMARK    2  A    between atoms: O_7  and  C_8
REMARK    3  A    between atoms: C_8  and  C_9
REMARK    4  A    between atoms: C_24  and  O_25
REMARK    5  A    between atoms: O_25  and  C_26
REMARK    6  A    between atoms: C_26  and  C_27
REMARK    7  A    between atoms: C_29  and  O_30
REMARK    8  A    between atoms: O_30  and  C_31
REMARK    9  A    between atoms: C_31  and  C_32
REMARK                            x       y       z     vdW  Elec       q    Type
REMARK                         _______ _______ _______ _____ _____    ______ ____
ROOT
ATOM      1  O   LIG A   1      -6.662  -2.944 131.446  0.00  0.00    -0.289 OA
ATOM      2  C   LIG A   1      -6.793  -2.064 130.600  0.00  0.00    +0.199 C 
ATOM      3  C   LIG A   1      -7.438  -2.349 129.309  0.00  0.00    +0.062 A 
ATOM      4  C   LIG A   1      -8.252  -3.473 129.126  0.00  0.00    +0.019 A 
ATOM      5  C   LIG A   1      -8.899  -3.662 127.899  0.00  0.00    +0.047 A 
ATOM      6  C   LIG A   1      -8.716  -2.732 126.868  0.00  0.00    +0.135 A 
ATOM      7  C   LIG A   1      -7.902  -1.621 127.065  0.00  0.00    +0.092 A 
ATOM      8  C   LIG A   1      -7.252  -1.435 128.278  0.00  0.00    +0.136 A 
ATOM      9  O   LIG A   1      -6.477  -0.314 128.350  0.00  0.00    -0.480 OA
ATOM     10  C   LIG A   1      -5.623  -0.228 129.497  0.00  0.00    +0.240 C 
ATOM     11  C   LIG A   1      -6.329  -0.632 130.790  0.00  0.00    +0.234 C 
ATOM     12  O   LIG A   1      -7.452   0.221 131.020  0.00  0.00    -0.360 OA
ATOM     13  C   LIG A   1      -7.076   1.587 131.258  0.00  0.00    +0.200 C 
ATOM     14  C   LIG A   1      -5.944   2.120 130.397  0.00  0.00    +0.031 A 
ATOM     15  C   LIG A   1      -5.217   1.229 129.580  0.00  0.00    +0.005 A 
ATOM     16  C   LIG A   1      -4.160   1.704 128.791  0.00  0.00    +0.011 A 
ATOM     17  C   LIG A   1      -3.771   3.044 128.848  0.00  0.00    +0.050 A 
ATOM     18  C   LIG A   1      -4.474   3.946 129.653  0.00  0.00    +0.174 A 
ATOM     19  C   LIG A   1      -5.562   3.484 130.424  0.00  0.00    +0.179 A 
ENDROOT
BRANCH   6  20
ATOM     20  O   LIG A   1      -9.358  -3.018 125.640  0.00  0.00    -0.426 OA
BRANCH  20  21
ATOM     21  C   LIG A   1      -8.685  -3.474 124.501  0.00  0.00    +0.309 C 
ATOM     22  C   LIG A   1      -9.515  -3.211 123.290  0.00  0.00    +0.136 C 
ATOM     23  O   LIG A   1      -7.595  -4.028 124.447  0.00  0.00    -0.251 OA
ENDBRANCH  20  21
ENDBRANCH   6  20
BRANCH  18  24
ATOM     24  O   LIG A   1      -3.963   5.259 129.832  0.00  0.00    -0.422 OA
BRANCH  24  25
ATOM     25  C   LIG A   1      -3.629   6.063 128.738  0.00  0.00    +0.309 C 
ATOM     26  C   LIG A   1      -2.170   6.443 128.781  0.00  0.00    +0.136 C 
ATOM     27  O   LIG A   1      -4.403   6.446 127.867  0.00  0.00    -0.251 OA
ENDBRANCH  24  25
ENDBRANCH  18  24
BRANCH  19  28
ATOM     28  O   LIG A   1      -6.392   4.387 131.121  0.00  0.00    -0.422 OA
BRANCH  28  29
ATOM     29  C   LIG A   1      -7.146   5.290 130.400  0.00  0.00    +0.309 C 
ATOM     30  C   LIG A   1      -7.230   6.598 131.098  0.00  0.00    +0.136 C 
ATOM     31  O   LIG A   1      -7.622   5.085 129.300  0.00  0.00    -0.251 OA
ENDBRANCH  28  29
ENDBRANCH  19  28
TORSDOF 6
ENDMDL
MODEL 4
REMARK VINA RESULT:      -7.6      3.182      8.872
REMARK  Name = NuBBE_1814
REMARK  9 active torsions:
REMARK  status: ('A' for Active; 'I' for Inactive)
REMARK    1  A    between atoms: C_6  and  O_7
REMARK    2  A    between atoms: O_7  and  C_8
REMARK    3  A    between atoms: C_8  and  C_9
REMARK    4  A    between atoms: C_24  and  O_25
REMARK    5  A    between atoms: O_25  and  C_26
REMARK    6  A    between atoms: C_26  and  C_27
REMARK    7  A    between atoms: C_29  and  O_30
REMARK    8  A    between atoms: O_30  and  C_31
REMARK    9  A    between atoms: C_31  and  C_32
REMARK                            x       y       z     vdW  Elec       q    Type
REMARK                         _______ _______ _______ _____ _____    ______ ____
ROOT
ATOM      1  O   LIG A   1      -7.127  -2.622 131.613  0.00  0.00    -0.289 OA
ATOM      2  C   LIG A   1      -7.497  -1.801 130.779  0.00  0.00    +0.199 C 
ATOM      3  C   LIG A   1      -7.882  -2.222 129.424  0.00  0.00    +0.062 A 
ATOM      4  C   LIG A   1      -8.214  -3.551 129.133  0.00  0.00    +0.019 A 
ATOM      5  C   LIG A   1      -8.641  -3.888 127.843  0.00  0.00    +0.047 A 
ATOM      6  C   LIG A   1      -8.721  -2.896 126.858  0.00  0.00    +0.135 A 
ATOM      7  C   LIG A   1      -8.385  -1.580 127.162  0.00  0.00    +0.092 A 
ATOM      8  C   LIG A   1      -7.953  -1.244 128.438  0.00  0.00    +0.136 A 
ATOM      9  O   LIG A   1      -7.646   0.074 128.614  0.00  0.00    -0.480 OA
ATOM     10  C   LIG A   1      -6.983   0.394 129.843  0.00  0.00    +0.240 C 
ATOM     11  C   LIG A   1      -7.601  -0.311 131.048  0.00  0.00    +0.234 C 
ATOM     12  O   LIG A   1      -8.972   0.067 131.184  0.00  0.00    -0.360 OA
ATOM     13  C   LIG A   1      -9.139   1.461 131.491  0.00  0.00    +0.200 C 
ATOM     14  C   LIG A   1      -8.209   2.414 130.760  0.00  0.00    +0.031 A 
ATOM     15  C   LIG A   1      -7.141   1.892 129.999  0.00  0.00    +0.005 A 
ATOM     16  C   LIG A   1      -6.266   2.760 129.332  0.00  0.00    +0.011 A 
ATOM     17  C   LIG A   1      -6.396   4.145 129.459  0.00  0.00    +0.050 A 
ATOM     18  C   LIG A   1      -7.444   4.686 130.211  0.00  0.00    +0.174 A 
ATOM     19  C   LIG A   1      -8.352   3.821 130.857  0.00  0.00    +0.179 A 
ENDROOT
BRANCH   6  20
ATOM     20  O   LIG A   1      -9.108  -3.321 125.565  0.00  0.00    -0.426 OA
BRANCH  20  21
ATOM     21  C   LIG A   1      -8.242  -3.351 124.467  0.00  0.00    +0.309 C 
ATOM     22  C   LIG A   1      -8.964  -2.885 123.247  0.00  0.00    +0.136 C 
ATOM     23  O   LIG A   1      -7.073  -3.711 124.445  0.00  0.00    -0.251 OA
ENDBRANCH  20  21
ENDBRANCH   6  20
BRANCH  18  24
ATOM     24  O   LIG A   1      -7.460   6.082 130.470  0.00  0.00    -0.422 OA
BRANCH  24  25
ATOM     25  C   LIG A   1      -6.324   6.747 130.941  0.00  0.00    +0.309 C 
ATOM     26  C   LIG A   1      -5.933   6.233 132.304  0.00  0.00    +0.136 C 
ATOM     27  O   LIG A   1      -5.728   7.647 130.360  0.00  0.00    -0.251 OA
ENDBRANCH  24  25
ENDBRANCH  18  24
BRANCH  19  28
ATOM     28  O   LIG A   1      -9.509   4.324 131.488  0.00  0.00    -0.422 OA
BRANCH  28  29
ATOM     29  C   LIG A   1      -9.374   4.995 132.685  0.00  0.00    +0.309 C 
ATOM     30  C   LIG A   1      -8.890   4.090 133.758  0.00  0.00    +0.136 C 
ATOM     31  O   LIG A   1      -9.549   6.188 132.843  0.00  0.00    -0.251 OA
ENDBRANCH  28  29
ENDBRANCH  19  28
TORSDOF 6
ENDMDL
MODEL 5
REMARK VINA RESULT:      -7.4      3.481      9.033
REMARK  Name = NuBBE_1814
REMARK  9 active torsions:
REMARK  status: ('A' for Active; 'I' for Inactive)
REMARK    1  A    between atoms: C_6  and  O_7
REMARK    2  A    between atoms: O_7  and  C_8
REMARK    3  A    between atoms: C_8  and  C_9
REMARK    4  A    between atoms: C_24  and  O_25
REMARK    5  A    between atoms: O_25  and  C_26
REMARK    6  A    between atoms: C_26  and  C_27
REMARK    7  A    between atoms: C_29  and  O_30
REMARK    8  A    between atoms: O_30  and  C_31
REMARK    9  A    between atoms: C_31  and  C_32
REMARK                            x       y       z     vdW  Elec       q    Type
REMARK                         _______ _______ _______ _____ _____    ______ ____
ROOT
ATOM      1  O   LIG A   1      -5.761  -0.213 126.640  0.00  0.00    -0.289 OA
ATOM      2  C   LIG A   1      -5.675   1.008 126.549  0.00  0.00    +0.199 C 
ATOM      3  C   LIG A   1      -6.028   1.699 125.299  0.00  0.00    +0.062 A 
ATOM      4  C   LIG A   1      -6.817   1.086 124.318  0.00  0.00    +0.019 A 
ATOM      5  C   LIG A   1      -7.183   1.811 123.177  0.00  0.00    +0.047 A 
ATOM      6  C   LIG A   1      -6.747   3.133 123.027  0.00  0.00    +0.135 A 
ATOM      7  C   LIG A   1      -5.962   3.727 124.010  0.00  0.00    +0.092 A 
ATOM      8  C   LIG A   1      -5.590   3.008 125.138  0.00  0.00    +0.136 A 
ATOM      9  O   LIG A   1      -4.814   3.694 126.028  0.00  0.00    -0.480 OA
ATOM     10  C   LIG A   1      -4.232   2.906 127.073  0.00  0.00    +0.240 C 
ATOM     11  C   LIG A   1      -5.218   1.911 127.680  0.00  0.00    +0.234 C 
ATOM     12  O   LIG A   1      -6.336   2.607 128.233  0.00  0.00    -0.360 OA
ATOM     13  C   LIG A   1      -5.978   3.443 129.346  0.00  0.00    +0.200 C 
ATOM     14  C   LIG A   1      -4.668   4.199 129.209  0.00  0.00    +0.031 A 
ATOM     15  C   LIG A   1      -3.807   3.903 128.130  0.00  0.00    +0.005 A 
ATOM     16  C   LIG A   1      -2.588   4.582 128.000  0.00  0.00    +0.011 A 
ATOM     17  C   LIG A   1      -2.179   5.509 128.961  0.00  0.00    +0.050 A 
ATOM     18  C   LIG A   1      -3.012   5.816 130.041  0.00  0.00    +0.174 A 
ATOM     19  C   LIG A   1      -4.258   5.164 130.162  0.00  0.00    +0.179 A 
ENDROOT
BRANCH   6  20
ATOM     20  O   LIG A   1      -7.112   3.784 121.824  0.00  0.00    -0.426 OA
BRANCH  20  21
ATOM     21  C   LIG A   1      -6.274   3.875 120.707  0.00  0.00    +0.309 C 
ATOM     22  C   LIG A   1      -7.079   4.237 119.505  0.00  0.00    +0.136 C 
ATOM     23  O   LIG A   1      -5.066   3.680 120.659  0.00  0.00    -0.251 OA
ENDBRANCH  20  21
ENDBRANCH   6  20
BRANCH  18  24
ATOM     24  O   LIG A   1      -2.511   6.626 131.094  0.00  0.00    -0.422 OA
BRANCH  24  25
ATOM     25  C   LIG A   1      -1.598   6.123 132.026  0.00  0.00    +0.309 C 
ATOM     26  C   LIG A   1      -0.577   7.171 132.391  0.00  0.00    +0.136 C 
ATOM     27  O   LIG A   1      -1.588   4.982 132.476  0.00  0.00    -0.251 OA
ENDBRANCH  24  25
ENDBRANCH  18  24
BRANCH  19  28
ATOM     28  O   LIG A   1      -5.191   5.560 131.142  0.00  0.00    -0.422 OA
BRANCH  28  29
ATOM     29  C   LIG A   1      -6.002   6.647 130.888  0.00  0.00    +0.309 C 
ATOM     30  C   LIG A   1      -7.328   6.492 131.539  0.00  0.00    +0.136 C 
ATOM     31  O   LIG A   1      -5.667   7.644 130.279  0.00  0.00    -0.251 OA
ENDBRANCH  28  29
ENDBRANCH  19  28
TORSDOF 6
ENDMDL
MODEL 6
REMARK VINA RESULT:      -7.4      2.619      3.280
REMARK  Name = NuBBE_1814
REMARK  9 active torsions:
REMARK  status: ('A' for Active; 'I' for Inactive)
REMARK    1  A    between atoms: C_6  and  O_7
REMARK    2  A    between atoms: O_7  and  C_8
REMARK    3  A    between atoms: C_8  and  C_9
REMARK    4  A    between atoms: C_24  and  O_25
REMARK    5  A    between atoms: O_25  and  C_26
REMARK    6  A    between atoms: C_26  and  C_27
REMARK    7  A    between atoms: C_29  and  O_30
REMARK    8  A    between atoms: O_30  and  C_31
REMARK    9  A    between atoms: C_31  and  C_32
REMARK                            x       y       z     vdW  Elec       q    Type
REMARK                         _______ _______ _______ _____ _____    ______ ____
ROOT
ATOM      1  O   LIG A   1      -2.626   6.357 128.114  0.00  0.00    -0.289 OA
ATOM      2  C   LIG A   1      -3.652   5.691 128.209  0.00  0.00    +0.199 C 
ATOM      3  C   LIG A   1      -4.477   5.745 129.425  0.00  0.00    +0.062 A 
ATOM      4  C   LIG A   1      -4.367   6.797 130.343  0.00  0.00    +0.019 A 
ATOM      5  C   LIG A   1      -5.223   6.838 131.450  0.00  0.00    +0.047 A 
ATOM      6  C   LIG A   1      -6.170   5.823 131.631  0.00  0.00    +0.135 A 
ATOM      7  C   LIG A   1      -6.266   4.783 130.712  0.00  0.00    +0.092 A 
ATOM      8  C   LIG A   1      -5.412   4.734 129.618  0.00  0.00    +0.136 A 
ATOM      9  O   LIG A   1      -5.596   3.664 128.791  0.00  0.00    -0.480 OA
ATOM     10  C   LIG A   1      -4.583   3.473 127.796  0.00  0.00    +0.240 C 
ATOM     11  C   LIG A   1      -4.171   4.776 127.115  0.00  0.00    +0.234 C 
ATOM     12  O   LIG A   1      -5.301   5.371 126.474  0.00  0.00    -0.360 OA
ATOM     13  C   LIG A   1      -5.811   4.576 125.392  0.00  0.00    +0.200 C 
ATOM     14  C   LIG A   1      -5.838   3.076 125.630  0.00  0.00    +0.031 A 
ATOM     15  C   LIG A   1      -5.204   2.544 126.773  0.00  0.00    +0.005 A 
ATOM     16  C   LIG A   1      -5.208   1.161 126.998  0.00  0.00    +0.011 A 
ATOM     17  C   LIG A   1      -5.778   0.287 126.069  0.00  0.00    +0.050 A 
ATOM     18  C   LIG A   1      -6.409   0.789 124.927  0.00  0.00    +0.174 A 
ATOM     19  C   LIG A   1      -6.442   2.183 124.710  0.00  0.00    +0.179 A 
ENDROOT
BRANCH   6  20
ATOM     20  O   LIG A   1      -6.964   5.902 132.801  0.00  0.00    -0.426 OA
BRANCH  20  21
ATOM     21  C   LIG A   1      -8.354   5.753 132.806  0.00  0.00    +0.309 C 
ATOM     22  C   LIG A   1      -8.726   4.552 133.609  0.00  0.00    +0.136 C 
ATOM     23  O   LIG A   1      -9.185   6.453 132.242  0.00  0.00    -0.251 OA
ENDBRANCH  20  21
ENDBRANCH   6  20
BRANCH  18  24
ATOM     24  O   LIG A   1      -6.829  -0.115 123.914  0.00  0.00    -0.422 OA
BRANCH  24  25
ATOM     25  C   LIG A   1      -7.956  -0.923 124.085  0.00  0.00    +0.309 C 
ATOM     26  C   LIG A   1      -7.819  -2.202 123.297  0.00  0.00    +0.136 C 
ATOM     27  O   LIG A   1      -8.946  -0.641 124.752  0.00  0.00    -0.251 OA
ENDBRANCH  24  25
ENDBRANCH  18  24
BRANCH  19  28
ATOM     28  O   LIG A   1      -7.203   2.735 123.658  0.00  0.00    -0.422 OA
BRANCH  28  29
ATOM     29  C   LIG A   1      -8.579   2.713 123.751  0.00  0.00    +0.309 C 
ATOM     30  C   LIG A   1      -9.199   2.329 122.457  0.00  0.00    +0.136 C 
ATOM     31  O   LIG A   1      -9.216   2.905 124.768  0.00  0.00    -0.251 OA
ENDBRANCH  28  29
ENDBRANCH  19  28
TORSDOF 6
ENDMDL
MODEL 7
REMARK VINA RESULT:      -7.3      3.315      8.921
REMARK  Name = NuBBE_1814
REMARK  9 active torsions:
REMARK  status: ('A' for Active; 'I' for Inactive)
REMARK    1  A    between atoms: C_6  and  O_7
REMARK    2  A    between atoms: O_7  and  C_8
REMARK    3  A    between atoms: C_8  and  C_9
REMARK    4  A    between atoms: C_24  and  O_25
REMARK    5  A    between atoms: O_25  and  C_26
REMARK    6  A    between atoms: C_26  and  C_27
REMARK    7  A    between atoms: C_29  and  O_30
REMARK    8  A    between atoms: O_30  and  C_31
REMARK    9  A    between atoms: C_31  and  C_32
REMARK                            x       y       z     vdW  Elec       q    Type
REMARK                         _______ _______ _______ _____ _____    ______ ____
ROOT
ATOM      1  O   LIG A   1      -9.745   1.840 123.955  0.00  0.00    -0.289 OA
ATOM      2  C   LIG A   1      -8.734   1.595 124.606  0.00  0.00    +0.199 C 
ATOM      3  C   LIG A   1      -8.079   0.281 124.516  0.00  0.00    +0.062 A 
ATOM      4  C   LIG A   1      -8.319  -0.589 123.446  0.00  0.00    +0.019 A 
ATOM      5  C   LIG A   1      -7.617  -1.798 123.371  0.00  0.00    +0.047 A 
ATOM      6  C   LIG A   1      -6.694  -2.127 124.370  0.00  0.00    +0.135 A 
ATOM      7  C   LIG A   1      -6.468  -1.253 125.429  0.00  0.00    +0.092 A 
ATOM      8  C   LIG A   1      -7.168  -0.057 125.511  0.00  0.00    +0.136 A 
ATOM      9  O   LIG A   1      -6.867   0.714 126.597  0.00  0.00    -0.480 OA
ATOM     10  C   LIG A   1      -7.737   1.829 126.821  0.00  0.00    +0.240 C 
ATOM     11  C   LIG A   1      -8.067   2.589 125.539  0.00  0.00    +0.234 C 
ATOM     12  O   LIG A   1      -6.867   3.087 124.945  0.00  0.00    -0.360 OA
ATOM     13  C   LIG A   1      -6.211   4.074 125.757  0.00  0.00    +0.200 C 
ATOM     14  C   LIG A   1      -6.203   3.800 127.251  0.00  0.00    +0.031 A 
ATOM     15  C   LIG A   1      -6.978   2.739 127.765  0.00  0.00    +0.005 A 
ATOM     16  C   LIG A   1      -6.992   2.483 129.143  0.00  0.00    +0.011 A 
ATOM     17  C   LIG A   1      -6.296   3.308 130.030  0.00  0.00    +0.050 A 
ATOM     18  C   LIG A   1      -5.524   4.368 129.546  0.00  0.00    +0.174 A 
ATOM     19  C   LIG A   1      -5.474   4.611 128.157  0.00  0.00    +0.179 A 
ENDROOT
BRANCH   6  20
ATOM     20  O   LIG A   1      -6.063  -3.389 124.256  0.00  0.00    -0.426 OA
BRANCH  20  21
ATOM     21  C   LIG A   1      -4.804  -3.577 123.676  0.00  0.00    +0.309 C 
ATOM     22  C   LIG A   1      -4.501  -5.035 123.598  0.00  0.00    +0.136 C 
ATOM     23  O   LIG A   1      -4.021  -2.718 123.292  0.00  0.00    -0.251 OA
ENDBRANCH  20  21
ENDBRANCH   6  20
BRANCH  18  24
ATOM     24  O   LIG A   1      -4.965   5.295 130.466  0.00  0.00    -0.422 OA
BRANCH  24  25
ATOM     25  C   LIG A   1      -5.583   6.521 130.727  0.00  0.00    +0.309 C 
ATOM     26  C   LIG A   1      -6.585   6.386 131.847  0.00  0.00    +0.136 C 
ATOM     27  O   LIG A   1      -5.379   7.569 130.124  0.00  0.00    -0.251 OA
ENDBRANCH  24  25
ENDBRANCH  18  24
BRANCH  19  28
ATOM     28  O   LIG A   1      -4.585   5.565 127.619  0.00  0.00    -0.422 OA
BRANCH  28  29
ATOM     29  C   LIG A   1      -3.232   5.303 127.648  0.00  0.00    +0.309 C 
ATOM     30  C   LIG A   1      -2.476   6.441 128.231  0.00  0.00    +0.136 C 
ATOM     31  O   LIG A   1      -2.713   4.254 127.317  0.00  0.00    -0.251 OA
ENDBRANCH  28  29
ENDBRANCH  19  28
TORSDOF 6
ENDMDL
MODEL 8
REMARK VINA RESULT:      -7.2      3.083      5.206
REMARK  Name = NuBBE_1814
REMARK  9 active torsions:
REMARK  status: ('A' for Active; 'I' for Inactive)
REMARK    1  A    between atoms: C_6  and  O_7
REMARK    2  A    between atoms: O_7  and  C_8
REMARK    3  A    between atoms: C_8  and  C_9
REMARK    4  A    between atoms: C_24  and  O_25
REMARK    5  A    between atoms: O_25  and  C_26
REMARK    6  A    between atoms: C_26  and  C_27
REMARK    7  A    between atoms: C_29  and  O_30
REMARK    8  A    between atoms: O_30  and  C_31
REMARK    9  A    between atoms: C_31  and  C_32
REMARK                            x       y       z     vdW  Elec       q    Type
REMARK                         _______ _______ _______ _____ _____    ______ ____
ROOT
ATOM      1  O   LIG A   1      -9.460   3.208 132.458  0.00  0.00    -0.289 OA
ATOM      2  C   LIG A   1      -8.674   3.072 131.525  0.00  0.00    +0.199 C 
ATOM      3  C   LIG A   1      -7.719   4.137 131.181  0.00  0.00    +0.062 A 
ATOM      4  C   LIG A   1      -7.391   5.152 132.088  0.00  0.00    +0.019 A 
ATOM      5  C   LIG A   1      -6.425   6.102 131.738  0.00  0.00    +0.047 A 
ATOM      6  C   LIG A   1      -5.806   6.033 130.484  0.00  0.00    +0.135 A 
ATOM      7  C   LIG A   1      -6.144   5.019 129.593  0.00  0.00    +0.092 A 
ATOM      8  C   LIG A   1      -7.109   4.080 129.933  0.00  0.00    +0.136 A 
ATOM      9  O   LIG A   1      -7.360   3.140 128.976  0.00  0.00    -0.480 OA
ATOM     10  C   LIG A   1      -8.505   2.312 129.212  0.00  0.00    +0.240 C 
ATOM     11  C   LIG A   1      -8.597   1.829 130.657  0.00  0.00    +0.234 C 
ATOM     12  O   LIG A   1      -7.435   1.069 130.993  0.00  0.00    -0.360 OA
ATOM     13  C   LIG A   1      -7.330  -0.151 130.240  0.00  0.00    +0.200 C 
ATOM     14  C   LIG A   1      -7.719  -0.057 128.775  0.00  0.00    +0.031 A 
ATOM     15  C   LIG A   1      -8.327   1.121 128.293  0.00  0.00    +0.005 A 
ATOM     16  C   LIG A   1      -8.706   1.215 126.947  0.00  0.00    +0.011 A 
ATOM     17  C   LIG A   1      -8.547   0.130 126.081  0.00  0.00    +0.050 A 
ATOM     18  C   LIG A   1      -7.950  -1.050 126.536  0.00  0.00    +0.174 A 
ATOM     19  C   LIG A   1      -7.533  -1.142 127.881  0.00  0.00    +0.179 A 
ENDROOT
BRANCH   6  20
ATOM     20  O   LIG A   1      -4.880   7.058 130.181  0.00  0.00    -0.426 OA
BRANCH  20  21
ATOM     21  C   LIG A   1      -3.845   6.918 129.249  0.00  0.00    +0.309 C 
ATOM     22  C   LIG A   1      -2.610   6.445 129.939  0.00  0.00    +0.136 C 
ATOM     23  O   LIG A   1      -3.883   7.150 128.048  0.00  0.00    -0.251 OA
ENDBRANCH  20  21
ENDBRANCH   6  20
BRANCH  18  24
ATOM     24  O   LIG A   1      -7.953  -2.195 125.696  0.00  0.00    -0.422 OA
BRANCH  24  25
ATOM     25  C   LIG A   1      -9.148  -2.750 125.229  0.00  0.00    +0.309 C 
ATOM     26  C   LIG A   1      -9.048  -3.071 123.759  0.00  0.00    +0.136 C 
ATOM     27  O   LIG A   1     -10.162  -2.933 125.895  0.00  0.00    -0.251 OA
ENDBRANCH  24  25
ENDBRANCH  18  24
BRANCH  19  28
ATOM     28  O   LIG A   1      -6.786  -2.249 128.334  0.00  0.00    -0.422 OA
BRANCH  28  29
ATOM     29  C   LIG A   1      -7.441  -3.265 128.998  0.00  0.00    +0.309 C 
ATOM     30  C   LIG A   1      -6.572  -3.877 130.036  0.00  0.00    +0.136 C 
ATOM     31  O   LIG A   1      -8.602  -3.583 128.823  0.00  0.00    -0.251 OA
ENDBRANCH  28  29
ENDBRANCH  19  28
TORSDOF 6
ENDMDL
MODEL 9
REMARK VINA RESULT:      -7.2      4.692      8.838
REMARK  Name = NuBBE_1814
REMARK  9 active torsions:
REMARK  status: ('A' for Active; 'I' for Inactive)
REMARK    1  A    between atoms: C_6  and  O_7
REMARK    2  A    between atoms: O_7  and  C_8
REMARK    3  A    between atoms: C_8  and  C_9
REMARK    4  A    between atoms: C_24  and  O_25
REMARK    5  A    between atoms: O_25  and  C_26
REMARK    6  A    between atoms: C_26  and  C_27
REMARK    7  A    between atoms: C_29  and  O_30
REMARK    8  A    between atoms: O_30  and  C_31
REMARK    9  A    between atoms: C_31  and  C_32
REMARK                            x       y       z     vdW  Elec       q    Type
REMARK                         _______ _______ _______ _____ _____    ______ ____
ROOT
ATOM      1  O   LIG A   1      -7.806   2.567 130.108  0.00  0.00    -0.289 OA
ATOM      2  C   LIG A   1      -7.736   3.716 130.534  0.00  0.00    +0.199 C 
ATOM      3  C   LIG A   1      -8.903   4.610 130.490  0.00  0.00    +0.062 A 
ATOM      4  C   LIG A   1     -10.203   4.115 130.334  0.00  0.00    +0.019 A 
ATOM      5  C   LIG A   1     -11.286   5.001 130.368  0.00  0.00    +0.047 A 
ATOM      6  C   LIG A   1     -11.056   6.371 130.546  0.00  0.00    +0.135 A 
ATOM      7  C   LIG A   1      -9.758   6.848 130.697  0.00  0.00    +0.092 A 
ATOM      8  C   LIG A   1      -8.681   5.972 130.655  0.00  0.00    +0.136 A 
ATOM      9  O   LIG A   1      -7.457   6.557 130.808  0.00  0.00    -0.480 OA
ATOM     10  C   LIG A   1      -6.332   5.713 130.537  0.00  0.00    +0.240 C 
ATOM     11  C   LIG A   1      -6.482   4.318 131.141  0.00  0.00    +0.234 C 
ATOM     12  O   LIG A   1      -6.621   4.413 132.560  0.00  0.00    -0.360 OA
ATOM     13  C   LIG A   1      -5.445   4.930 133.202  0.00  0.00    +0.200 C 
ATOM     14  C   LIG A   1      -4.744   6.068 132.480  0.00  0.00    +0.031 A 
ATOM     15  C   LIG A   1      -5.150   6.413 131.173  0.00  0.00    +0.005 A 
ATOM     16  C   LIG A   1      -4.502   7.451 130.489  0.00  0.00    +0.011 A 
ATOM     17  C   LIG A   1      -3.412   8.112 131.059  0.00  0.00    +0.050 A 
ATOM     18  C   LIG A   1      -2.989   7.786 132.351  0.00  0.00    +0.174 A 
ATOM     19  C   LIG A   1      -3.657   6.767 133.062  0.00  0.00    +0.179 A 
ENDROOT
BRANCH   6  20
ATOM     20  O   LIG A   1     -12.195   7.210 130.516  0.00  0.00    -0.426 OA
BRANCH  20  21
ATOM     21  C   LIG A   1     -12.570   7.968 129.401  0.00  0.00    +0.309 C 
ATOM     22  C   LIG A   1     -13.535   7.192 128.570  0.00  0.00    +0.136 C 
ATOM     23  O   LIG A   1     -12.186   9.088 129.093  0.00  0.00    -0.251 OA
ENDBRANCH  20  21
ENDBRANCH   6  20
BRANCH  18  24
ATOM     24  O   LIG A   1      -1.780   8.344 132.845  0.00  0.00    -0.422 OA
BRANCH  24  25
ATOM     25  C   LIG A   1      -0.599   7.596 132.890  0.00  0.00    +0.309 C 
ATOM     26  C   LIG A   1       0.230   7.981 134.089  0.00  0.00    +0.136 C 
ATOM     27  O   LIG A   1      -0.249   6.760 132.064  0.00  0.00    -0.251 OA
ENDBRANCH  24  25
ENDBRANCH  18  24
BRANCH  19  28
ATOM     28  O   LIG A   1      -3.366   6.520 134.420  0.00  0.00    -0.422 OA
BRANCH  28  29
ATOM     29  C   LIG A   1      -3.787   7.429 135.367  0.00  0.00    +0.309 C 
ATOM     30  C   LIG A   1      -4.984   6.934 136.093  0.00  0.00    +0.136 C 
ATOM     31  O   LIG A   1      -3.220   8.470 135.640  0.00  0.00    -0.251 OA
ENDBRANCH  28  29
ENDBRANCH  19  28
TORSDOF 6
ENDMDL
