MODEL 1
REMARK VINA RESULT:      -9.4      0.000      0.000
REMARK  Name = NuBBE_1105
REMARK  5 active torsions:
REMARK  status: ('A' for Active; 'I' for Inactive)
REMARK    1  A    between atoms: N_11  and  C_12
REMARK    2  A    between atoms: C_12  and  C_13
REMARK    3  A    between atoms: C_13  and  C_14
REMARK    4  A    between atoms: C_24  and  C_25
REMARK    5  A    between atoms: C_24  and  C_26
REMARK                            x       y       z     vdW  Elec       q    Type
REMARK                         _______ _______ _______ _____ _____    ______ ____
ROOT
ATOM      1  C   LIG A   1      -7.393  -0.360 126.043  0.00  0.00    -0.020 A 
ATOM      2  C   LIG A   1      -7.720  -0.815 124.773  0.00  0.00    +0.087 A 
ATOM      3  N   LIG A   1      -8.712  -1.737 124.891  0.00  0.00    -0.360 N 
ATOM      4  C   LIG A   1      -8.656  -2.258 126.151  0.00  0.00    +0.048 A 
ATOM      5  C   LIG A   1      -7.894  -1.378 126.941  0.00  0.00    +0.013 A 
ATOM      6  C   LIG A   1      -7.737  -1.724 128.305  0.00  0.00    +0.026 A 
ATOM      7  C   LIG A   1      -8.193  -2.979 128.742  0.00  0.00    +0.130 A 
ATOM      8  C   LIG A   1      -8.925  -3.821 127.910  0.00  0.00    +0.048 A 
ATOM      9  C   LIG A   1      -9.213  -3.452 126.604  0.00  0.00    +0.030 A 
ATOM     10  O   LIG A   1      -7.953  -3.458 130.003  0.00  0.00    -0.482 OA
ATOM     11  C   LIG A   1      -6.892  -2.830 130.754  0.00  0.00    +0.123 C 
ATOM     12  C   LIG A   1      -5.612  -3.654 130.557  0.00  0.00    +0.060 C 
ATOM     13  C   LIG A   1      -7.336  -2.913 132.218  0.00  0.00    +0.060 C 
ATOM     14  C   LIG A   1      -6.649  -1.382 130.400  0.00  0.00    +0.020 C 
ATOM     15  C   LIG A   1      -7.065  -0.845 129.249  0.00  0.00    +0.012 C 
ATOM     16  H   LIG A   1      -9.273  -2.096 124.132  0.00  0.00    +0.165 HD
ENDROOT
BRANCH   1  17
ATOM     17  C   LIG A   1      -6.508   0.835 126.292  0.00  0.00    +0.059 C 
BRANCH  17  18
ATOM     18  C   LIG A   1      -7.035   2.250 125.916  0.00  0.00    +0.134 C 
BRANCH  18  29
ATOM     19  O   LIG A   1      -4.893   3.740 124.870  0.00  0.00    -0.267 OA
ATOM     20  C   LIG A   1      -5.788   3.393 124.122  0.00  0.00    +0.264 A 
ATOM     21  C   LIG A   1      -5.779   3.851 122.700  0.00  0.00    +0.063 A 
ATOM     22  C   LIG A   1      -6.809   3.440 121.855  0.00  0.00    +0.056 A 
ATOM     23  C   LIG A   1      -6.879   3.849 120.528  0.00  0.00    +0.026 A 
ATOM     24  C   LIG A   1      -5.879   4.678 120.033  0.00  0.00    +0.002 A 
ATOM     25  C   LIG A   1      -4.835   5.094 120.867  0.00  0.00    +0.001 A 
ATOM     26  C   LIG A   1      -4.782   4.686 122.204  0.00  0.00    +0.015 A 
ATOM     27  N   LIG A   1      -7.860   2.715 122.401  0.00  0.00    -0.307 N 
ATOM     28  C   LIG A   1      -8.017   2.809 123.748  0.00  0.00    +0.330 A 
ATOM     29  N   LIG A   1      -6.896   2.639 124.504  0.00  0.00    -0.260 N 
ATOM     30  O   LIG A   1      -9.144   3.107 124.179  0.00  0.00    -0.246 OA
ATOM     31  H   LIG A   1      -8.707   2.611 121.862  0.00  0.00    +0.170 HD
ENDBRANCH  18  29
ENDBRANCH  17  18
ENDBRANCH   1  17
TORSDOF 3
ENDMDL
MODEL 2
REMARK VINA RESULT:      -9.4      5.390      7.100
REMARK  Name = NuBBE_1105
REMARK  5 active torsions:
REMARK  status: ('A' for Active; 'I' for Inactive)
REMARK    1  A    between atoms: N_11  and  C_12
REMARK    2  A    between atoms: C_12  and  C_13
REMARK    3  A    between atoms: C_13  and  C_14
REMARK    4  A    between atoms: C_24  and  C_25
REMARK    5  A    between atoms: C_24  and  C_26
REMARK                            x       y       z     vdW  Elec       q    Type
REMARK                         _______ _______ _______ _____ _____    ______ ____
ROOT
ATOM      1  C   LIG A   1      -8.591   1.085 130.458  0.00  0.00    -0.020 A 
ATOM      2  C   LIG A   1      -8.864   0.879 131.803  0.00  0.00    +0.087 A 
ATOM      3  N   LIG A   1      -8.155  -0.202 132.222  0.00  0.00    -0.360 N 
ATOM      4  C   LIG A   1      -7.882  -0.977 131.133  0.00  0.00    +0.048 A 
ATOM      5  C   LIG A   1      -8.069  -0.180 129.989  0.00  0.00    +0.013 A 
ATOM      6  C   LIG A   1      -7.806  -0.793 128.739  0.00  0.00    +0.026 A 
ATOM      7  C   LIG A   1      -7.548  -2.174 128.703  0.00  0.00    +0.130 A 
ATOM      8  C   LIG A   1      -7.394  -2.919 129.868  0.00  0.00    +0.048 A 
ATOM      9  C   LIG A   1      -7.513  -2.320 131.114  0.00  0.00    +0.030 A 
ATOM     10  O   LIG A   1      -7.429  -2.876 127.533  0.00  0.00    -0.482 OA
ATOM     11  C   LIG A   1      -7.962  -2.261 126.340  0.00  0.00    +0.123 C 
ATOM     12  C   LIG A   1      -9.388  -2.785 126.124  0.00  0.00    +0.060 C 
ATOM     13  C   LIG A   1      -7.058  -2.747 125.203  0.00  0.00    +0.060 C 
ATOM     14  C   LIG A   1      -7.951  -0.750 126.359  0.00  0.00    +0.020 C 
ATOM     15  C   LIG A   1      -7.856  -0.048 127.492  0.00  0.00    +0.012 C 
ATOM     16  H   LIG A   1      -8.010  -0.471 133.185  0.00  0.00    +0.165 HD
ENDROOT
BRANCH   1  17
ATOM     17  C   LIG A   1      -9.004   2.328 129.709  0.00  0.00    +0.059 C 
BRANCH  17  18
ATOM     18  C   LIG A   1      -8.636   3.717 130.303  0.00  0.00    +0.134 C 
BRANCH  18  29
ATOM     19  O   LIG A   1      -9.013   5.651 128.298  0.00  0.00    -0.267 OA
ATOM     20  C   LIG A   1      -9.770   5.639 129.250  0.00  0.00    +0.264 A 
ATOM     21  C   LIG A   1     -10.809   6.704 129.381  0.00  0.00    +0.063 A 
ATOM     22  C   LIG A   1     -11.671   6.671 130.476  0.00  0.00    +0.056 A 
ATOM     23  C   LIG A   1     -12.643   7.645 130.676  0.00  0.00    +0.026 A 
ATOM     24  C   LIG A   1     -12.763   8.669 129.743  0.00  0.00    +0.002 A 
ATOM     25  C   LIG A   1     -11.908   8.713 128.637  0.00  0.00    +0.001 A 
ATOM     26  C   LIG A   1     -10.925   7.734 128.452  0.00  0.00    +0.015 A 
ATOM     27  N   LIG A   1     -11.455   5.712 131.457  0.00  0.00    -0.307 N 
ATOM     28  C   LIG A   1     -10.214   5.159 131.491  0.00  0.00    +0.330 A 
ATOM     29  N   LIG A   1      -9.708   4.726 130.302  0.00  0.00    -0.260 N 
ATOM     30  O   LIG A   1      -9.614   5.153 132.580  0.00  0.00    -0.246 OA
ATOM     31  H   LIG A   1     -11.918   5.819 132.348  0.00  0.00    +0.170 HD
ENDBRANCH  18  29
ENDBRANCH  17  18
ENDBRANCH   1  17
TORSDOF 3
ENDMDL
MODEL 3
REMARK VINA RESULT:      -9.2      2.562      4.416
REMARK  Name = NuBBE_1105
REMARK  5 active torsions:
REMARK  status: ('A' for Active; 'I' for Inactive)
REMARK    1  A    between atoms: N_11  and  C_12
REMARK    2  A    between atoms: C_12  and  C_13
REMARK    3  A    between atoms: C_13  and  C_14
REMARK    4  A    between atoms: C_24  and  C_25
REMARK    5  A    between atoms: C_24  and  C_26
REMARK                            x       y       z     vdW  Elec       q    Type
REMARK                         _______ _______ _______ _____ _____    ______ ____
ROOT
ATOM      1  C   LIG A   1      -6.788  -1.025 129.099  0.00  0.00    -0.020 A 
ATOM      2  C   LIG A   1      -7.794  -1.257 130.027  0.00  0.00    +0.087 A 
ATOM      3  N   LIG A   1      -8.352  -2.467 129.760  0.00  0.00    -0.360 N 
ATOM      4  C   LIG A   1      -8.124  -2.757 128.446  0.00  0.00    +0.048 A 
ATOM      5  C   LIG A   1      -7.084  -1.920 128.001  0.00  0.00    +0.013 A 
ATOM      6  C   LIG A   1      -6.670  -2.082 126.657  0.00  0.00    +0.026 A 
ATOM      7  C   LIG A   1      -7.415  -2.926 125.816  0.00  0.00    +0.130 A 
ATOM      8  C   LIG A   1      -8.450  -3.717 126.306  0.00  0.00    +0.048 A 
ATOM      9  C   LIG A   1      -8.795  -3.682 127.649  0.00  0.00    +0.030 A 
ATOM     10  O   LIG A   1      -7.179  -3.029 124.470  0.00  0.00    -0.482 OA
ATOM     11  C   LIG A   1      -6.415  -1.971 123.854  0.00  0.00    +0.123 C 
ATOM     12  C   LIG A   1      -7.397  -0.949 123.266  0.00  0.00    +0.060 C 
ATOM     13  C   LIG A   1      -5.638  -2.648 122.720  0.00  0.00    +0.060 C 
ATOM     14  C   LIG A   1      -5.432  -1.290 124.778  0.00  0.00    +0.020 C 
ATOM     15  C   LIG A   1      -5.535  -1.356 126.109  0.00  0.00    +0.012 C 
ATOM     16  H   LIG A   1      -8.971  -2.977 130.374  0.00  0.00    +0.165 HD
ENDROOT
BRANCH   1  17
ATOM     17  C   LIG A   1      -5.791   0.100 129.221  0.00  0.00    +0.059 C 
BRANCH  17  18
ATOM     18  C   LIG A   1      -6.203   1.522 128.743  0.00  0.00    +0.134 C 
BRANCH  18  29
ATOM     19  O   LIG A   1      -5.202   2.477 126.296  0.00  0.00    -0.267 OA
ATOM     20  C   LIG A   1      -6.357   2.098 126.349  0.00  0.00    +0.264 A 
ATOM     21  C   LIG A   1      -7.237   2.242 125.151  0.00  0.00    +0.063 A 
ATOM     22  C   LIG A   1      -8.556   1.798 125.228  0.00  0.00    +0.056 A 
ATOM     23  C   LIG A   1      -9.439   1.925 124.161  0.00  0.00    +0.026 A 
ATOM     24  C   LIG A   1      -8.979   2.499 122.981  0.00  0.00    +0.002 A 
ATOM     25  C   LIG A   1      -7.656   2.945 122.887  0.00  0.00    +0.001 A 
ATOM     26  C   LIG A   1      -6.781   2.823 123.971  0.00  0.00    +0.015 A 
ATOM     27  N   LIG A   1      -9.027   1.342 126.451  0.00  0.00    -0.307 N 
ATOM     28  C   LIG A   1      -8.326   1.735 127.548  0.00  0.00    +0.330 A 
ATOM     29  N   LIG A   1      -6.973   1.586 127.490  0.00  0.00    -0.260 N 
ATOM     30  O   LIG A   1      -8.959   2.257 128.482  0.00  0.00    -0.246 OA
ATOM     31  H   LIG A   1     -10.024   1.236 126.577  0.00  0.00    +0.170 HD
ENDBRANCH  18  29
ENDBRANCH  17  18
ENDBRANCH   1  17
TORSDOF 3
ENDMDL
MODEL 4
REMARK VINA RESULT:      -9.1      3.221      5.039
REMARK  Name = NuBBE_1105
REMARK  5 active torsions:
REMARK  status: ('A' for Active; 'I' for Inactive)
REMARK    1  A    between atoms: N_11  and  C_12
REMARK    2  A    between atoms: C_12  and  C_13
REMARK    3  A    between atoms: C_13  and  C_14
REMARK    4  A    between atoms: C_24  and  C_25
REMARK    5  A    between atoms: C_24  and  C_26
REMARK                            x       y       z     vdW  Elec       q    Type
REMARK                         _______ _______ _______ _____ _____    ______ ____
ROOT
ATOM      1  C   LIG A   1      -8.059   2.528 128.892  0.00  0.00    -0.020 A 
ATOM      2  C   LIG A   1      -9.004   3.411 129.396  0.00  0.00    +0.087 A 
ATOM      3  N   LIG A   1      -9.221   3.105 130.703  0.00  0.00    -0.360 N 
ATOM      4  C   LIG A   1      -8.880   1.798 130.893  0.00  0.00    +0.048 A 
ATOM      5  C   LIG A   1      -8.076   1.407 129.807  0.00  0.00    +0.013 A 
ATOM      6  C   LIG A   1      -7.587   0.078 129.826  0.00  0.00    +0.026 A 
ATOM      7  C   LIG A   1      -8.060  -0.804 130.812  0.00  0.00    +0.130 A 
ATOM      8  C   LIG A   1      -8.873  -0.367 131.854  0.00  0.00    +0.048 A 
ATOM      9  C   LIG A   1      -9.262   0.962 131.940  0.00  0.00    +0.030 A 
ATOM     10  O   LIG A   1      -7.758  -2.140 130.820  0.00  0.00    -0.482 OA
ATOM     11  C   LIG A   1      -7.271  -2.711 129.586  0.00  0.00    +0.123 C 
ATOM     12  C   LIG A   1      -8.461  -3.323 128.837  0.00  0.00    +0.060 C 
ATOM     13  C   LIG A   1      -6.307  -3.822 130.014  0.00  0.00    +0.060 C 
ATOM     14  C   LIG A   1      -6.529  -1.739 128.699  0.00  0.00    +0.020 C 
ATOM     15  C   LIG A   1      -6.659  -0.414 128.820  0.00  0.00    +0.012 C 
ATOM     16  H   LIG A   1      -9.710   3.687 131.369  0.00  0.00    +0.165 HD
ENDROOT
BRANCH   1  17
ATOM     17  C   LIG A   1      -7.390   2.706 127.552  0.00  0.00    +0.059 C 
BRANCH  17  18
ATOM     18  C   LIG A   1      -8.134   2.224 126.274  0.00  0.00    +0.134 C 
BRANCH  18  29
ATOM     19  O   LIG A   1      -5.913   0.958 125.106  0.00  0.00    -0.267 OA
ATOM     20  C   LIG A   1      -6.892   0.289 125.382  0.00  0.00    +0.264 A 
ATOM     21  C   LIG A   1      -6.929  -1.155 125.004  0.00  0.00    +0.063 A 
ATOM     22  C   LIG A   1      -8.056  -1.907 125.332  0.00  0.00    +0.056 A 
ATOM     23  C   LIG A   1      -8.170  -3.250 124.988  0.00  0.00    +0.026 A 
ATOM     24  C   LIG A   1      -7.118  -3.856 124.311  0.00  0.00    +0.002 A 
ATOM     25  C   LIG A   1      -5.978  -3.116 123.979  0.00  0.00    +0.001 A 
ATOM     26  C   LIG A   1      -5.879  -1.763 124.320  0.00  0.00    +0.015 A 
ATOM     27  N   LIG A   1      -9.143  -1.254 125.897  0.00  0.00    -0.307 N 
ATOM     28  C   LIG A   1      -9.193   0.092 125.715  0.00  0.00    +0.330 A 
ATOM     29  N   LIG A   1      -8.050   0.785 125.979  0.00  0.00    -0.260 N 
ATOM     30  O   LIG A   1     -10.246   0.575 125.263  0.00  0.00    -0.246 OA
ATOM     31  H   LIG A   1     -10.032  -1.732 125.928  0.00  0.00    +0.170 HD
ENDBRANCH  18  29
ENDBRANCH  17  18
ENDBRANCH   1  17
TORSDOF 3
ENDMDL
MODEL 5
REMARK VINA RESULT:      -9.1      2.176      3.720
REMARK  Name = NuBBE_1105
REMARK  5 active torsions:
REMARK  status: ('A' for Active; 'I' for Inactive)
REMARK    1  A    between atoms: N_11  and  C_12
REMARK    2  A    between atoms: C_12  and  C_13
REMARK    3  A    between atoms: C_13  and  C_14
REMARK    4  A    between atoms: C_24  and  C_25
REMARK    5  A    between atoms: C_24  and  C_26
REMARK                            x       y       z     vdW  Elec       q    Type
REMARK                         _______ _______ _______ _____ _____    ______ ____
ROOT
ATOM      1  C   LIG A   1      -7.113   1.228 128.227  0.00  0.00    -0.020 A 
ATOM      2  C   LIG A   1      -7.375   1.157 129.588  0.00  0.00    +0.087 A 
ATOM      3  N   LIG A   1      -6.534   0.241 130.138  0.00  0.00    -0.360 N 
ATOM      4  C   LIG A   1      -6.145  -0.620 129.153  0.00  0.00    +0.048 A 
ATOM      5  C   LIG A   1      -6.421  -0.005 127.919  0.00  0.00    +0.013 A 
ATOM      6  C   LIG A   1      -6.061  -0.728 126.755  0.00  0.00    +0.026 A 
ATOM      7  C   LIG A   1      -5.621  -2.055 126.892  0.00  0.00    +0.130 A 
ATOM      8  C   LIG A   1      -5.386  -2.622 128.141  0.00  0.00    +0.048 A 
ATOM      9  C   LIG A   1      -5.601  -1.893 129.302  0.00  0.00    +0.030 A 
ATOM     10  O   LIG A   1      -5.394  -2.876 125.819  0.00  0.00    -0.482 OA
ATOM     11  C   LIG A   1      -5.987  -2.492 124.560  0.00  0.00    +0.123 C 
ATOM     12  C   LIG A   1      -7.327  -3.225 124.416  0.00  0.00    +0.060 C 
ATOM     13  C   LIG A   1      -5.011  -2.991 123.490  0.00  0.00    +0.060 C 
ATOM     14  C   LIG A   1      -6.177  -1.003 124.389  0.00  0.00    +0.020 C 
ATOM     15  C   LIG A   1      -6.193  -0.158 125.424  0.00  0.00    +0.012 C 
ATOM     16  H   LIG A   1      -6.368   0.116 131.127  0.00  0.00    +0.165 HD
ENDROOT
BRANCH   1  17
ATOM     17  C   LIG A   1      -7.677   2.301 127.329  0.00  0.00    +0.059 C 
BRANCH  17  18
ATOM     18  C   LIG A   1      -6.694   3.241 126.576  0.00  0.00    +0.134 C 
BRANCH  18  29
ATOM     19  O   LIG A   1      -4.652   3.953 124.780  0.00  0.00    -0.267 OA
ATOM     20  C   LIG A   1      -5.754   3.686 124.339  0.00  0.00    +0.264 A 
ATOM     21  C   LIG A   1      -6.021   3.839 122.877  0.00  0.00    +0.063 A 
ATOM     22  C   LIG A   1      -7.288   3.524 122.389  0.00  0.00    +0.056 A 
ATOM     23  C   LIG A   1      -7.616   3.669 121.045  0.00  0.00    +0.026 A 
ATOM     24  C   LIG A   1      -6.640   4.127 120.167  0.00  0.00    +0.002 A 
ATOM     25  C   LIG A   1      -5.362   4.443 120.642  0.00  0.00    +0.001 A 
ATOM     26  C   LIG A   1      -5.048   4.305 121.998  0.00  0.00    +0.015 A 
ATOM     27  N   LIG A   1      -8.281   3.187 123.299  0.00  0.00    -0.307 N 
ATOM     28  C   LIG A   1      -8.073   3.577 124.585  0.00  0.00    +0.330 A 
ATOM     29  N   LIG A   1      -6.847   3.301 125.114  0.00  0.00    -0.260 N 
ATOM     30  O   LIG A   1      -8.981   4.210 125.150  0.00  0.00    -0.246 OA
ATOM     31  H   LIG A   1      -9.241   3.180 122.987  0.00  0.00    +0.170 HD
ENDBRANCH  18  29
ENDBRANCH  17  18
ENDBRANCH   1  17
TORSDOF 3
ENDMDL
MODEL 6
REMARK VINA RESULT:      -9.0      4.189      6.637
REMARK  Name = NuBBE_1105
REMARK  5 active torsions:
REMARK  status: ('A' for Active; 'I' for Inactive)
REMARK    1  A    between atoms: N_11  and  C_12
REMARK    2  A    between atoms: C_12  and  C_13
REMARK    3  A    between atoms: C_13  and  C_14
REMARK    4  A    between atoms: C_24  and  C_25
REMARK    5  A    between atoms: C_24  and  C_26
REMARK                            x       y       z     vdW  Elec       q    Type
REMARK                         _______ _______ _______ _____ _____    ______ ____
ROOT
ATOM      1  C   LIG A   1      -6.218   2.682 124.863  0.00  0.00    -0.020 A 
ATOM      2  C   LIG A   1      -6.173   3.674 123.894  0.00  0.00    +0.087 A 
ATOM      3  N   LIG A   1      -7.406   3.779 123.332  0.00  0.00    -0.360 N 
ATOM      4  C   LIG A   1      -8.054   2.591 123.510  0.00  0.00    +0.048 A 
ATOM      5  C   LIG A   1      -7.382   1.890 124.528  0.00  0.00    +0.013 A 
ATOM      6  C   LIG A   1      -7.918   0.631 124.892  0.00  0.00    +0.026 A 
ATOM      7  C   LIG A   1      -8.959   0.089 124.118  0.00  0.00    +0.130 A 
ATOM      8  C   LIG A   1      -9.573   0.820 123.106  0.00  0.00    +0.048 A 
ATOM      9  C   LIG A   1      -9.160   2.111 122.813  0.00  0.00    +0.030 A 
ATOM     10  O   LIG A   1      -9.436  -1.182 124.303  0.00  0.00    -0.482 OA
ATOM     11  C   LIG A   1      -8.598  -2.099 125.039  0.00  0.00    +0.123 C 
ATOM     12  C   LIG A   1      -7.775  -2.911 124.031  0.00  0.00    +0.060 C 
ATOM     13  C   LIG A   1      -9.571  -3.026 125.774  0.00  0.00    +0.060 C 
ATOM     14  C   LIG A   1      -7.693  -1.440 126.053  0.00  0.00    +0.020 C 
ATOM     15  C   LIG A   1      -7.383  -0.141 126.001  0.00  0.00    +0.012 C 
ATOM     16  H   LIG A   1      -7.719   4.534 122.738  0.00  0.00    +0.165 HD
ENDROOT
BRANCH   1  17
ATOM     17  C   LIG A   1      -5.110   2.446 125.859  0.00  0.00    +0.059 C 
BRANCH  17  18
ATOM     18  C   LIG A   1      -5.369   2.771 127.358  0.00  0.00    +0.134 C 
BRANCH  18  29
ATOM     19  O   LIG A   1      -4.567   2.591 130.046  0.00  0.00    -0.267 OA
ATOM     20  C   LIG A   1      -4.100   3.475 129.352  0.00  0.00    +0.264 A 
ATOM     21  C   LIG A   1      -3.198   4.495 129.965  0.00  0.00    +0.063 A 
ATOM     22  C   LIG A   1      -2.667   5.497 129.155  0.00  0.00    +0.056 A 
ATOM     23  C   LIG A   1      -1.842   6.495 129.663  0.00  0.00    +0.026 A 
ATOM     24  C   LIG A   1      -1.530   6.476 131.017  0.00  0.00    +0.002 A 
ATOM     25  C   LIG A   1      -2.051   5.473 131.843  0.00  0.00    +0.001 A 
ATOM     26  C   LIG A   1      -2.889   4.482 131.323  0.00  0.00    +0.015 A 
ATOM     27  N   LIG A   1      -3.089   5.569 127.834  0.00  0.00    -0.307 N 
ATOM     28  C   LIG A   1      -4.260   4.942 127.544  0.00  0.00    +0.330 A 
ATOM     29  N   LIG A   1      -4.396   3.666 128.004  0.00  0.00    -0.260 N 
ATOM     30  O   LIG A   1      -5.133   5.595 126.948  0.00  0.00    -0.246 OA
ATOM     31  H   LIG A   1      -2.894   6.410 127.309  0.00  0.00    +0.170 HD
ENDBRANCH  18  29
ENDBRANCH  17  18
ENDBRANCH   1  17
TORSDOF 3
ENDMDL
MODEL 7
REMARK VINA RESULT:      -8.6      3.051      6.662
REMARK  Name = NuBBE_1105
REMARK  5 active torsions:
REMARK  status: ('A' for Active; 'I' for Inactive)
REMARK    1  A    between atoms: N_11  and  C_12
REMARK    2  A    between atoms: C_12  and  C_13
REMARK    3  A    between atoms: C_13  and  C_14
REMARK    4  A    between atoms: C_24  and  C_25
REMARK    5  A    between atoms: C_24  and  C_26
REMARK                            x       y       z     vdW  Elec       q    Type
REMARK                         _______ _______ _______ _____ _____    ______ ____
ROOT
ATOM      1  C   LIG A   1      -6.302   2.735 124.827  0.00  0.00    -0.020 A 
ATOM      2  C   LIG A   1      -6.283   3.694 123.824  0.00  0.00    +0.087 A 
ATOM      3  N   LIG A   1      -7.521   3.755 123.267  0.00  0.00    -0.360 N 
ATOM      4  C   LIG A   1      -8.144   2.562 123.491  0.00  0.00    +0.048 A 
ATOM      5  C   LIG A   1      -7.453   1.910 124.528  0.00  0.00    +0.013 A 
ATOM      6  C   LIG A   1      -7.961   0.654 124.938  0.00  0.00    +0.026 A 
ATOM      7  C   LIG A   1      -8.996   0.065 124.190  0.00  0.00    +0.130 A 
ATOM      8  C   LIG A   1      -9.630   0.748 123.158  0.00  0.00    +0.048 A 
ATOM      9  C   LIG A   1      -9.245   2.037 122.818  0.00  0.00    +0.030 A 
ATOM     10  O   LIG A   1      -9.447  -1.207 124.422  0.00  0.00    -0.482 OA
ATOM     11  C   LIG A   1      -8.587  -2.082 125.183  0.00  0.00    +0.123 C 
ATOM     12  C   LIG A   1      -7.754  -2.913 124.199  0.00  0.00    +0.060 C 
ATOM     13  C   LIG A   1      -9.537  -3.002 125.956  0.00  0.00    +0.060 C 
ATOM     14  C   LIG A   1      -7.689  -1.371 126.168  0.00  0.00    +0.020 C 
ATOM     15  C   LIG A   1      -7.404  -0.069 126.070  0.00  0.00    +0.012 C 
ATOM     16  H   LIG A   1      -7.852   4.484 122.650  0.00  0.00    +0.165 HD
ENDROOT
BRANCH   1  17
ATOM     17  C   LIG A   1      -5.184   2.555 125.824  0.00  0.00    +0.059 C 
BRANCH  17  18
ATOM     18  C   LIG A   1      -5.298   3.250 127.211  0.00  0.00    +0.134 C 
BRANCH  18  29
ATOM     19  O   LIG A   1      -7.629   4.495 128.167  0.00  0.00    -0.267 OA
ATOM     20  C   LIG A   1      -7.353   3.380 128.568  0.00  0.00    +0.264 A 
ATOM     21  C   LIG A   1      -8.196   2.747 129.626  0.00  0.00    +0.063 A 
ATOM     22  C   LIG A   1      -7.869   1.466 130.069  0.00  0.00    +0.056 A 
ATOM     23  C   LIG A   1      -8.593   0.826 131.070  0.00  0.00    +0.026 A 
ATOM     24  C   LIG A   1      -9.684   1.484 131.626  0.00  0.00    +0.002 A 
ATOM     25  C   LIG A   1     -10.028   2.767 131.188  0.00  0.00    +0.001 A 
ATOM     26  C   LIG A   1      -9.285   3.406 130.189  0.00  0.00    +0.015 A 
ATOM     27  N   LIG A   1      -6.706   0.880 129.589  0.00  0.00    -0.307 N 
ATOM     28  C   LIG A   1      -5.782   1.725 129.060  0.00  0.00    +0.330 A 
ATOM     29  N   LIG A   1      -6.241   2.644 128.163  0.00  0.00    -0.260 N 
ATOM     30  O   LIG A   1      -4.615   1.643 129.481  0.00  0.00    -0.246 OA
ATOM     31  H   LIG A   1      -6.342   0.066 130.065  0.00  0.00    +0.170 HD
ENDBRANCH  18  29
ENDBRANCH  17  18
ENDBRANCH   1  17
TORSDOF 3
ENDMDL
MODEL 8
REMARK VINA RESULT:      -8.6      3.902      6.036
REMARK  Name = NuBBE_1105
REMARK  5 active torsions:
REMARK  status: ('A' for Active; 'I' for Inactive)
REMARK    1  A    between atoms: N_11  and  C_12
REMARK    2  A    between atoms: C_12  and  C_13
REMARK    3  A    between atoms: C_13  and  C_14
REMARK    4  A    between atoms: C_24  and  C_25
REMARK    5  A    between atoms: C_24  and  C_26
REMARK                            x       y       z     vdW  Elec       q    Type
REMARK                         _______ _______ _______ _____ _____    ______ ____
ROOT
ATOM      1  C   LIG A   1      -6.338  -1.764 129.474  0.00  0.00    -0.020 A 
ATOM      2  C   LIG A   1      -7.201  -2.135 130.496  0.00  0.00    +0.087 A 
ATOM      3  N   LIG A   1      -7.936  -3.196 130.071  0.00  0.00    -0.360 N 
ATOM      4  C   LIG A   1      -7.962  -3.174 128.707  0.00  0.00    +0.048 A 
ATOM      5  C   LIG A   1      -6.915  -2.338 128.277  0.00  0.00    +0.013 A 
ATOM      6  C   LIG A   1      -6.748  -2.200 126.877  0.00  0.00    +0.026 A 
ATOM      7  C   LIG A   1      -7.716  -2.752 126.022  0.00  0.00    +0.130 A 
ATOM      8  C   LIG A   1      -8.746  -3.554 126.505  0.00  0.00    +0.048 A 
ATOM      9  C   LIG A   1      -8.860  -3.820 127.861  0.00  0.00    +0.030 A 
ATOM     10  O   LIG A   1      -7.716  -2.542 124.668  0.00  0.00    -0.482 OA
ATOM     11  C   LIG A   1      -6.941  -1.429 124.175  0.00  0.00    +0.123 C 
ATOM     12  C   LIG A   1      -7.874  -0.220 124.028  0.00  0.00    +0.060 C 
ATOM     13  C   LIG A   1      -6.446  -1.868 122.793  0.00  0.00    +0.060 C 
ATOM     14  C   LIG A   1      -5.745  -1.075 125.029  0.00  0.00    +0.020 C 
ATOM     15  C   LIG A   1      -5.638  -1.455 126.306  0.00  0.00    +0.012 C 
ATOM     16  H   LIG A   1      -8.505  -3.790 130.659  0.00  0.00    +0.165 HD
ENDROOT
BRANCH   1  17
ATOM     17  C   LIG A   1      -5.206  -0.785 129.658  0.00  0.00    +0.059 C 
BRANCH  17  18
ATOM     18  C   LIG A   1      -5.528   0.641 130.190  0.00  0.00    +0.134 C 
BRANCH  18  29
ATOM     19  O   LIG A   1      -4.398   2.738 131.683  0.00  0.00    -0.267 OA
ATOM     20  C   LIG A   1      -4.241   2.725 130.476  0.00  0.00    +0.264 A 
ATOM     21  C   LIG A   1      -3.545   3.868 129.811  0.00  0.00    +0.063 A 
ATOM     22  C   LIG A   1      -3.369   3.835 128.429  0.00  0.00    +0.056 A 
ATOM     23  C   LIG A   1      -2.754   4.875 127.740  0.00  0.00    +0.026 A 
ATOM     24  C   LIG A   1      -2.290   5.969 128.462  0.00  0.00    +0.002 A 
ATOM     25  C   LIG A   1      -2.455   6.014 129.851  0.00  0.00    +0.001 A 
ATOM     26  C   LIG A   1      -3.086   4.967 130.531  0.00  0.00    +0.015 A 
ATOM     27  N   LIG A   1      -3.947   2.794 127.715  0.00  0.00    -0.307 N 
ATOM     28  C   LIG A   1      -4.958   2.130 128.336  0.00  0.00    +0.330 A 
ATOM     29  N   LIG A   1      -4.730   1.739 129.622  0.00  0.00    -0.260 N 
ATOM     30  O   LIG A   1      -6.026   1.993 127.715  0.00  0.00    -0.246 OA
ATOM     31  H   LIG A   1      -4.022   2.878 126.712  0.00  0.00    +0.170 HD
ENDBRANCH  18  29
ENDBRANCH  17  18
ENDBRANCH   1  17
TORSDOF 3
ENDMDL
MODEL 9
REMARK VINA RESULT:      -8.5      4.250      7.776
REMARK  Name = NuBBE_1105
REMARK  5 active torsions:
REMARK  status: ('A' for Active; 'I' for Inactive)
REMARK    1  A    between atoms: N_11  and  C_12
REMARK    2  A    between atoms: C_12  and  C_13
REMARK    3  A    between atoms: C_13  and  C_14
REMARK    4  A    between atoms: C_24  and  C_25
REMARK    5  A    between atoms: C_24  and  C_26
REMARK                            x       y       z     vdW  Elec       q    Type
REMARK                         _______ _______ _______ _____ _____    ______ ____
ROOT
ATOM      1  C   LIG A   1      -7.862   2.516 126.334  0.00  0.00    -0.020 A 
ATOM      2  C   LIG A   1      -7.599   3.776 125.816  0.00  0.00    +0.087 A 
ATOM      3  N   LIG A   1      -8.375   3.956 124.714  0.00  0.00    -0.360 N 
ATOM      4  C   LIG A   1      -8.702   2.726 124.222  0.00  0.00    +0.048 A 
ATOM      5  C   LIG A   1      -8.467   1.785 125.241  0.00  0.00    +0.013 A 
ATOM      6  C   LIG A   1      -8.773   0.435 124.941  0.00  0.00    +0.026 A 
ATOM      7  C   LIG A   1      -9.121   0.096 123.623  0.00  0.00    +0.130 A 
ATOM      8  C   LIG A   1      -9.319   1.068 122.647  0.00  0.00    +0.048 A 
ATOM      9  C   LIG A   1      -9.158   2.414 122.943  0.00  0.00    +0.030 A 
ATOM     10  O   LIG A   1      -9.289  -1.199 123.209  0.00  0.00    -0.482 OA
ATOM     11  C   LIG A   1      -8.721  -2.233 124.041  0.00  0.00    +0.123 C 
ATOM     12  C   LIG A   1      -7.334  -2.586 123.490  0.00  0.00    +0.060 C 
ATOM     13  C   LIG A   1      -9.659  -3.434 123.880  0.00  0.00    +0.060 C 
ATOM     14  C   LIG A   1      -8.634  -1.878 125.507  0.00  0.00    +0.020 C 
ATOM     15  C   LIG A   1      -8.679  -0.615 125.943  0.00  0.00    +0.012 C 
ATOM     16  H   LIG A   1      -8.534   4.837 124.246  0.00  0.00    +0.165 HD
ENDROOT
BRANCH   1  17
ATOM     17  C   LIG A   1      -7.372   2.056 127.684  0.00  0.00    +0.059 C 
BRANCH  17  18
ATOM     18  C   LIG A   1      -8.389   1.952 128.856  0.00  0.00    +0.134 C 
BRANCH  18  29
ATOM     19  O   LIG A   1      -8.620   1.326 131.586  0.00  0.00    -0.267 OA
ATOM     20  C   LIG A   1      -8.371   2.474 131.267  0.00  0.00    +0.264 A 
ATOM     21  C   LIG A   1      -8.295   3.532 132.318  0.00  0.00    +0.063 A 
ATOM     22  C   LIG A   1      -8.004   4.840 131.934  0.00  0.00    +0.056 A 
ATOM     23  C   LIG A   1      -7.944   5.881 132.854  0.00  0.00    +0.026 A 
ATOM     24  C   LIG A   1      -8.166   5.597 134.197  0.00  0.00    +0.002 A 
ATOM     25  C   LIG A   1      -8.455   4.288 134.598  0.00  0.00    +0.001 A 
ATOM     26  C   LIG A   1      -8.524   3.251 133.661  0.00  0.00    +0.015 A 
ATOM     27  N   LIG A   1      -7.907   5.124 130.578  0.00  0.00    -0.307 N 
ATOM     28  C   LIG A   1      -8.492   4.231 129.736  0.00  0.00    +0.330 A 
ATOM     29  N   LIG A   1      -8.212   2.915 129.954  0.00  0.00    -0.260 N 
ATOM     30  O   LIG A   1      -9.282   4.673 128.884  0.00  0.00    -0.246 OA
ATOM     31  H   LIG A   1      -7.924   6.090 130.283  0.00  0.00    +0.170 HD
ENDBRANCH  18  29
ENDBRANCH  17  18
ENDBRANCH   1  17
TORSDOF 3
ENDMDL
