MODEL 1
REMARK VINA RESULT:      -7.3      0.000      0.000
REMARK  Name = NuBBE_2461
REMARK  12 active torsions:
REMARK  status: ('A' for Active; 'I' for Inactive)
REMARK    1  A    between atoms: C_1  and  O_2
REMARK    2  A    between atoms: O_2  and  C_3
REMARK    3  A    between atoms: C_4  and  O_5
REMARK    4  A    between atoms: C_8  and  C_10
REMARK    5  A    between atoms: C_13  and  O_14
REMARK    6  A    between atoms: O_14  and  C_15
REMARK    7  A    between atoms: C_16  and  O_17
REMARK    8  A    between atoms: O_17  and  C_18
REMARK    9  A    between atoms: C_20  and  C_22
REMARK   10  A    between atoms: C_22  and  O_23
REMARK   11  A    between atoms: C_24  and  C_26
REMARK   12  A    between atoms: C_26  and  O_27
REMARK                            x       y       z     vdW  Elec       q    Type
REMARK                         _______ _______ _______ _____ _____    ______ ____
ROOT
ATOM      1  C   LIG A   1      -7.287   2.197 124.823  0.00  0.00    +0.162 A 
ATOM      2  C   LIG A   1      -8.217   1.798 125.781  0.00  0.00    +0.159 A 
ATOM      3  C   LIG A   1      -8.625   0.476 125.877  0.00  0.00    +0.053 A 
ATOM      4  C   LIG A   1      -8.067  -0.504 125.032  0.00  0.00    -0.033 A 
ATOM      5  C   LIG A   1      -8.421  -1.968 125.279  0.00  0.00    +0.055 C 
ATOM      6  C   LIG A   1      -8.025  -2.916 124.110  0.00  0.00    +0.032 C 
ATOM      7  C   LIG A   1      -6.648  -2.579 123.473  0.00  0.00    +0.025 C 
ATOM      8  C   LIG A   1      -6.538  -1.099 123.082  0.00  0.00    +0.041 C 
ATOM      9  C   LIG A   1      -7.120  -0.118 124.067  0.00  0.00    -0.040 A 
ATOM     10  C   LIG A   1      -6.745   1.239 123.968  0.00  0.00    +0.053 A 
ENDROOT
BRANCH   5  11
ATOM     11  C   LIG A   1      -7.938  -2.470 126.644  0.00  0.00    -0.036 A 
ATOM     12  C   LIG A   1      -8.743  -3.305 127.413  0.00  0.00    +0.008 A 
ATOM     13  C   LIG A   1      -8.337  -3.707 128.689  0.00  0.00    +0.050 A 
ATOM     14  C   LIG A   1      -7.115  -3.269 129.226  0.00  0.00    +0.162 A 
ATOM     15  C   LIG A   1      -6.281  -2.448 128.457  0.00  0.00    +0.162 A 
ATOM     16  C   LIG A   1      -6.701  -2.065 127.178  0.00  0.00    +0.053 A 
BRANCH  14  17
ATOM     17  O   LIG A   1      -6.664  -3.654 130.467  0.00  0.00    -0.491 OA
ATOM     18  C   LIG A   1      -7.248  -2.987 131.580  0.00  0.00    +0.277 C 
ENDBRANCH  14  17
BRANCH  15  19
ATOM     19  O   LIG A   1      -5.087  -2.036 129.002  0.00  0.00    -0.491 OA
ATOM     20  C   LIG A   1      -5.014  -0.679 129.436  0.00  0.00    +0.277 C 
ENDBRANCH  15  19
ENDBRANCH   5  11
BRANCH   1  22
ATOM     21  C   LIG A   1      -6.086   3.949 123.796  0.00  0.00    +0.277 C 
ATOM     22  O   LIG A   1      -6.960   3.529 124.839  0.00  0.00    -0.491 OA
ENDBRANCH   1  22
BRANCH   2  23
ATOM     23  O   LIG A   1      -8.742   2.706 126.658  0.00  0.00    -0.503 OA
ATOM     24  H   LIG A   1      -8.847   3.527 126.140  0.00  0.00    +0.292 HD
ENDBRANCH   2  23
BRANCH   6  25
ATOM     25  C   LIG A   1      -9.154  -2.889 123.057  0.00  0.00    +0.160 C 
BRANCH  25  26
ATOM     26  O   LIG A   1     -10.288  -3.639 123.475  0.00  0.00    -0.395 OA
ATOM     27  H   LIG A   1     -11.034  -3.019 123.560  0.00  0.00    +0.209 HD
ENDBRANCH  25  26
ENDBRANCH   6  25
BRANCH   7  28
ATOM     28  C   LIG A   1      -5.444  -3.029 124.311  0.00  0.00    +0.160 C 
BRANCH  28  29
ATOM     29  O   LIG A   1      -4.730  -4.045 123.615  0.00  0.00    -0.395 OA
ATOM     30  H   LIG A   1      -3.829  -3.706 123.463  0.00  0.00    +0.209 HD
ENDBRANCH  28  29
ENDBRANCH   7  28
TORSDOF 9
ENDMDL
MODEL 2
REMARK VINA RESULT:      -6.4      6.934     10.170
REMARK  Name = NuBBE_2461
REMARK  12 active torsions:
REMARK  status: ('A' for Active; 'I' for Inactive)
REMARK    1  A    between atoms: C_1  and  O_2
REMARK    2  A    between atoms: O_2  and  C_3
REMARK    3  A    between atoms: C_4  and  O_5
REMARK    4  A    between atoms: C_8  and  C_10
REMARK    5  A    between atoms: C_13  and  O_14
REMARK    6  A    between atoms: O_14  and  C_15
REMARK    7  A    between atoms: C_16  and  O_17
REMARK    8  A    between atoms: O_17  and  C_18
REMARK    9  A    between atoms: C_20  and  C_22
REMARK   10  A    between atoms: C_22  and  O_23
REMARK   11  A    between atoms: C_24  and  C_26
REMARK   12  A    between atoms: C_26  and  O_27
REMARK                            x       y       z     vdW  Elec       q    Type
REMARK                         _______ _______ _______ _____ _____    ______ ____
ROOT
ATOM      1  C   LIG A   1      -3.083   3.427 128.046  0.00  0.00    +0.162 A 
ATOM      2  C   LIG A   1      -3.813   2.775 129.037  0.00  0.00    +0.159 A 
ATOM      3  C   LIG A   1      -4.024   3.362 130.276  0.00  0.00    +0.053 A 
ATOM      4  C   LIG A   1      -3.541   4.659 130.540  0.00  0.00    -0.033 A 
ATOM      5  C   LIG A   1      -3.935   5.330 131.853  0.00  0.00    +0.055 C 
ATOM      6  C   LIG A   1      -3.095   6.598 132.187  0.00  0.00    +0.032 C 
ATOM      7  C   LIG A   1      -2.799   7.493 130.951  0.00  0.00    +0.025 C 
ATOM      8  C   LIG A   1      -2.202   6.691 129.786  0.00  0.00    +0.041 C 
ATOM      9  C   LIG A   1      -2.811   5.333 129.546  0.00  0.00    -0.040 A 
ATOM     10  C   LIG A   1      -2.582   4.703 128.304  0.00  0.00    +0.053 A 
ENDROOT
BRANCH   5  11
ATOM     11  C   LIG A   1      -5.444   5.568 131.966  0.00  0.00    -0.036 A 
ATOM     12  C   LIG A   1      -6.160   6.073 130.885  0.00  0.00    +0.008 A 
ATOM     13  C   LIG A   1      -7.524   6.359 131.005  0.00  0.00    +0.050 A 
ATOM     14  C   LIG A   1      -8.197   6.154 132.221  0.00  0.00    +0.162 A 
ATOM     15  C   LIG A   1      -7.498   5.624 133.313  0.00  0.00    +0.162 A 
ATOM     16  C   LIG A   1      -6.136   5.334 133.168  0.00  0.00    +0.053 A 
BRANCH  14  17
ATOM     17  O   LIG A   1      -9.539   6.401 132.382  0.00  0.00    -0.491 OA
ATOM     18  C   LIG A   1     -10.362   6.163 131.245  0.00  0.00    +0.277 C 
ENDBRANCH  14  17
BRANCH  15  19
ATOM     19  O   LIG A   1      -8.179   5.426 134.492  0.00  0.00    -0.491 OA
ATOM     20  C   LIG A   1      -7.435   5.589 135.697  0.00  0.00    +0.277 C 
ENDBRANCH  15  19
ENDBRANCH   5  11
BRANCH   1  22
ATOM     21  C   LIG A   1      -1.715   2.932 126.188  0.00  0.00    +0.277 C 
ATOM     22  O   LIG A   1      -2.955   2.745 126.863  0.00  0.00    -0.491 OA
ENDBRANCH   1  22
BRANCH   2  23
ATOM     23  O   LIG A   1      -4.349   1.539 128.803  0.00  0.00    -0.503 OA
ATOM     24  H   LIG A   1      -3.763   0.916 129.276  0.00  0.00    +0.292 HD
ENDBRANCH   2  23
BRANCH   6  25
ATOM     25  C   LIG A   1      -1.791   6.150 132.883  0.00  0.00    +0.160 C 
BRANCH  25  26
ATOM     26  O   LIG A   1      -1.996   5.017 133.717  0.00  0.00    -0.395 OA
ATOM     27  H   LIG A   1      -2.646   4.441 133.274  0.00  0.00    +0.209 HD
ENDBRANCH  25  26
ENDBRANCH   6  25
BRANCH   7  28
ATOM     28  C   LIG A   1      -3.992   8.343 130.494  0.00  0.00    +0.160 C 
BRANCH  28  29
ATOM     29  O   LIG A   1      -4.048   8.361 129.072  0.00  0.00    -0.395 OA
ATOM     30  H   LIG A   1      -3.180   8.668 128.756  0.00  0.00    +0.209 HD
ENDBRANCH  28  29
ENDBRANCH   7  28
TORSDOF 9
ENDMDL
MODEL 3
REMARK VINA RESULT:      -6.4      7.777     10.013
REMARK  Name = NuBBE_2461
REMARK  12 active torsions:
REMARK  status: ('A' for Active; 'I' for Inactive)
REMARK    1  A    between atoms: C_1  and  O_2
REMARK    2  A    between atoms: O_2  and  C_3
REMARK    3  A    between atoms: C_4  and  O_5
REMARK    4  A    between atoms: C_8  and  C_10
REMARK    5  A    between atoms: C_13  and  O_14
REMARK    6  A    between atoms: O_14  and  C_15
REMARK    7  A    between atoms: C_16  and  O_17
REMARK    8  A    between atoms: O_17  and  C_18
REMARK    9  A    between atoms: C_20  and  C_22
REMARK   10  A    between atoms: C_22  and  O_23
REMARK   11  A    between atoms: C_24  and  C_26
REMARK   12  A    between atoms: C_26  and  O_27
REMARK                            x       y       z     vdW  Elec       q    Type
REMARK                         _______ _______ _______ _____ _____    ______ ____
ROOT
ATOM      1  C   LIG A   1     -10.805   6.206 129.546  0.00  0.00    +0.162 A 
ATOM      2  C   LIG A   1      -9.889   7.255 129.514  0.00  0.00    +0.159 A 
ATOM      3  C   LIG A   1      -8.806   7.289 130.379  0.00  0.00    +0.053 A 
ATOM      4  C   LIG A   1      -8.582   6.230 131.281  0.00  0.00    -0.033 A 
ATOM      5  C   LIG A   1      -7.293   6.226 132.098  0.00  0.00    +0.055 C 
ATOM      6  C   LIG A   1      -7.300   5.212 133.278  0.00  0.00    +0.032 C 
ATOM      7  C   LIG A   1      -7.964   3.850 132.927  0.00  0.00    +0.025 C 
ATOM      8  C   LIG A   1      -9.357   4.029 132.307  0.00  0.00    +0.041 C 
ATOM      9  C   LIG A   1      -9.492   5.159 131.318  0.00  0.00    -0.040 A 
ATOM     10  C   LIG A   1     -10.605   5.163 130.450  0.00  0.00    +0.053 A 
ENDROOT
BRANCH   5  11
ATOM     11  C   LIG A   1      -6.040   6.115 131.223  0.00  0.00    -0.036 A 
ATOM     12  C   LIG A   1      -6.034   5.291 130.103  0.00  0.00    +0.008 A 
ATOM     13  C   LIG A   1      -4.872   5.130 129.342  0.00  0.00    +0.050 A 
ATOM     14  C   LIG A   1      -3.683   5.788 129.699  0.00  0.00    +0.162 A 
ATOM     15  C   LIG A   1      -3.676   6.641 130.811  0.00  0.00    +0.162 A 
ATOM     16  C   LIG A   1      -4.854   6.796 131.552  0.00  0.00    +0.053 A 
BRANCH  14  17
ATOM     17  O   LIG A   1      -2.522   5.678 128.973  0.00  0.00    -0.491 OA
ATOM     18  C   LIG A   1      -2.586   4.866 127.806  0.00  0.00    +0.277 C 
ENDBRANCH  14  17
BRANCH  15  19
ATOM     19  O   LIG A   1      -2.502   7.279 131.138  0.00  0.00    -0.491 OA
ATOM     20  C   LIG A   1      -2.429   7.861 132.438  0.00  0.00    +0.277 C 
ENDBRANCH  15  19
ENDBRANCH   5  11
BRANCH   1  22
ATOM     21  C   LIG A   1     -13.046   6.818 129.135  0.00  0.00    +0.277 C 
ATOM     22  O   LIG A   1     -11.825   6.286 128.633  0.00  0.00    -0.491 OA
ENDBRANCH   1  22
BRANCH   2  23
ATOM     23  O   LIG A   1     -10.036   8.276 128.616  0.00  0.00    -0.503 OA
ATOM     24  H   LIG A   1      -9.128   8.589 128.438  0.00  0.00    +0.292 HD
ENDBRANCH   2  23
BRANCH   6  25
ATOM     25  C   LIG A   1      -7.988   5.878 134.490  0.00  0.00    +0.160 C 
BRANCH  25  26
ATOM     26  O   LIG A   1      -8.436   4.918 135.439  0.00  0.00    -0.395 OA
ATOM     27  H   LIG A   1      -7.718   4.273 135.565  0.00  0.00    +0.209 HD
ENDBRANCH  25  26
ENDBRANCH   6  25
BRANCH   7  28
ATOM     28  C   LIG A   1      -7.085   2.927 132.074  0.00  0.00    +0.160 C 
BRANCH  28  29
ATOM     29  O   LIG A   1      -5.790   2.828 132.656  0.00  0.00    -0.395 OA
ATOM     30  H   LIG A   1      -5.144   2.955 131.939  0.00  0.00    +0.209 HD
ENDBRANCH  28  29
ENDBRANCH   7  28
TORSDOF 9
ENDMDL
MODEL 4
REMARK VINA RESULT:      -6.2      3.441      6.810
REMARK  Name = NuBBE_2461
REMARK  12 active torsions:
REMARK  status: ('A' for Active; 'I' for Inactive)
REMARK    1  A    between atoms: C_1  and  O_2
REMARK    2  A    between atoms: O_2  and  C_3
REMARK    3  A    between atoms: C_4  and  O_5
REMARK    4  A    between atoms: C_8  and  C_10
REMARK    5  A    between atoms: C_13  and  O_14
REMARK    6  A    between atoms: O_14  and  C_15
REMARK    7  A    between atoms: C_16  and  O_17
REMARK    8  A    between atoms: O_17  and  C_18
REMARK    9  A    between atoms: C_20  and  C_22
REMARK   10  A    between atoms: C_22  and  O_23
REMARK   11  A    between atoms: C_24  and  C_26
REMARK   12  A    between atoms: C_26  and  O_27
REMARK                            x       y       z     vdW  Elec       q    Type
REMARK                         _______ _______ _______ _____ _____    ______ ____
ROOT
ATOM      1  C   LIG A   1      -7.703  -0.927 126.412  0.00  0.00    +0.162 A 
ATOM      2  C   LIG A   1      -6.311  -0.866 126.407  0.00  0.00    +0.159 A 
ATOM      3  C   LIG A   1      -5.643   0.253 125.935  0.00  0.00    +0.053 A 
ATOM      4  C   LIG A   1      -6.366   1.378 125.493  0.00  0.00    -0.033 A 
ATOM      5  C   LIG A   1      -5.596   2.647 125.136  0.00  0.00    +0.055 C 
ATOM      6  C   LIG A   1      -6.441   3.697 124.358  0.00  0.00    +0.032 C 
ATOM      7  C   LIG A   1      -7.900   3.832 124.877  0.00  0.00    +0.025 C 
ATOM      8  C   LIG A   1      -8.608   2.474 124.972  0.00  0.00    +0.041 C 
ATOM      9  C   LIG A   1      -7.771   1.336 125.501  0.00  0.00    -0.040 A 
ATOM     10  C   LIG A   1      -8.428   0.173 125.956  0.00  0.00    +0.053 A 
ENDROOT
BRANCH   5  11
ATOM     11  C   LIG A   1      -4.857   3.247 126.337  0.00  0.00    -0.036 A 
ATOM     12  C   LIG A   1      -3.589   3.796 126.182  0.00  0.00    +0.008 A 
ATOM     13  C   LIG A   1      -2.881   4.279 127.287  0.00  0.00    +0.050 A 
ATOM     14  C   LIG A   1      -3.432   4.210 128.578  0.00  0.00    +0.162 A 
ATOM     15  C   LIG A   1      -4.717   3.682 128.750  0.00  0.00    +0.162 A 
ATOM     16  C   LIG A   1      -5.413   3.214 127.629  0.00  0.00    +0.053 A 
BRANCH  14  17
ATOM     17  O   LIG A   1      -2.784   4.690 129.692  0.00  0.00    -0.491 OA
ATOM     18  C   LIG A   1      -2.488   6.082 129.694  0.00  0.00    +0.277 C 
ENDBRANCH  14  17
BRANCH  15  19
ATOM     19  O   LIG A   1      -5.238   3.630 130.023  0.00  0.00    -0.491 OA
ATOM     20  C   LIG A   1      -6.371   4.455 130.287  0.00  0.00    +0.277 C 
ENDBRANCH  15  19
ENDBRANCH   5  11
BRANCH   1  22
ATOM     21  C   LIG A   1      -8.897  -2.911 125.958  0.00  0.00    +0.277 C 
ATOM     22  O   LIG A   1      -8.241  -2.085 126.914  0.00  0.00    -0.491 OA
ENDBRANCH   1  22
BRANCH   2  23
ATOM     23  O   LIG A   1      -5.570  -1.914 126.881  0.00  0.00    -0.503 OA
ATOM     24  H   LIG A   1      -6.157  -2.692 126.809  0.00  0.00    +0.292 HD
ENDBRANCH   2  23
BRANCH   6  25
ATOM     25  C   LIG A   1      -6.408   3.335 122.857  0.00  0.00    +0.160 C 
BRANCH  25  26
ATOM     26  O   LIG A   1      -5.946   4.418 122.060  0.00  0.00    -0.395 OA
ATOM     27  H   LIG A   1      -5.581   5.090 122.662  0.00  0.00    +0.209 HD
ENDBRANCH  25  26
ENDBRANCH   6  25
BRANCH   7  28
ATOM     28  C   LIG A   1      -8.028   4.624 126.185  0.00  0.00    +0.160 C 
BRANCH  28  29
ATOM     29  O   LIG A   1      -8.984   5.666 126.021  0.00  0.00    -0.395 OA
ATOM     30  H   LIG A   1      -8.569   6.487 126.340  0.00  0.00    +0.209 HD
ENDBRANCH  28  29
ENDBRANCH   7  28
TORSDOF 9
ENDMDL
MODEL 5
REMARK VINA RESULT:      -6.2      6.696      9.981
REMARK  Name = NuBBE_2461
REMARK  12 active torsions:
REMARK  status: ('A' for Active; 'I' for Inactive)
REMARK    1  A    between atoms: C_1  and  O_2
REMARK    2  A    between atoms: O_2  and  C_3
REMARK    3  A    between atoms: C_4  and  O_5
REMARK    4  A    between atoms: C_8  and  C_10
REMARK    5  A    between atoms: C_13  and  O_14
REMARK    6  A    between atoms: O_14  and  C_15
REMARK    7  A    between atoms: C_16  and  O_17
REMARK    8  A    between atoms: O_17  and  C_18
REMARK    9  A    between atoms: C_20  and  C_22
REMARK   10  A    between atoms: C_22  and  O_23
REMARK   11  A    between atoms: C_24  and  C_26
REMARK   12  A    between atoms: C_26  and  O_27
REMARK                            x       y       z     vdW  Elec       q    Type
REMARK                         _______ _______ _______ _____ _____    ______ ____
ROOT
ATOM      1  C   LIG A   1     -10.223   6.293 131.236  0.00  0.00    +0.162 A 
ATOM      2  C   LIG A   1      -9.125   6.955 130.693  0.00  0.00    +0.159 A 
ATOM      3  C   LIG A   1      -7.852   6.786 131.217  0.00  0.00    +0.053 A 
ATOM      4  C   LIG A   1      -7.638   5.896 132.288  0.00  0.00    -0.033 A 
ATOM      5  C   LIG A   1      -6.203   5.615 132.728  0.00  0.00    +0.055 C 
ATOM      6  C   LIG A   1      -6.097   4.894 134.102  0.00  0.00    +0.032 C 
ATOM      7  C   LIG A   1      -7.171   3.789 134.312  0.00  0.00    +0.025 C 
ATOM      8  C   LIG A   1      -8.590   4.302 134.035  0.00  0.00    +0.041 C 
ATOM      9  C   LIG A   1      -8.735   5.212 132.841  0.00  0.00    -0.040 A 
ATOM     10  C   LIG A   1     -10.025   5.426 132.310  0.00  0.00    +0.053 A 
ENDROOT
BRANCH   5  11
ATOM     11  C   LIG A   1      -5.372   4.938 131.633  0.00  0.00    -0.036 A 
ATOM     12  C   LIG A   1      -3.989   5.084 131.605  0.00  0.00    +0.008 A 
ATOM     13  C   LIG A   1      -3.234   4.528 130.568  0.00  0.00    +0.050 A 
ATOM     14  C   LIG A   1      -3.856   3.819 129.527  0.00  0.00    +0.162 A 
ATOM     15  C   LIG A   1      -5.245   3.641 129.550  0.00  0.00    +0.162 A 
ATOM     16  C   LIG A   1      -5.981   4.197 130.604  0.00  0.00    +0.053 A 
BRANCH  14  17
ATOM     17  O   LIG A   1      -3.156   3.237 128.498  0.00  0.00    -0.491 OA
ATOM     18  C   LIG A   1      -2.514   4.129 127.593  0.00  0.00    +0.277 C 
ENDBRANCH  14  17
BRANCH  15  19
ATOM     19  O   LIG A   1      -5.832   2.938 128.523  0.00  0.00    -0.491 OA
ATOM     20  C   LIG A   1      -7.253   2.827 128.552  0.00  0.00    +0.277 C 
ENDBRANCH  15  19
ENDBRANCH   5  11
BRANCH   1  22
ATOM     21  C   LIG A   1     -12.435   7.082 131.461  0.00  0.00    +0.277 C 
ATOM     22  O   LIG A   1     -11.424   6.537 130.620  0.00  0.00    -0.491 OA
ENDBRANCH   1  22
BRANCH   2  23
ATOM     23  O   LIG A   1      -9.279   7.785 129.617  0.00  0.00    -0.503 OA
ATOM     24  H   LIG A   1      -8.384   8.128 129.431  0.00  0.00    +0.292 HD
ENDBRANCH   2  23
BRANCH   6  25
ATOM     25  C   LIG A   1      -6.160   5.959 135.219  0.00  0.00    +0.160 C 
BRANCH  25  26
ATOM     26  O   LIG A   1      -6.268   5.371 136.509  0.00  0.00    -0.395 OA
ATOM     27  H   LIG A   1      -5.384   5.393 136.916  0.00  0.00    +0.209 HD
ENDBRANCH  25  26
ENDBRANCH   6  25
BRANCH   7  28
ATOM     28  C   LIG A   1      -6.886   2.488 133.552  0.00  0.00    +0.160 C 
BRANCH  28  29
ATOM     29  O   LIG A   1      -8.100   1.773 133.356  0.00  0.00    -0.395 OA
ATOM     30  H   LIG A   1      -7.875   0.951 132.884  0.00  0.00    +0.209 HD
ENDBRANCH  28  29
ENDBRANCH   7  28
TORSDOF 9
ENDMDL
MODEL 6
REMARK VINA RESULT:      -6.2      1.701      6.303
REMARK  Name = NuBBE_2461
REMARK  12 active torsions:
REMARK  status: ('A' for Active; 'I' for Inactive)
REMARK    1  A    between atoms: C_1  and  O_2
REMARK    2  A    between atoms: O_2  and  C_3
REMARK    3  A    between atoms: C_4  and  O_5
REMARK    4  A    between atoms: C_8  and  C_10
REMARK    5  A    between atoms: C_13  and  O_14
REMARK    6  A    between atoms: O_14  and  C_15
REMARK    7  A    between atoms: C_16  and  O_17
REMARK    8  A    between atoms: O_17  and  C_18
REMARK    9  A    between atoms: C_20  and  C_22
REMARK   10  A    between atoms: C_22  and  O_23
REMARK   11  A    between atoms: C_24  and  C_26
REMARK   12  A    between atoms: C_26  and  O_27
REMARK                            x       y       z     vdW  Elec       q    Type
REMARK                         _______ _______ _______ _____ _____    ______ ____
ROOT
ATOM      1  C   LIG A   1      -6.115  -2.888 129.172  0.00  0.00    +0.162 A 
ATOM      2  C   LIG A   1      -5.007  -2.412 128.474  0.00  0.00    +0.159 A 
ATOM      3  C   LIG A   1      -5.127  -1.925 127.182  0.00  0.00    +0.053 A 
ATOM      4  C   LIG A   1      -6.391  -1.856 126.563  0.00  0.00    -0.033 A 
ATOM      5  C   LIG A   1      -6.503  -1.163 125.207  0.00  0.00    +0.055 C 
ATOM      6  C   LIG A   1      -7.850  -1.431 124.475  0.00  0.00    +0.032 C 
ATOM      7  C   LIG A   1      -9.085  -1.426 125.418  0.00  0.00    +0.025 C 
ATOM      8  C   LIG A   1      -8.891  -2.348 126.629  0.00  0.00    +0.041 C 
ATOM      9  C   LIG A   1      -7.520  -2.323 127.258  0.00  0.00    -0.040 A 
ATOM     10  C   LIG A   1      -7.368  -2.844 128.561  0.00  0.00    +0.053 A 
ENDROOT
BRANCH   5  11
ATOM     11  C   LIG A   1      -6.145   0.325 125.273  0.00  0.00    -0.036 A 
ATOM     12  C   LIG A   1      -5.328   0.808 126.289  0.00  0.00    +0.008 A 
ATOM     13  C   LIG A   1      -5.056   2.176 126.396  0.00  0.00    +0.050 A 
ATOM     14  C   LIG A   1      -5.611   3.091 125.486  0.00  0.00    +0.162 A 
ATOM     15  C   LIG A   1      -6.417   2.620 124.442  0.00  0.00    +0.162 A 
ATOM     16  C   LIG A   1      -6.667   1.246 124.347  0.00  0.00    +0.053 A 
BRANCH  14  17
ATOM     17  O   LIG A   1      -5.357   4.441 125.537  0.00  0.00    -0.491 OA
ATOM     18  C   LIG A   1      -4.768   4.924 126.739  0.00  0.00    +0.277 C 
ENDBRANCH  14  17
BRANCH  15  19
ATOM     19  O   LIG A   1      -6.945   3.535 123.559  0.00  0.00    -0.491 OA
ATOM     20  C   LIG A   1      -6.402   3.541 122.241  0.00  0.00    +0.277 C 
ENDBRANCH  15  19
ENDBRANCH   5  11
BRANCH   1  22
ATOM     21  C   LIG A   1      -5.708  -4.742 130.573  0.00  0.00    +0.277 C 
ATOM     22  O   LIG A   1      -5.865  -3.333 130.445  0.00  0.00    -0.491 OA
ENDBRANCH   1  22
BRANCH   2  23
ATOM     23  O   LIG A   1      -3.771  -2.408 129.058  0.00  0.00    -0.503 OA
ATOM     24  H   LIG A   1      -3.662  -1.505 129.415  0.00  0.00    +0.292 HD
ENDBRANCH   2  23
BRANCH   6  25
ATOM     25  C   LIG A   1      -7.732  -2.767 123.708  0.00  0.00    +0.160 C 
BRANCH  25  26
ATOM     26  O   LIG A   1      -8.981  -3.182 123.169  0.00  0.00    -0.395 OA
ATOM     27  H   LIG A   1      -8.896  -3.183 122.199  0.00  0.00    +0.209 HD
ENDBRANCH  25  26
ENDBRANCH   6  25
BRANCH   7  28
ATOM     28  C   LIG A   1      -9.539  -0.025 125.847  0.00  0.00    +0.160 C 
BRANCH  28  29
ATOM     29  O   LIG A   1     -10.189   0.621 124.758  0.00  0.00    -0.395 OA
ATOM     30  H   LIG A   1      -9.955   0.126 123.952  0.00  0.00    +0.209 HD
ENDBRANCH  28  29
ENDBRANCH   7  28
TORSDOF 9
ENDMDL
MODEL 7
REMARK VINA RESULT:      -6.1     10.913     14.331
REMARK  Name = NuBBE_2461
REMARK  12 active torsions:
REMARK  status: ('A' for Active; 'I' for Inactive)
REMARK    1  A    between atoms: C_1  and  O_2
REMARK    2  A    between atoms: O_2  and  C_3
REMARK    3  A    between atoms: C_4  and  O_5
REMARK    4  A    between atoms: C_8  and  C_10
REMARK    5  A    between atoms: C_13  and  O_14
REMARK    6  A    between atoms: O_14  and  C_15
REMARK    7  A    between atoms: C_16  and  O_17
REMARK    8  A    between atoms: O_17  and  C_18
REMARK    9  A    between atoms: C_20  and  C_22
REMARK   10  A    between atoms: C_22  and  O_23
REMARK   11  A    between atoms: C_24  and  C_26
REMARK   12  A    between atoms: C_26  and  O_27
REMARK                            x       y       z     vdW  Elec       q    Type
REMARK                         _______ _______ _______ _____ _____    ______ ____
ROOT
ATOM      1  C   LIG A   1      -2.403   6.851 129.583  0.00  0.00    +0.162 A 
ATOM      2  C   LIG A   1      -3.376   7.779 129.947  0.00  0.00    +0.159 A 
ATOM      3  C   LIG A   1      -3.528   8.180 131.266  0.00  0.00    +0.053 A 
ATOM      4  C   LIG A   1      -2.662   7.689 132.263  0.00  0.00    -0.033 A 
ATOM      5  C   LIG A   1      -2.757   8.278 133.668  0.00  0.00    +0.055 C 
ATOM      6  C   LIG A   1      -2.003   7.450 134.748  0.00  0.00    +0.032 C 
ATOM      7  C   LIG A   1      -0.635   6.892 134.265  0.00  0.00    +0.025 C 
ATOM      8  C   LIG A   1      -0.756   6.136 132.935  0.00  0.00    +0.041 C 
ATOM      9  C   LIG A   1      -1.668   6.759 131.909  0.00  0.00    -0.040 A 
ATOM     10  C   LIG A   1      -1.554   6.342 130.565  0.00  0.00    +0.053 A 
ENDROOT
BRANCH   5  11
ATOM     11  C   LIG A   1      -2.408   9.769 133.708  0.00  0.00    -0.036 A 
ATOM     12  C   LIG A   1      -2.656  10.520 134.852  0.00  0.00    +0.008 A 
ATOM     13  C   LIG A   1      -2.405  11.896 134.869  0.00  0.00    +0.050 A 
ATOM     14  C   LIG A   1      -1.910  12.550 133.729  0.00  0.00    +0.162 A 
ATOM     15  C   LIG A   1      -1.632  11.806 132.575  0.00  0.00    +0.162 A 
ATOM     16  C   LIG A   1      -1.880  10.428 132.583  0.00  0.00    +0.053 A 
BRANCH  14  17
ATOM     17  O   LIG A   1      -1.629  13.895 133.703  0.00  0.00    -0.491 OA
ATOM     18  C   LIG A   1      -1.959  14.628 134.878  0.00  0.00    +0.277 C 
ENDBRANCH  14  17
BRANCH  15  19
ATOM     19  O   LIG A   1      -1.142  12.468 131.473  0.00  0.00    -0.491 OA
ATOM     20  C   LIG A   1       0.273  12.616 131.391  0.00  0.00    +0.277 C 
ENDBRANCH  15  19
ENDBRANCH   5  11
BRANCH   1  22
ATOM     21  C   LIG A   1      -2.651   5.194 127.922  0.00  0.00    +0.277 C 
ATOM     22  O   LIG A   1      -2.349   6.547 128.247  0.00  0.00    -0.491 OA
ENDBRANCH   1  22
BRANCH   2  23
ATOM     23  O   LIG A   1      -4.201   8.325 129.003  0.00  0.00    -0.503 OA
ATOM     24  H   LIG A   1      -5.059   7.874 129.125  0.00  0.00    +0.292 HD
ENDBRANCH   2  23
BRANCH   6  25
ATOM     25  C   LIG A   1      -2.934   6.316 135.232  0.00  0.00    +0.160 C 
BRANCH  25  26
ATOM     26  O   LIG A   1      -2.473   5.731 136.444  0.00  0.00    -0.395 OA
ATOM     27  H   LIG A   1      -2.169   4.829 136.238  0.00  0.00    +0.209 HD
ENDBRANCH  25  26
ENDBRANCH   6  25
BRANCH   7  28
ATOM     28  C   LIG A   1       0.485   7.939 134.215  0.00  0.00    +0.160 C 
BRANCH  28  29
ATOM     29  O   LIG A   1       0.494   8.687 135.426  0.00  0.00    -0.395 OA
ATOM     30  H   LIG A   1       0.505   8.045 136.158  0.00  0.00    +0.209 HD
ENDBRANCH  28  29
ENDBRANCH   7  28
TORSDOF 9
ENDMDL
MODEL 8
REMARK VINA RESULT:      -6.1      2.920      6.113
REMARK  Name = NuBBE_2461
REMARK  12 active torsions:
REMARK  status: ('A' for Active; 'I' for Inactive)
REMARK    1  A    between atoms: C_1  and  O_2
REMARK    2  A    between atoms: O_2  and  C_3
REMARK    3  A    between atoms: C_4  and  O_5
REMARK    4  A    between atoms: C_8  and  C_10
REMARK    5  A    between atoms: C_13  and  O_14
REMARK    6  A    between atoms: O_14  and  C_15
REMARK    7  A    between atoms: C_16  and  O_17
REMARK    8  A    between atoms: O_17  and  C_18
REMARK    9  A    between atoms: C_20  and  C_22
REMARK   10  A    between atoms: C_22  and  O_23
REMARK   11  A    between atoms: C_24  and  C_26
REMARK   12  A    between atoms: C_26  and  O_27
REMARK                            x       y       z     vdW  Elec       q    Type
REMARK                         _______ _______ _______ _____ _____    ______ ____
ROOT
ATOM      1  C   LIG A   1      -9.109  -1.812 125.492  0.00  0.00    +0.162 A 
ATOM      2  C   LIG A   1      -9.207  -0.422 125.499  0.00  0.00    +0.159 A 
ATOM      3  C   LIG A   1      -8.672   0.330 126.534  0.00  0.00    +0.053 A 
ATOM      4  C   LIG A   1      -7.970  -0.299 127.581  0.00  0.00    -0.033 A 
ATOM      5  C   LIG A   1      -7.257   0.574 128.610  0.00  0.00    +0.055 C 
ATOM      6  C   LIG A   1      -6.803  -0.198 129.882  0.00  0.00    +0.032 C 
ATOM      7  C   LIG A   1      -6.233  -1.614 129.583  0.00  0.00    +0.025 C 
ATOM      8  C   LIG A   1      -7.181  -2.445 128.708  0.00  0.00    +0.041 C 
ATOM      9  C   LIG A   1      -7.853  -1.700 127.582  0.00  0.00    -0.040 A 
ATOM     10  C   LIG A   1      -8.434  -2.447 126.534  0.00  0.00    +0.053 A 
ENDROOT
BRANCH   5  11
ATOM     11  C   LIG A   1      -6.137   1.419 127.993  0.00  0.00    -0.036 A 
ATOM     12  C   LIG A   1      -5.519   1.016 126.814  0.00  0.00    +0.008 A 
ATOM     13  C   LIG A   1      -4.449   1.745 126.285  0.00  0.00    +0.050 A 
ATOM     14  C   LIG A   1      -3.969   2.892 126.939  0.00  0.00    +0.162 A 
ATOM     15  C   LIG A   1      -4.593   3.325 128.115  0.00  0.00    +0.162 A 
ATOM     16  C   LIG A   1      -5.670   2.588 128.621  0.00  0.00    +0.053 A 
BRANCH  14  17
ATOM     17  O   LIG A   1      -2.933   3.652 126.449  0.00  0.00    -0.491 OA
ATOM     18  C   LIG A   1      -1.635   3.077 126.540  0.00  0.00    +0.277 C 
ENDBRANCH  14  17
BRANCH  15  19
ATOM     19  O   LIG A   1      -4.108   4.454 128.735  0.00  0.00    -0.491 OA
ATOM     20  C   LIG A   1      -3.405   4.261 129.960  0.00  0.00    +0.277 C 
ENDBRANCH  15  19
ENDBRANCH   5  11
BRANCH   1  22
ATOM     21  C   LIG A   1      -8.765  -3.193 123.610  0.00  0.00    +0.277 C 
ATOM     22  O   LIG A   1      -9.670  -2.438 124.408  0.00  0.00    -0.491 OA
ENDBRANCH   1  22
BRANCH   2  23
ATOM     23  O   LIG A   1      -9.831   0.233 124.474  0.00  0.00    -0.503 OA
ATOM     24  H   LIG A   1     -10.385  -0.444 124.040  0.00  0.00    +0.292 HD
ENDBRANCH   2  23
BRANCH   6  25
ATOM     25  C   LIG A   1      -7.994  -0.267 130.863  0.00  0.00    +0.160 C 
BRANCH  25  26
ATOM     26  O   LIG A   1      -7.710  -1.092 131.986  0.00  0.00    -0.395 OA
ATOM     27  H   LIG A   1      -6.936  -0.714 132.439  0.00  0.00    +0.209 HD
ENDBRANCH  25  26
ENDBRANCH   6  25
BRANCH   7  28
ATOM     28  C   LIG A   1      -4.807  -1.607 129.018  0.00  0.00    +0.160 C 
BRANCH  28  29
ATOM     29  O   LIG A   1      -4.003  -0.698 129.760  0.00  0.00    -0.395 OA
ATOM     30  H   LIG A   1      -3.558  -1.214 130.457  0.00  0.00    +0.209 HD
ENDBRANCH  28  29
ENDBRANCH   7  28
TORSDOF 9
ENDMDL
MODEL 9
REMARK VINA RESULT:      -6.1      2.321      5.712
REMARK  Name = NuBBE_2461
REMARK  12 active torsions:
REMARK  status: ('A' for Active; 'I' for Inactive)
REMARK    1  A    between atoms: C_1  and  O_2
REMARK    2  A    between atoms: O_2  and  C_3
REMARK    3  A    between atoms: C_4  and  O_5
REMARK    4  A    between atoms: C_8  and  C_10
REMARK    5  A    between atoms: C_13  and  O_14
REMARK    6  A    between atoms: O_14  and  C_15
REMARK    7  A    between atoms: C_16  and  O_17
REMARK    8  A    between atoms: O_17  and  C_18
REMARK    9  A    between atoms: C_20  and  C_22
REMARK   10  A    between atoms: C_22  and  O_23
REMARK   11  A    between atoms: C_24  and  C_26
REMARK   12  A    between atoms: C_26  and  O_27
REMARK                            x       y       z     vdW  Elec       q    Type
REMARK                         _______ _______ _______ _____ _____    ______ ____
ROOT
ATOM      1  C   LIG A   1      -8.964   2.534 129.502  0.00  0.00    +0.162 A 
ATOM      2  C   LIG A   1      -8.254   2.565 128.303  0.00  0.00    +0.159 A 
ATOM      3  C   LIG A   1      -7.307   1.597 128.004  0.00  0.00    +0.053 A 
ATOM      4  C   LIG A   1      -7.077   0.529 128.892  0.00  0.00    -0.033 A 
ATOM      5  C   LIG A   1      -6.148  -0.600 128.452  0.00  0.00    +0.055 C 
ATOM      6  C   LIG A   1      -5.711  -1.541 129.612  0.00  0.00    +0.032 C 
ATOM      7  C   LIG A   1      -6.851  -1.864 130.619  0.00  0.00    +0.025 C 
ATOM      8  C   LIG A   1      -7.544  -0.595 131.132  0.00  0.00    +0.041 C 
ATOM      9  C   LIG A   1      -7.793   0.478 130.102  0.00  0.00    -0.040 A 
ATOM     10  C   LIG A   1      -8.728   1.492 130.398  0.00  0.00    +0.053 A 
ENDROOT
BRANCH   5  11
ATOM     11  C   LIG A   1      -6.681  -1.362 127.235  0.00  0.00    -0.036 A 
ATOM     12  C   LIG A   1      -8.048  -1.428 126.988  0.00  0.00    +0.008 A 
ATOM     13  C   LIG A   1      -8.544  -2.181 125.918  0.00  0.00    +0.050 A 
ATOM     14  C   LIG A   1      -7.673  -2.895 125.079  0.00  0.00    +0.162 A 
ATOM     15  C   LIG A   1      -6.292  -2.822 125.298  0.00  0.00    +0.162 A 
ATOM     16  C   LIG A   1      -5.816  -2.054 126.367  0.00  0.00    +0.053 A 
BRANCH  14  17
ATOM     17  O   LIG A   1      -8.110  -3.633 124.004  0.00  0.00    -0.491 OA
ATOM     18  C   LIG A   1      -9.405  -3.312 123.508  0.00  0.00    +0.277 C 
ENDBRANCH  14  17
BRANCH  15  19
ATOM     19  O   LIG A   1      -5.458  -3.526 124.459  0.00  0.00    -0.491 OA
ATOM     20  C   LIG A   1      -4.874  -2.800 123.380  0.00  0.00    +0.277 C 
ENDBRANCH  15  19
ENDBRANCH   5  11
BRANCH   1  22
ATOM     21  C   LIG A   1      -9.649   4.381 130.798  0.00  0.00    +0.277 C 
ATOM     22  O   LIG A   1      -9.878   3.542 129.672  0.00  0.00    -0.491 OA
ENDBRANCH   1  22
BRANCH   2  23
ATOM     23  O   LIG A   1      -8.487   3.552 127.386  0.00  0.00    -0.503 OA
ATOM     24  H   LIG A   1      -7.957   3.302 126.604  0.00  0.00    +0.292 HD
ENDBRANCH   2  23
BRANCH   6  25
ATOM     25  C   LIG A   1      -4.495  -0.907 130.323  0.00  0.00    +0.160 C 
BRANCH  25  26
ATOM     26  O   LIG A   1      -3.823   0.031 129.492  0.00  0.00    -0.395 OA
ATOM     27  H   LIG A   1      -3.393   0.683 130.073  0.00  0.00    +0.209 HD
ENDBRANCH  25  26
ENDBRANCH   6  25
BRANCH   7  28
ATOM     28  C   LIG A   1      -7.868  -2.890 130.104  0.00  0.00    +0.160 C 
BRANCH  28  29
ATOM     29  O   LIG A   1      -7.182  -3.982 129.503  0.00  0.00    -0.395 OA
ATOM     30  H   LIG A   1      -7.367  -3.944 128.547  0.00  0.00    +0.209 HD
ENDBRANCH  28  29
ENDBRANCH   7  28
TORSDOF 9
ENDMDL
