MODEL 1
REMARK VINA RESULT:      -7.3      0.000      0.000
REMARK  Name = NuBBE_1661
REMARK  4 active torsions:
REMARK  status: ('A' for Active; 'I' for Inactive)
REMARK    1  A    between atoms: O_1  and  C_2
REMARK    2  A    between atoms: C_5  and  C_15
REMARK    3  A    between atoms: C_12  and  O_13
REMARK    4  A    between atoms: O_13  and  C_14
REMARK                            x       y       z     vdW  Elec       q    Type
REMARK                         _______ _______ _______ _____ _____    ______ ____
ROOT
ATOM      1  C   LIG A   1      -4.872   5.089 121.538  0.00  0.00    +0.159 A 
ATOM      2  C   LIG A   1      -4.737   4.687 122.873  0.00  0.00    +0.061 A 
ATOM      3  C   LIG A   1      -5.582   3.714 123.415  0.00  0.00    +0.029 A 
ATOM      4  C   LIG A   1      -5.484   3.281 124.815  0.00  0.00    -0.000 A 
ATOM      5  C   LIG A   1      -6.307   2.307 125.229  0.00  0.00    +0.101 A 
ATOM      6  C   LIG A   1      -7.304   1.663 124.358  0.00  0.00    +0.338 A 
ATOM      7  O   LIG A   1      -8.013   0.761 124.782  0.00  0.00    -0.245 OA
ATOM      8  O   LIG A   1      -7.406   2.142 123.064  0.00  0.00    -0.422 OA
ATOM      9  C   LIG A   1      -6.549   3.149 122.589  0.00  0.00    +0.143 A 
ATOM     10  C   LIG A   1      -6.701   3.547 121.260  0.00  0.00    +0.096 A 
ATOM     11  C   LIG A   1      -5.859   4.525 120.718  0.00  0.00    +0.165 A 
ENDROOT
BRANCH   4  12
ATOM     12  C   LIG A   1      -4.586   3.864 125.829  0.00  0.00    -0.017 A 
ATOM     13  C   LIG A   1      -3.327   3.293 126.050  0.00  0.00    +0.008 A 
ATOM     14  C   LIG A   1      -2.473   3.824 127.017  0.00  0.00    +0.001 A 
ATOM     15  C   LIG A   1      -2.874   4.927 127.769  0.00  0.00    +0.000 A 
ATOM     16  C   LIG A   1      -4.127   5.500 127.556  0.00  0.00    +0.001 A 
ATOM     17  C   LIG A   1      -4.984   4.971 126.588  0.00  0.00    +0.008 A 
ENDBRANCH   4  12
BRANCH   1  18
ATOM     18  O   LIG A   1      -4.012   6.045 121.071  0.00  0.00    -0.503 OA
ATOM     19  H   LIG A   1      -3.144   5.647 120.896  0.00  0.00    +0.292 HD
ENDBRANCH   1  18
BRANCH  11  20
ATOM     20  O   LIG A   1      -6.128   4.808 119.406  0.00  0.00    -0.491 OA
ATOM     21  C   LIG A   1      -7.411   4.465 118.902  0.00  0.00    +0.277 C 
ENDBRANCH  11  20
TORSDOF 3
ENDMDL
MODEL 2
REMARK VINA RESULT:      -7.2      3.853      6.547
REMARK  Name = NuBBE_1661
REMARK  4 active torsions:
REMARK  status: ('A' for Active; 'I' for Inactive)
REMARK    1  A    between atoms: O_1  and  C_2
REMARK    2  A    between atoms: C_5  and  C_15
REMARK    3  A    between atoms: C_12  and  O_13
REMARK    4  A    between atoms: O_13  and  C_14
REMARK                            x       y       z     vdW  Elec       q    Type
REMARK                         _______ _______ _______ _____ _____    ______ ____
ROOT
ATOM      1  C   LIG A   1      -8.691  -0.875 123.644  0.00  0.00    +0.159 A 
ATOM      2  C   LIG A   1      -8.281   0.400 123.234  0.00  0.00    +0.061 A 
ATOM      3  C   LIG A   1      -8.281   1.472 124.131  0.00  0.00    +0.029 A 
ATOM      4  C   LIG A   1      -7.879   2.828 123.733  0.00  0.00    -0.000 A 
ATOM      5  C   LIG A   1      -7.866   3.781 124.676  0.00  0.00    +0.101 A 
ATOM      6  C   LIG A   1      -8.244   3.538 126.078  0.00  0.00    +0.338 A 
ATOM      7  O   LIG A   1      -8.190   4.439 126.903  0.00  0.00    -0.245 OA
ATOM      8  O   LIG A   1      -8.676   2.263 126.397  0.00  0.00    -0.422 OA
ATOM      9  C   LIG A   1      -8.685   1.235 125.440  0.00  0.00    +0.143 A 
ATOM     10  C   LIG A   1      -9.105  -0.029 125.860  0.00  0.00    +0.096 A 
ATOM     11  C   LIG A   1      -9.110  -1.102 124.962  0.00  0.00    +0.165 A 
ENDROOT
BRANCH   4  12
ATOM     12  C   LIG A   1      -7.532   3.250 122.362  0.00  0.00    -0.017 A 
ATOM     13  C   LIG A   1      -6.186   3.355 121.990  0.00  0.00    +0.008 A 
ATOM     14  C   LIG A   1      -5.844   3.767 120.702  0.00  0.00    +0.001 A 
ATOM     15  C   LIG A   1      -6.843   4.077 119.781  0.00  0.00    +0.000 A 
ATOM     16  C   LIG A   1      -8.185   3.977 120.146  0.00  0.00    +0.001 A 
ATOM     17  C   LIG A   1      -8.532   3.564 121.434  0.00  0.00    +0.008 A 
ENDBRANCH   4  12
BRANCH   1  18
ATOM     18  O   LIG A   1      -8.665  -1.881 122.717  0.00  0.00    -0.503 OA
ATOM     19  H   LIG A   1      -9.014  -2.697 123.110  0.00  0.00    +0.292 HD
ENDBRANCH   1  18
BRANCH  11  20
ATOM     20  O   LIG A   1      -9.544  -2.275 125.519  0.00  0.00    -0.491 OA
ATOM     21  C   LIG A   1      -8.757  -2.850 126.553  0.00  0.00    +0.277 C 
ENDBRANCH  11  20
TORSDOF 3
ENDMDL
MODEL 3
REMARK VINA RESULT:      -6.9      2.743      6.408
REMARK  Name = NuBBE_1661
REMARK  4 active torsions:
REMARK  status: ('A' for Active; 'I' for Inactive)
REMARK    1  A    between atoms: O_1  and  C_2
REMARK    2  A    between atoms: C_5  and  C_15
REMARK    3  A    between atoms: C_12  and  O_13
REMARK    4  A    between atoms: O_13  and  C_14
REMARK                            x       y       z     vdW  Elec       q    Type
REMARK                         _______ _______ _______ _____ _____    ______ ____
ROOT
ATOM      1  C   LIG A   1      -7.333  -0.629 123.826  0.00  0.00    +0.159 A 
ATOM      2  C   LIG A   1      -7.204   0.630 123.225  0.00  0.00    +0.061 A 
ATOM      3  C   LIG A   1      -6.685   1.713 123.940  0.00  0.00    +0.029 A 
ATOM      4  C   LIG A   1      -6.555   3.053 123.351  0.00  0.00    -0.000 A 
ATOM      5  C   LIG A   1      -6.000   4.016 124.101  0.00  0.00    +0.101 A 
ATOM      6  C   LIG A   1      -5.530   3.800 125.479  0.00  0.00    +0.338 A 
ATOM      7  O   LIG A   1      -5.009   4.710 126.109  0.00  0.00    -0.245 OA
ATOM      8  O   LIG A   1      -5.728   2.542 126.018  0.00  0.00    -0.422 OA
ATOM      9  C   LIG A   1      -6.288   1.502 125.257  0.00  0.00    +0.143 A 
ATOM     10  C   LIG A   1      -6.419   0.256 125.871  0.00  0.00    +0.096 A 
ATOM     11  C   LIG A   1      -6.944  -0.828 125.158  0.00  0.00    +0.165 A 
ENDROOT
BRANCH   4  12
ATOM     12  C   LIG A   1      -7.031   3.447 122.012  0.00  0.00    -0.017 A 
ATOM     13  C   LIG A   1      -6.107   3.850 121.040  0.00  0.00    +0.008 A 
ATOM     14  C   LIG A   1      -6.543   4.241 119.774  0.00  0.00    +0.001 A 
ATOM     15  C   LIG A   1      -7.905   4.234 119.474  0.00  0.00    +0.000 A 
ATOM     16  C   LIG A   1      -8.831   3.836 120.439  0.00  0.00    +0.001 A 
ATOM     17  C   LIG A   1      -8.397   3.443 121.706  0.00  0.00    +0.008 A 
ENDBRANCH   4  12
BRANCH   1  18
ATOM     18  O   LIG A   1      -7.847  -1.646 123.070  0.00  0.00    -0.503 OA
ATOM     19  H   LIG A   1      -8.410  -1.281 122.368  0.00  0.00    +0.292 HD
ENDBRANCH   1  18
BRANCH  11  20
ATOM     20  O   LIG A   1      -7.008  -1.982 125.891  0.00  0.00    -0.491 OA
ATOM     21  C   LIG A   1      -8.219  -2.266 126.579  0.00  0.00    +0.277 C 
ENDBRANCH  11  20
TORSDOF 3
ENDMDL
MODEL 4
REMARK VINA RESULT:      -6.8      4.198      6.439
REMARK  Name = NuBBE_1661
REMARK  4 active torsions:
REMARK  status: ('A' for Active; 'I' for Inactive)
REMARK    1  A    between atoms: O_1  and  C_2
REMARK    2  A    between atoms: C_5  and  C_15
REMARK    3  A    between atoms: C_12  and  O_13
REMARK    4  A    between atoms: O_13  and  C_14
REMARK                            x       y       z     vdW  Elec       q    Type
REMARK                         _______ _______ _______ _____ _____    ______ ____
ROOT
ATOM      1  C   LIG A   1      -8.335   1.579 125.296  0.00  0.00    +0.159 A 
ATOM      2  C   LIG A   1      -8.036   0.307 125.800  0.00  0.00    +0.061 A 
ATOM      3  C   LIG A   1      -7.345  -0.626 125.022  0.00  0.00    +0.029 A 
ATOM      4  C   LIG A   1      -7.032  -1.976 125.508  0.00  0.00    -0.000 A 
ATOM      5  C   LIG A   1      -6.323  -2.783 124.705  0.00  0.00    +0.101 A 
ATOM      6  C   LIG A   1      -5.856  -2.387 123.366  0.00  0.00    +0.338 A 
ATOM      7  O   LIG A   1      -5.190  -3.156 122.686  0.00  0.00    -0.245 OA
ATOM      8  O   LIG A   1      -6.224  -1.131 122.922  0.00  0.00    -0.422 OA
ATOM      9  C   LIG A   1      -6.951  -0.251 123.741  0.00  0.00    +0.143 A 
ATOM     10  C   LIG A   1      -7.251   1.010 123.222  0.00  0.00    +0.096 A 
ATOM     11  C   LIG A   1      -7.947   1.943 123.999  0.00  0.00    +0.165 A 
ENDROOT
BRANCH   4  12
ATOM     12  C   LIG A   1      -7.476  -2.546 126.793  0.00  0.00    -0.017 A 
ATOM     13  C   LIG A   1      -6.718  -2.322 127.949  0.00  0.00    +0.008 A 
ATOM     14  C   LIG A   1      -7.118  -2.868 129.169  0.00  0.00    +0.001 A 
ATOM     15  C   LIG A   1      -8.276  -3.641 129.240  0.00  0.00    +0.000 A 
ATOM     16  C   LIG A   1      -9.034  -3.871 128.092  0.00  0.00    +0.001 A 
ATOM     17  C   LIG A   1      -8.637  -3.325 126.870  0.00  0.00    +0.008 A 
ENDBRANCH   4  12
BRANCH   1  18
ATOM     18  O   LIG A   1      -9.012   2.444 126.110  0.00  0.00    -0.503 OA
ATOM     19  H   LIG A   1      -8.939   2.151 127.033  0.00  0.00    +0.292 HD
ENDBRANCH   1  18
BRANCH  11  20
ATOM     20  O   LIG A   1      -8.164   3.132 123.356  0.00  0.00    -0.491 OA
ATOM     21  C   LIG A   1      -8.637   3.087 122.018  0.00  0.00    +0.277 C 
ENDBRANCH  11  20
TORSDOF 3
ENDMDL
MODEL 5
REMARK VINA RESULT:      -6.8      2.979      5.995
REMARK  Name = NuBBE_1661
REMARK  4 active torsions:
REMARK  status: ('A' for Active; 'I' for Inactive)
REMARK    1  A    between atoms: O_1  and  C_2
REMARK    2  A    between atoms: C_5  and  C_15
REMARK    3  A    between atoms: C_12  and  O_13
REMARK    4  A    between atoms: O_13  and  C_14
REMARK                            x       y       z     vdW  Elec       q    Type
REMARK                         _______ _______ _______ _____ _____    ______ ____
ROOT
ATOM      1  C   LIG A   1      -6.622   4.223 125.971  0.00  0.00    +0.159 A 
ATOM      2  C   LIG A   1      -6.918   4.045 124.614  0.00  0.00    +0.061 A 
ATOM      3  C   LIG A   1      -7.902   3.136 124.211  0.00  0.00    +0.029 A 
ATOM      4  C   LIG A   1      -8.225   2.907 122.796  0.00  0.00    -0.000 A 
ATOM      5  C   LIG A   1      -9.217   2.051 122.511  0.00  0.00    +0.101 A 
ATOM      6  C   LIG A   1      -9.984   1.327 123.539  0.00  0.00    +0.338 A 
ATOM      7  O   LIG A   1     -10.896   0.576 123.222  0.00  0.00    -0.245 OA
ATOM      8  O   LIG A   1      -9.606   1.524 124.854  0.00  0.00    -0.422 OA
ATOM      9  C   LIG A   1      -8.584   2.427 125.193  0.00  0.00    +0.143 A 
ATOM     10  C   LIG A   1      -8.293   2.588 126.549  0.00  0.00    +0.096 A 
ATOM     11  C   LIG A   1      -7.305   3.493 126.954  0.00  0.00    +0.165 A 
ENDROOT
BRANCH   4  12
ATOM     12  C   LIG A   1      -7.515   3.502 121.649  0.00  0.00    -0.017 A 
ATOM     13  C   LIG A   1      -8.233   3.872 120.505  0.00  0.00    +0.008 A 
ATOM     14  C   LIG A   1      -7.573   4.422 119.407  0.00  0.00    +0.001 A 
ATOM     15  C   LIG A   1      -6.191   4.604 119.445  0.00  0.00    +0.000 A 
ATOM     16  C   LIG A   1      -5.469   4.236 120.579  0.00  0.00    +0.001 A 
ATOM     17  C   LIG A   1      -6.127   3.686 121.681  0.00  0.00    +0.008 A 
ENDBRANCH   4  12
BRANCH   1  18
ATOM     18  O   LIG A   1      -5.650   5.128 126.297  0.00  0.00    -0.503 OA
ATOM     19  H   LIG A   1      -5.230   4.871 127.133  0.00  0.00    +0.292 HD
ENDBRANCH   1  18
BRANCH  11  20
ATOM     20  O   LIG A   1      -7.136   3.542 128.311  0.00  0.00    -0.491 OA
ATOM     21  C   LIG A   1      -7.927   4.465 129.047  0.00  0.00    +0.277 C 
ENDBRANCH  11  20
TORSDOF 3
ENDMDL
MODEL 6
REMARK VINA RESULT:      -6.6      3.619      5.998
REMARK  Name = NuBBE_1661
REMARK  4 active torsions:
REMARK  status: ('A' for Active; 'I' for Inactive)
REMARK    1  A    between atoms: O_1  and  C_2
REMARK    2  A    between atoms: C_5  and  C_15
REMARK    3  A    between atoms: C_12  and  O_13
REMARK    4  A    between atoms: O_13  and  C_14
REMARK                            x       y       z     vdW  Elec       q    Type
REMARK                         _______ _______ _______ _____ _____    ______ ____
ROOT
ATOM      1  C   LIG A   1      -2.952   3.134 126.890  0.00  0.00    +0.159 A 
ATOM      2  C   LIG A   1      -3.995   2.449 126.254  0.00  0.00    +0.061 A 
ATOM      3  C   LIG A   1      -5.260   3.031 126.130  0.00  0.00    +0.029 A 
ATOM      4  C   LIG A   1      -6.384   2.335 125.488  0.00  0.00    -0.000 A 
ATOM      5  C   LIG A   1      -7.546   2.995 125.374  0.00  0.00    +0.101 A 
ATOM      6  C   LIG A   1      -7.751   4.367 125.866  0.00  0.00    +0.338 A 
ATOM      7  O   LIG A   1      -8.826   4.930 125.713  0.00  0.00    -0.245 OA
ATOM      8  O   LIG A   1      -6.687   4.963 126.519  0.00  0.00    -0.422 OA
ATOM      9  C   LIG A   1      -5.449   4.310 126.642  0.00  0.00    +0.143 A 
ATOM     10  C   LIG A   1      -4.421   5.000 127.286  0.00  0.00    +0.096 A 
ATOM     11  C   LIG A   1      -3.155   4.417 127.416  0.00  0.00    +0.165 A 
ENDROOT
BRANCH   4  12
ATOM     12  C   LIG A   1      -6.362   0.944 124.999  0.00  0.00    -0.017 A 
ATOM     13  C   LIG A   1      -5.755  -0.052 125.774  0.00  0.00    +0.008 A 
ATOM     14  C   LIG A   1      -5.713  -1.369 125.317  0.00  0.00    +0.001 A 
ATOM     15  C   LIG A   1      -6.274  -1.697 124.084  0.00  0.00    +0.000 A 
ATOM     16  C   LIG A   1      -6.878  -0.710 123.306  0.00  0.00    +0.001 A 
ATOM     17  C   LIG A   1      -6.923   0.610 123.761  0.00  0.00    +0.008 A 
ENDBRANCH   4  12
BRANCH   1  18
ATOM     18  O   LIG A   1      -1.739   2.508 126.977  0.00  0.00    -0.503 OA
ATOM     19  H   LIG A   1      -1.462   2.206 126.097  0.00  0.00    +0.292 HD
ENDBRANCH   1  18
BRANCH  11  20
ATOM     20  O   LIG A   1      -2.253   5.214 128.068  0.00  0.00    -0.491 OA
ATOM     21  C   LIG A   1      -2.526   6.607 128.137  0.00  0.00    +0.277 C 
ENDBRANCH  11  20
TORSDOF 3
ENDMDL
MODEL 7
REMARK VINA RESULT:      -6.4      4.761      6.906
REMARK  Name = NuBBE_1661
REMARK  4 active torsions:
REMARK  status: ('A' for Active; 'I' for Inactive)
REMARK    1  A    between atoms: O_1  and  C_2
REMARK    2  A    between atoms: C_5  and  C_15
REMARK    3  A    between atoms: C_12  and  O_13
REMARK    4  A    between atoms: O_13  and  C_14
REMARK                            x       y       z     vdW  Elec       q    Type
REMARK                         _______ _______ _______ _____ _____    ______ ____
ROOT
ATOM      1  C   LIG A   1      -7.921   1.638 126.878  0.00  0.00    +0.159 A 
ATOM      2  C   LIG A   1      -7.684   0.318 127.280  0.00  0.00    +0.061 A 
ATOM      3  C   LIG A   1      -8.169  -0.755 126.527  0.00  0.00    +0.029 A 
ATOM      4  C   LIG A   1      -7.960  -2.153 126.927  0.00  0.00    -0.000 A 
ATOM      5  C   LIG A   1      -8.422  -3.114 126.114  0.00  0.00    +0.101 A 
ATOM      6  C   LIG A   1      -9.133  -2.838 124.855  0.00  0.00    +0.338 A 
ATOM      7  O   LIG A   1      -9.512  -3.754 124.139  0.00  0.00    -0.245 OA
ATOM      8  O   LIG A   1      -9.364  -1.509 124.546  0.00  0.00    -0.422 OA
ATOM      9  C   LIG A   1      -8.880  -0.475 125.364  0.00  0.00    +0.143 A 
ATOM     10  C   LIG A   1      -9.131   0.836 124.957  0.00  0.00    +0.096 A 
ATOM     11  C   LIG A   1      -8.650   1.912 125.713  0.00  0.00    +0.165 A 
ENDROOT
BRANCH   4  12
ATOM     12  C   LIG A   1      -7.323  -2.597 128.181  0.00  0.00    -0.017 A 
ATOM     13  C   LIG A   1      -8.120  -2.905 129.291  0.00  0.00    +0.008 A 
ATOM     14  C   LIG A   1      -7.532  -3.311 130.488  0.00  0.00    +0.001 A 
ATOM     15  C   LIG A   1      -6.144  -3.410 130.584  0.00  0.00    +0.000 A 
ATOM     16  C   LIG A   1      -5.345  -3.103 129.484  0.00  0.00    +0.001 A 
ATOM     17  C   LIG A   1      -5.931  -2.697 128.283  0.00  0.00    +0.008 A 
ENDBRANCH   4  12
BRANCH   1  18
ATOM     18  O   LIG A   1      -7.417   2.642 127.660  0.00  0.00    -0.503 OA
ATOM     19  H   LIG A   1      -7.081   3.358 127.097  0.00  0.00    +0.292 HD
ENDBRANCH   1  18
BRANCH  11  20
ATOM     20  O   LIG A   1      -8.973   3.134 125.187  0.00  0.00    -0.491 OA
ATOM     21  C   LIG A   1      -8.005   3.785 124.376  0.00  0.00    +0.277 C 
ENDBRANCH  11  20
TORSDOF 3
ENDMDL
MODEL 8
REMARK VINA RESULT:      -6.4      2.946      6.390
REMARK  Name = NuBBE_1661
REMARK  4 active torsions:
REMARK  status: ('A' for Active; 'I' for Inactive)
REMARK    1  A    between atoms: O_1  and  C_2
REMARK    2  A    between atoms: C_5  and  C_15
REMARK    3  A    between atoms: C_12  and  O_13
REMARK    4  A    between atoms: O_13  and  C_14
REMARK                            x       y       z     vdW  Elec       q    Type
REMARK                         _______ _______ _______ _____ _____    ______ ____
ROOT
ATOM      1  C   LIG A   1      -5.077   1.665 126.586  0.00  0.00    +0.159 A 
ATOM      2  C   LIG A   1      -6.032   0.926 125.878  0.00  0.00    +0.061 A 
ATOM      3  C   LIG A   1      -6.793   1.523 124.868  0.00  0.00    +0.029 A 
ATOM      4  C   LIG A   1      -7.819   0.786 124.118  0.00  0.00    -0.000 A 
ATOM      5  C   LIG A   1      -8.462   1.433 123.135  0.00  0.00    +0.101 A 
ATOM      6  C   LIG A   1      -8.201   2.838 122.783  0.00  0.00    +0.338 A 
ATOM      7  O   LIG A   1      -8.801   3.371 121.860  0.00  0.00    -0.245 OA
ATOM      8  O   LIG A   1      -7.272   3.513 123.553  0.00  0.00    -0.422 OA
ATOM      9  C   LIG A   1      -6.565   2.865 124.579  0.00  0.00    +0.143 A 
ATOM     10  C   LIG A   1      -5.622   3.616 125.283  0.00  0.00    +0.096 A 
ATOM     11  C   LIG A   1      -4.864   3.020 126.298  0.00  0.00    +0.165 A 
ENDROOT
BRANCH   4  12
ATOM     12  C   LIG A   1      -8.242  -0.601 124.386  0.00  0.00    -0.017 A 
ATOM     13  C   LIG A   1      -7.918  -1.613 123.473  0.00  0.00    +0.008 A 
ATOM     14  C   LIG A   1      -8.325  -2.926 123.706  0.00  0.00    +0.001 A 
ATOM     15  C   LIG A   1      -9.060  -3.235 124.850  0.00  0.00    +0.000 A 
ATOM     16  C   LIG A   1      -9.388  -2.232 125.761  0.00  0.00    +0.001 A 
ATOM     17  C   LIG A   1      -8.981  -0.916 125.532  0.00  0.00    +0.008 A 
ENDBRANCH   4  12
BRANCH   1  18
ATOM     18  O   LIG A   1      -4.366   1.020 127.560  0.00  0.00    -0.503 OA
ATOM     19  H   LIG A   1      -3.912   0.251 127.180  0.00  0.00    +0.292 HD
ENDBRANCH   1  18
BRANCH  11  20
ATOM     20  O   LIG A   1      -3.982   3.881 126.894  0.00  0.00    -0.491 OA
ATOM     21  C   LIG A   1      -2.601   3.732 126.592  0.00  0.00    +0.277 C 
ENDBRANCH  11  20
TORSDOF 3
ENDMDL
MODEL 9
REMARK VINA RESULT:      -6.4      1.461      4.531
REMARK  Name = NuBBE_1661
REMARK  4 active torsions:
REMARK  status: ('A' for Active; 'I' for Inactive)
REMARK    1  A    between atoms: O_1  and  C_2
REMARK    2  A    between atoms: C_5  and  C_15
REMARK    3  A    between atoms: C_12  and  O_13
REMARK    4  A    between atoms: O_13  and  C_14
REMARK                            x       y       z     vdW  Elec       q    Type
REMARK                         _______ _______ _______ _____ _____    ______ ____
ROOT
ATOM      1  C   LIG A   1      -7.695   0.680 125.761  0.00  0.00    +0.159 A 
ATOM      2  C   LIG A   1      -6.727   1.687 125.855  0.00  0.00    +0.061 A 
ATOM      3  C   LIG A   1      -6.385   2.456 124.739  0.00  0.00    +0.029 A 
ATOM      4  C   LIG A   1      -5.359   3.507 124.794  0.00  0.00    -0.000 A 
ATOM      5  C   LIG A   1      -5.135   4.223 123.683  0.00  0.00    +0.101 A 
ATOM      6  C   LIG A   1      -5.853   4.001 122.417  0.00  0.00    +0.338 A 
ATOM      7  O   LIG A   1      -5.625   4.702 121.441  0.00  0.00    -0.245 OA
ATOM      8  O   LIG A   1      -6.766   2.962 122.390  0.00  0.00    -0.422 OA
ATOM      9  C   LIG A   1      -7.041   2.202 123.539  0.00  0.00    +0.143 A 
ATOM     10  C   LIG A   1      -8.001   1.196 123.428  0.00  0.00    +0.096 A 
ATOM     11  C   LIG A   1      -8.341   0.421 124.544  0.00  0.00    +0.165 A 
ENDROOT
BRANCH   4  12
ATOM     12  C   LIG A   1      -4.511   3.813 125.961  0.00  0.00    -0.017 A 
ATOM     13  C   LIG A   1      -4.821   4.910 126.774  0.00  0.00    +0.008 A 
ATOM     14  C   LIG A   1      -4.019   5.220 127.872  0.00  0.00    +0.001 A 
ATOM     15  C   LIG A   1      -2.902   4.438 128.162  0.00  0.00    +0.000 A 
ATOM     16  C   LIG A   1      -2.586   3.346 127.355  0.00  0.00    +0.001 A 
ATOM     17  C   LIG A   1      -3.387   3.031 126.256  0.00  0.00    +0.008 A 
ENDBRANCH   4  12
BRANCH   1  18
ATOM     18  O   LIG A   1      -7.984  -0.034 126.891  0.00  0.00    -0.503 OA
ATOM     19  H   LIG A   1      -8.896  -0.363 126.846  0.00  0.00    +0.292 HD
ENDBRANCH   1  18
BRANCH  11  20
ATOM     20  O   LIG A   1      -9.298  -0.522 124.280  0.00  0.00    -0.491 OA
ATOM     21  C   LIG A   1      -8.901  -1.692 123.579  0.00  0.00    +0.277 C 
ENDBRANCH  11  20
TORSDOF 3
ENDMDL
