MODEL 1
REMARK VINA RESULT:      -6.8      0.000      0.000
REMARK  Name = NuBBE_291
REMARK  10 active torsions:
REMARK  status: ('A' for Active; 'I' for Inactive)
REMARK    1  A    between atoms: O_1  and  C_2
REMARK    2  A    between atoms: C_3  and  C_4
REMARK    3  A    between atoms: C_4  and  C_5
REMARK    4  A    between atoms: C_6  and  C_7
REMARK    5  A    between atoms: C_6  and  C_8
REMARK    6  A    between atoms: C_8  and  C_9
REMARK    7  A    between atoms: C_9  and  C_10
REMARK    8  A    between atoms: C_11  and  C_12
REMARK    9  A    between atoms: C_11  and  C_13
REMARK   10  A    between atoms: C_16  and  O_17
REMARK                            x       y       z     vdW  Elec       q    Type
REMARK                         _______ _______ _______ _____ _____    ______ ____
ROOT
ATOM      1  C   LIG A   1      -8.880   2.341 123.678  0.00  0.00    +0.190 C 
ATOM      2  O   LIG A   1      -9.020   2.924 124.745  0.00  0.00    -0.287 OA
ENDROOT
BRANCH   1   4
ATOM      3  C   LIG A   1      -6.726   3.282 122.834  0.00  0.00    +0.128 A 
ATOM      4  C   LIG A   1      -8.086   3.007 122.601  0.00  0.00    +0.066 A 
ATOM      5  C   LIG A   1      -8.648   3.369 121.368  0.00  0.00    +0.060 A 
ATOM      6  C   LIG A   1      -7.843   3.947 120.385  0.00  0.00    +0.118 A 
ATOM      7  C   LIG A   1      -6.492   4.185 120.612  0.00  0.00    +0.049 A 
ATOM      8  C   LIG A   1      -5.933   3.858 121.844  0.00  0.00    +0.050 A 
BRANCH   3   9
ATOM      9  O   LIG A   1      -6.099   3.007 124.021  0.00  0.00    -0.506 OA
ATOM     10  H   LIG A   1      -5.971   3.858 124.499  0.00  0.00    +0.292 HD
ENDBRANCH   3   9
BRANCH   6  11
ATOM     11  O   LIG A   1      -8.346   4.301 119.168  0.00  0.00    -0.507 OA
ATOM     12  H   LIG A   1      -8.277   3.552 118.554  0.00  0.00    +0.292 HD
ENDBRANCH   6  11
ENDBRANCH   1   4
BRANCH   1  13
ATOM     13  C   LIG A   1      -9.379   0.954 123.442  0.00  0.00    +0.050 C 
ATOM     14  C   LIG A   1      -8.636  -0.159 123.276  0.00  0.00    -0.069 C 
ATOM     15  C   LIG A   1      -7.136  -0.240 123.348  0.00  0.00    +0.039 C 
BRANCH  14  16
ATOM     16  C   LIG A   1      -9.340  -1.471 122.953  0.00  0.00    +0.034 C 
BRANCH  16  17
ATOM     17  C   LIG A   1      -8.567  -2.711 123.422  0.00  0.00    +0.031 C 
BRANCH  17  18
ATOM     18  C   LIG A   1      -9.041  -3.206 124.764  0.00  0.00    -0.028 C 
ATOM     19  C   LIG A   1      -8.413  -3.093 125.950  0.00  0.00    -0.080 C 
ATOM     20  C   LIG A   1      -7.071  -2.450 126.156  0.00  0.00    +0.038 C 
ATOM     21  C   LIG A   1      -9.060  -3.608 127.209  0.00  0.00    +0.038 C 
ENDBRANCH  17  18
ENDBRANCH  16  17
ENDBRANCH  14  16
ENDBRANCH   1  13
TORSDOF 7
ENDMDL
MODEL 2
REMARK VINA RESULT:      -6.8      1.569      2.318
REMARK  Name = NuBBE_291
REMARK  10 active torsions:
REMARK  status: ('A' for Active; 'I' for Inactive)
REMARK    1  A    between atoms: O_1  and  C_2
REMARK    2  A    between atoms: C_3  and  C_4
REMARK    3  A    between atoms: C_4  and  C_5
REMARK    4  A    between atoms: C_6  and  C_7
REMARK    5  A    between atoms: C_6  and  C_8
REMARK    6  A    between atoms: C_8  and  C_9
REMARK    7  A    between atoms: C_9  and  C_10
REMARK    8  A    between atoms: C_11  and  C_12
REMARK    9  A    between atoms: C_11  and  C_13
REMARK   10  A    between atoms: C_16  and  O_17
REMARK                            x       y       z     vdW  Elec       q    Type
REMARK                         _______ _______ _______ _____ _____    ______ ____
ROOT
ATOM      1  C   LIG A   1      -8.009   3.002 123.072  0.00  0.00    +0.190 C 
ATOM      2  O   LIG A   1      -8.002   3.816 123.987  0.00  0.00    -0.287 OA
ENDROOT
BRANCH   1   4
ATOM      3  C   LIG A   1      -6.604   3.837 121.184  0.00  0.00    +0.128 A 
ATOM      4  C   LIG A   1      -7.881   3.504 121.671  0.00  0.00    +0.066 A 
ATOM      5  C   LIG A   1      -8.989   3.657 120.824  0.00  0.00    +0.060 A 
ATOM      6  C   LIG A   1      -8.799   4.088 119.510  0.00  0.00    +0.118 A 
ATOM      7  C   LIG A   1      -7.529   4.383 119.027  0.00  0.00    +0.049 A 
ATOM      8  C   LIG A   1      -6.428   4.264 119.870  0.00  0.00    +0.050 A 
BRANCH   3   9
ATOM      9  O   LIG A   1      -5.469   3.763 121.948  0.00  0.00    -0.506 OA
ATOM     10  H   LIG A   1      -5.446   4.556 122.531  0.00  0.00    +0.292 HD
ENDBRANCH   3   9
BRANCH   6  11
ATOM     11  O   LIG A   1      -9.847   4.236 118.650  0.00  0.00    -0.507 OA
ATOM     12  H   LIG A   1      -9.635   4.915 117.989  0.00  0.00    +0.292 HD
ENDBRANCH   6  11
ENDBRANCH   1   4
BRANCH   1  13
ATOM     13  C   LIG A   1      -8.035   1.527 123.302  0.00  0.00    +0.050 C 
ATOM     14  C   LIG A   1      -9.095   0.783 123.680  0.00  0.00    -0.069 C 
ATOM     15  C   LIG A   1     -10.496   1.286 123.897  0.00  0.00    +0.039 C 
BRANCH  14  16
ATOM     16  C   LIG A   1      -8.891  -0.701 123.952  0.00  0.00    +0.034 C 
BRANCH  16  17
ATOM     17  C   LIG A   1      -8.391  -1.485 122.731  0.00  0.00    +0.031 C 
BRANCH  17  18
ATOM     18  C   LIG A   1      -6.938  -1.864 122.853  0.00  0.00    -0.028 C 
ATOM     19  C   LIG A   1      -6.408  -2.862 123.588  0.00  0.00    -0.080 C 
ATOM     20  C   LIG A   1      -7.192  -3.795 124.466  0.00  0.00    +0.038 C 
ATOM     21  C   LIG A   1      -4.926  -3.129 123.555  0.00  0.00    +0.038 C 
ENDBRANCH  17  18
ENDBRANCH  16  17
ENDBRANCH  14  16
ENDBRANCH   1  13
TORSDOF 7
ENDMDL
MODEL 3
REMARK VINA RESULT:      -6.7      8.438      9.840
REMARK  Name = NuBBE_291
REMARK  10 active torsions:
REMARK  status: ('A' for Active; 'I' for Inactive)
REMARK    1  A    between atoms: O_1  and  C_2
REMARK    2  A    between atoms: C_3  and  C_4
REMARK    3  A    between atoms: C_4  and  C_5
REMARK    4  A    between atoms: C_6  and  C_7
REMARK    5  A    between atoms: C_6  and  C_8
REMARK    6  A    between atoms: C_8  and  C_9
REMARK    7  A    between atoms: C_9  and  C_10
REMARK    8  A    between atoms: C_11  and  C_12
REMARK    9  A    between atoms: C_11  and  C_13
REMARK   10  A    between atoms: C_16  and  O_17
REMARK                            x       y       z     vdW  Elec       q    Type
REMARK                         _______ _______ _______ _____ _____    ______ ____
ROOT
ATOM      1  C   LIG A   1     -10.809   5.392 130.517  0.00  0.00    +0.190 C 
ATOM      2  O   LIG A   1     -11.130   4.326 130.006  0.00  0.00    -0.287 OA
ENDROOT
BRANCH   1   4
ATOM      3  C   LIG A   1     -10.519   6.910 128.556  0.00  0.00    +0.128 A 
ATOM      4  C   LIG A   1     -11.138   6.657 129.794  0.00  0.00    +0.066 A 
ATOM      5  C   LIG A   1     -12.040   7.602 130.305  0.00  0.00    +0.060 A 
ATOM      6  C   LIG A   1     -12.340   8.743 129.560  0.00  0.00    +0.118 A 
ATOM      7  C   LIG A   1     -11.749   8.969 128.322  0.00  0.00    +0.049 A 
ATOM      8  C   LIG A   1     -10.829   8.052 127.821  0.00  0.00    +0.050 A 
BRANCH   3   9
ATOM      9  O   LIG A   1      -9.593   6.069 127.997  0.00  0.00    -0.506 OA
ATOM     10  H   LIG A   1      -9.160   6.549 127.254  0.00  0.00    +0.292 HD
ENDBRANCH   3   9
BRANCH   6  11
ATOM     11  O   LIG A   1     -13.222   9.679 130.013  0.00  0.00    -0.507 OA
ATOM     12  H   LIG A   1     -13.650  10.119 129.261  0.00  0.00    +0.292 HD
ENDBRANCH   6  11
ENDBRANCH   1   4
BRANCH   1  13
ATOM     13  C   LIG A   1     -10.198   5.484 131.876  0.00  0.00    +0.050 C 
ATOM     14  C   LIG A   1      -8.933   5.843 132.175  0.00  0.00    -0.069 C 
ATOM     15  C   LIG A   1      -7.883   6.281 131.191  0.00  0.00    +0.039 C 
BRANCH  14  16
ATOM     16  C   LIG A   1      -8.475   5.785 133.626  0.00  0.00    +0.034 C 
BRANCH  16  17
ATOM     17  C   LIG A   1      -8.792   4.451 134.315  0.00  0.00    +0.031 C 
BRANCH  17  18
ATOM     18  C   LIG A   1      -7.889   3.339 133.847  0.00  0.00    -0.028 C 
ATOM     19  C   LIG A   1      -8.210   2.299 133.052  0.00  0.00    -0.080 C 
ATOM     20  C   LIG A   1      -9.577   2.038 132.486  0.00  0.00    +0.038 C 
ATOM     21  C   LIG A   1      -7.162   1.299 132.644  0.00  0.00    +0.038 C 
ENDBRANCH  17  18
ENDBRANCH  16  17
ENDBRANCH  14  16
ENDBRANCH   1  13
TORSDOF 7
ENDMDL
MODEL 4
REMARK VINA RESULT:      -6.7      4.257      6.388
REMARK  Name = NuBBE_291
REMARK  10 active torsions:
REMARK  status: ('A' for Active; 'I' for Inactive)
REMARK    1  A    between atoms: O_1  and  C_2
REMARK    2  A    between atoms: C_3  and  C_4
REMARK    3  A    between atoms: C_4  and  C_5
REMARK    4  A    between atoms: C_6  and  C_7
REMARK    5  A    between atoms: C_6  and  C_8
REMARK    6  A    between atoms: C_8  and  C_9
REMARK    7  A    between atoms: C_9  and  C_10
REMARK    8  A    between atoms: C_11  and  C_12
REMARK    9  A    between atoms: C_11  and  C_13
REMARK   10  A    between atoms: C_16  and  O_17
REMARK                            x       y       z     vdW  Elec       q    Type
REMARK                         _______ _______ _______ _____ _____    ______ ____
ROOT
ATOM      1  C   LIG A   1      -8.876  -3.243 124.813  0.00  0.00    +0.190 C 
ATOM      2  O   LIG A   1      -9.876  -2.957 124.166  0.00  0.00    -0.287 OA
ENDROOT
BRANCH   1   4
ATOM      3  C   LIG A   1      -7.327  -2.035 123.270  0.00  0.00    +0.128 A 
ATOM      4  C   LIG A   1      -7.540  -3.107 124.157  0.00  0.00    +0.066 A 
ATOM      5  C   LIG A   1      -6.493  -4.010 124.390  0.00  0.00    +0.060 A 
ATOM      6  C   LIG A   1      -5.254  -3.804 123.782  0.00  0.00    +0.118 A 
ATOM      7  C   LIG A   1      -5.042  -2.723 122.934  0.00  0.00    +0.049 A 
ATOM      8  C   LIG A   1      -6.084  -1.838 122.671  0.00  0.00    +0.050 A 
BRANCH   3   9
ATOM      9  O   LIG A   1      -8.300  -1.127 122.945  0.00  0.00    -0.506 OA
ATOM     10  H   LIG A   1      -7.979  -0.234 123.206  0.00  0.00    +0.292 HD
ENDBRANCH   3   9
BRANCH   6  11
ATOM     11  O   LIG A   1      -4.206  -4.650 123.993  0.00  0.00    -0.507 OA
ATOM     12  H   LIG A   1      -3.778  -4.860 123.148  0.00  0.00    +0.292 HD
ENDBRANCH   6  11
ENDBRANCH   1   4
BRANCH   1  13
ATOM     13  C   LIG A   1      -8.927  -3.621 126.256  0.00  0.00    +0.050 C 
ATOM     14  C   LIG A   1      -8.518  -2.878 127.305  0.00  0.00    -0.069 C 
ATOM     15  C   LIG A   1      -7.971  -1.479 127.238  0.00  0.00    +0.039 C 
BRANCH  14  16
ATOM     16  C   LIG A   1      -8.571  -3.486 128.700  0.00  0.00    +0.034 C 
BRANCH  16  17
ATOM     17  C   LIG A   1      -7.898  -2.617 129.772  0.00  0.00    +0.031 C 
BRANCH  17  18
ATOM     18  C   LIG A   1      -6.789  -3.348 130.485  0.00  0.00    -0.028 C 
ATOM     19  C   LIG A   1      -5.498  -3.446 130.113  0.00  0.00    -0.080 C 
ATOM     20  C   LIG A   1      -4.912  -2.844 128.868  0.00  0.00    +0.038 C 
ATOM     21  C   LIG A   1      -4.509  -4.183 130.977  0.00  0.00    +0.038 C 
ENDBRANCH  17  18
ENDBRANCH  16  17
ENDBRANCH  14  16
ENDBRANCH   1  13
TORSDOF 7
ENDMDL
MODEL 5
REMARK VINA RESULT:      -6.6      8.888     10.699
REMARK  Name = NuBBE_291
REMARK  10 active torsions:
REMARK  status: ('A' for Active; 'I' for Inactive)
REMARK    1  A    between atoms: O_1  and  C_2
REMARK    2  A    between atoms: C_3  and  C_4
REMARK    3  A    between atoms: C_4  and  C_5
REMARK    4  A    between atoms: C_6  and  C_7
REMARK    5  A    between atoms: C_6  and  C_8
REMARK    6  A    between atoms: C_8  and  C_9
REMARK    7  A    between atoms: C_9  and  C_10
REMARK    8  A    between atoms: C_11  and  C_12
REMARK    9  A    between atoms: C_11  and  C_13
REMARK   10  A    between atoms: C_16  and  O_17
REMARK                            x       y       z     vdW  Elec       q    Type
REMARK                         _______ _______ _______ _____ _____    ______ ____
ROOT
ATOM      1  C   LIG A   1      -9.457   5.829 131.201  0.00  0.00    +0.190 C 
ATOM      2  O   LIG A   1      -9.787   4.689 131.501  0.00  0.00    -0.287 OA
ENDROOT
BRANCH   1   4
ATOM      3  C   LIG A   1     -11.745   6.820 131.053  0.00  0.00    +0.128 A 
ATOM      4  C   LIG A   1     -10.454   6.698 130.506  0.00  0.00    +0.066 A 
ATOM      5  C   LIG A   1     -10.150   7.396 129.327  0.00  0.00    +0.060 A 
ATOM      6  C   LIG A   1     -11.110   8.229 128.751  0.00  0.00    +0.118 A 
ATOM      7  C   LIG A   1     -12.372   8.369 129.316  0.00  0.00    +0.049 A 
ATOM      8  C   LIG A   1     -12.693   7.656 130.468  0.00  0.00    +0.050 A 
BRANCH   3   9
ATOM      9  O   LIG A   1     -12.149   6.145 132.174  0.00  0.00    -0.506 OA
ATOM     10  H   LIG A   1     -11.343   5.834 132.646  0.00  0.00    +0.292 HD
ENDBRANCH   3   9
BRANCH   6  11
ATOM     11  O   LIG A   1     -10.851   8.936 127.614  0.00  0.00    -0.507 OA
ATOM     12  H   LIG A   1     -11.519   9.631 127.500  0.00  0.00    +0.292 HD
ENDBRANCH   6  11
ENDBRANCH   1   4
BRANCH   1  13
ATOM     13  C   LIG A   1      -8.142   6.420 131.589  0.00  0.00    +0.050 C 
ATOM     14  C   LIG A   1      -6.926   6.068 131.127  0.00  0.00    -0.069 C 
ATOM     15  C   LIG A   1      -6.646   5.032 130.073  0.00  0.00    +0.039 C 
BRANCH  14  16
ATOM     16  C   LIG A   1      -5.693   6.734 131.723  0.00  0.00    +0.034 C 
BRANCH  16  17
ATOM     17  C   LIG A   1      -4.761   7.351 130.670  0.00  0.00    +0.031 C 
BRANCH  17  18
ATOM     18  C   LIG A   1      -3.321   7.355 131.115  0.00  0.00    -0.028 C 
ATOM     19  C   LIG A   1      -2.450   6.327 131.088  0.00  0.00    -0.080 C 
ATOM     20  C   LIG A   1      -2.772   4.938 130.615  0.00  0.00    +0.038 C 
ATOM     21  C   LIG A   1      -1.025   6.524 131.532  0.00  0.00    +0.038 C 
ENDBRANCH  17  18
ENDBRANCH  16  17
ENDBRANCH  14  16
ENDBRANCH   1  13
TORSDOF 7
ENDMDL
MODEL 6
REMARK VINA RESULT:      -6.5      2.613      6.819
REMARK  Name = NuBBE_291
REMARK  10 active torsions:
REMARK  status: ('A' for Active; 'I' for Inactive)
REMARK    1  A    between atoms: O_1  and  C_2
REMARK    2  A    between atoms: C_3  and  C_4
REMARK    3  A    between atoms: C_4  and  C_5
REMARK    4  A    between atoms: C_6  and  C_7
REMARK    5  A    between atoms: C_6  and  C_8
REMARK    6  A    between atoms: C_8  and  C_9
REMARK    7  A    between atoms: C_9  and  C_10
REMARK    8  A    between atoms: C_11  and  C_12
REMARK    9  A    between atoms: C_11  and  C_13
REMARK   10  A    between atoms: C_16  and  O_17
REMARK                            x       y       z     vdW  Elec       q    Type
REMARK                         _______ _______ _______ _____ _____    ______ ____
ROOT
ATOM      1  C   LIG A   1      -9.156  -0.716 123.131  0.00  0.00    +0.190 C 
ATOM      2  O   LIG A   1     -10.241  -1.038 122.663  0.00  0.00    -0.287 OA
ENDROOT
BRANCH   1   4
ATOM      3  C   LIG A   1      -8.698  -2.862 124.324  0.00  0.00    +0.128 A 
ATOM      4  C   LIG A   1      -8.210  -1.796 123.546  0.00  0.00    +0.066 A 
ATOM      5  C   LIG A   1      -6.854  -1.784 123.188  0.00  0.00    +0.060 A 
ATOM      6  C   LIG A   1      -6.031  -2.846 123.568  0.00  0.00    +0.118 A 
ATOM      7  C   LIG A   1      -6.528  -3.911 124.309  0.00  0.00    +0.049 A 
ATOM      8  C   LIG A   1      -7.866  -3.916 124.695  0.00  0.00    +0.050 A 
BRANCH   3   9
ATOM      9  O   LIG A   1      -9.995  -2.939 124.759  0.00  0.00    -0.506 OA
ATOM     10  H   LIG A   1     -10.044  -2.502 125.640  0.00  0.00    +0.292 HD
ENDBRANCH   3   9
BRANCH   6  11
ATOM     11  O   LIG A   1      -4.710  -2.880 123.229  0.00  0.00    -0.507 OA
ATOM     12  H   LIG A   1      -4.329  -3.736 123.483  0.00  0.00    +0.292 HD
ENDBRANCH   6  11
ENDBRANCH   1   4
BRANCH   1  13
ATOM     13  C   LIG A   1      -8.699   0.703 123.209  0.00  0.00    +0.050 C 
ATOM     14  C   LIG A   1      -8.714   1.502 124.295  0.00  0.00    -0.069 C 
ATOM     15  C   LIG A   1      -9.151   1.106 125.679  0.00  0.00    +0.039 C 
BRANCH  14  16
ATOM     16  C   LIG A   1      -8.287   2.956 124.144  0.00  0.00    +0.034 C 
BRANCH  16  17
ATOM     17  C   LIG A   1      -7.006   3.135 123.317  0.00  0.00    +0.031 C 
BRANCH  17  18
ATOM     18  C   LIG A   1      -7.298   3.471 121.878  0.00  0.00    -0.028 C 
ATOM     19  C   LIG A   1      -6.446   3.970 120.961  0.00  0.00    -0.080 C 
ATOM     20  C   LIG A   1      -5.007   4.315 121.221  0.00  0.00    +0.038 C 
ATOM     21  C   LIG A   1      -6.900   4.204 119.544  0.00  0.00    +0.038 C 
ENDBRANCH  17  18
ENDBRANCH  16  17
ENDBRANCH  14  16
ENDBRANCH   1  13
TORSDOF 7
ENDMDL
MODEL 7
REMARK VINA RESULT:      -6.5      2.454      3.760
REMARK  Name = NuBBE_291
REMARK  10 active torsions:
REMARK  status: ('A' for Active; 'I' for Inactive)
REMARK    1  A    between atoms: O_1  and  C_2
REMARK    2  A    between atoms: C_3  and  C_4
REMARK    3  A    between atoms: C_4  and  C_5
REMARK    4  A    between atoms: C_6  and  C_7
REMARK    5  A    between atoms: C_6  and  C_8
REMARK    6  A    between atoms: C_8  and  C_9
REMARK    7  A    between atoms: C_9  and  C_10
REMARK    8  A    between atoms: C_11  and  C_12
REMARK    9  A    between atoms: C_11  and  C_13
REMARK   10  A    between atoms: C_16  and  O_17
REMARK                            x       y       z     vdW  Elec       q    Type
REMARK                         _______ _______ _______ _____ _____    ______ ____
ROOT
ATOM      1  C   LIG A   1      -8.511   1.371 124.948  0.00  0.00    +0.190 C 
ATOM      2  O   LIG A   1      -9.559   1.932 125.241  0.00  0.00    -0.287 OA
ENDROOT
BRANCH   1   4
ATOM      3  C   LIG A   1      -7.139   3.410 124.504  0.00  0.00    +0.128 A 
ATOM      4  C   LIG A   1      -7.233   2.132 125.087  0.00  0.00    +0.066 A 
ATOM      5  C   LIG A   1      -6.124   1.620 125.776  0.00  0.00    +0.060 A 
ATOM      6  C   LIG A   1      -4.974   2.399 125.911  0.00  0.00    +0.118 A 
ATOM      7  C   LIG A   1      -4.901   3.673 125.359  0.00  0.00    +0.049 A 
ATOM      8  C   LIG A   1      -5.985   4.178 124.647  0.00  0.00    +0.050 A 
BRANCH   3   9
ATOM      9  O   LIG A   1      -8.151   3.976 123.775  0.00  0.00    -0.506 OA
ATOM     10  H   LIG A   1      -8.998   3.792 124.241  0.00  0.00    +0.292 HD
ENDBRANCH   3   9
BRANCH   6  11
ATOM     11  O   LIG A   1      -3.879   1.944 126.584  0.00  0.00    -0.507 OA
ATOM     12  H   LIG A   1      -3.384   2.694 126.950  0.00  0.00    +0.292 HD
ENDBRANCH   6  11
ENDBRANCH   1   4
BRANCH   1  13
ATOM     13  C   LIG A   1      -8.445  -0.069 124.558  0.00  0.00    +0.050 C 
ATOM     14  C   LIG A   1      -9.071  -0.657 123.519  0.00  0.00    -0.069 C 
ATOM     15  C   LIG A   1      -9.930   0.035 122.497  0.00  0.00    +0.039 C 
BRANCH  14  16
ATOM     16  C   LIG A   1      -8.948  -2.165 123.345  0.00  0.00    +0.034 C 
BRANCH  16  17
ATOM     17  C   LIG A   1      -8.344  -2.875 124.565  0.00  0.00    +0.031 C 
BRANCH  17  18
ATOM     18  C   LIG A   1      -7.126  -3.687 124.207  0.00  0.00    -0.028 C 
ATOM     19  C   LIG A   1      -5.843  -3.278 124.183  0.00  0.00    -0.080 C 
ATOM     20  C   LIG A   1      -5.377  -1.885 124.499  0.00  0.00    +0.038 C 
ATOM     21  C   LIG A   1      -4.740  -4.245 123.844  0.00  0.00    +0.038 C 
ENDBRANCH  17  18
ENDBRANCH  16  17
ENDBRANCH  14  16
ENDBRANCH   1  13
TORSDOF 7
ENDMDL
MODEL 8
REMARK VINA RESULT:      -6.5      7.394      8.756
REMARK  Name = NuBBE_291
REMARK  10 active torsions:
REMARK  status: ('A' for Active; 'I' for Inactive)
REMARK    1  A    between atoms: O_1  and  C_2
REMARK    2  A    between atoms: C_3  and  C_4
REMARK    3  A    between atoms: C_4  and  C_5
REMARK    4  A    between atoms: C_6  and  C_7
REMARK    5  A    between atoms: C_6  and  C_8
REMARK    6  A    between atoms: C_8  and  C_9
REMARK    7  A    between atoms: C_9  and  C_10
REMARK    8  A    between atoms: C_11  and  C_12
REMARK    9  A    between atoms: C_11  and  C_13
REMARK   10  A    between atoms: C_16  and  O_17
REMARK                            x       y       z     vdW  Elec       q    Type
REMARK                         _______ _______ _______ _____ _____    ______ ____
ROOT
ATOM      1  C   LIG A   1      -9.339   6.101 131.448  0.00  0.00    +0.190 C 
ATOM      2  O   LIG A   1      -9.145   6.433 132.611  0.00  0.00    -0.287 OA
ENDROOT
BRANCH   1   4
ATOM      3  C   LIG A   1     -11.714   6.798 131.116  0.00  0.00    +0.128 A 
ATOM      4  C   LIG A   1     -10.381   6.828 130.664  0.00  0.00    +0.066 A 
ATOM      5  C   LIG A   1     -10.081   7.539 129.492  0.00  0.00    +0.060 A 
ATOM      6  C   LIG A   1     -11.091   8.236 128.829  0.00  0.00    +0.118 A 
ATOM      7  C   LIG A   1     -12.399   8.228 129.301  0.00  0.00    +0.049 A 
ATOM      8  C   LIG A   1     -12.713   7.500 130.446  0.00  0.00    +0.050 A 
BRANCH   3   9
ATOM      9  O   LIG A   1     -12.113   6.096 132.223  0.00  0.00    -0.506 OA
ATOM     10  H   LIG A   1     -12.529   5.259 131.915  0.00  0.00    +0.292 HD
ENDBRANCH   3   9
BRANCH   6  11
ATOM     11  O   LIG A   1     -10.839   8.951 127.695  0.00  0.00    -0.507 OA
ATOM     12  H   LIG A   1     -10.887   8.366 126.922  0.00  0.00    +0.292 HD
ENDBRANCH   6  11
ENDBRANCH   1   4
BRANCH   1  13
ATOM     13  C   LIG A   1      -8.510   5.072 130.753  0.00  0.00    +0.050 C 
ATOM     14  C   LIG A   1      -8.910   3.856 130.331  0.00  0.00    -0.069 C 
ATOM     15  C   LIG A   1     -10.304   3.301 130.430  0.00  0.00    +0.039 C 
BRANCH  14  16
ATOM     16  C   LIG A   1      -7.881   2.914 129.722  0.00  0.00    +0.034 C 
BRANCH  16  17
ATOM     17  C   LIG A   1      -8.500   1.673 129.064  0.00  0.00    +0.031 C 
BRANCH  17  18
ATOM     18  C   LIG A   1      -7.845   0.396 129.525  0.00  0.00    -0.028 C 
ATOM     19  C   LIG A   1      -8.088  -0.288 130.660  0.00  0.00    -0.080 C 
ATOM     20  C   LIG A   1      -9.073   0.120 131.718  0.00  0.00    +0.038 C 
ATOM     21  C   LIG A   1      -7.368  -1.581 130.940  0.00  0.00    +0.038 C 
ENDBRANCH  17  18
ENDBRANCH  16  17
ENDBRANCH  14  16
ENDBRANCH   1  13
TORSDOF 7
ENDMDL
MODEL 9
REMARK VINA RESULT:      -6.4      8.109      9.358
REMARK  Name = NuBBE_291
REMARK  10 active torsions:
REMARK  status: ('A' for Active; 'I' for Inactive)
REMARK    1  A    between atoms: O_1  and  C_2
REMARK    2  A    between atoms: C_3  and  C_4
REMARK    3  A    between atoms: C_4  and  C_5
REMARK    4  A    between atoms: C_6  and  C_7
REMARK    5  A    between atoms: C_6  and  C_8
REMARK    6  A    between atoms: C_8  and  C_9
REMARK    7  A    between atoms: C_9  and  C_10
REMARK    8  A    between atoms: C_11  and  C_12
REMARK    9  A    between atoms: C_11  and  C_13
REMARK   10  A    between atoms: C_16  and  O_17
REMARK                            x       y       z     vdW  Elec       q    Type
REMARK                         _______ _______ _______ _____ _____    ______ ____
ROOT
ATOM      1  C   LIG A   1     -10.293   6.250 131.053  0.00  0.00    +0.190 C 
ATOM      2  O   LIG A   1      -9.586   6.892 131.819  0.00  0.00    -0.287 OA
ENDROOT
BRANCH   1   4
ATOM      3  C   LIG A   1     -12.356   7.445 130.311  0.00  0.00    +0.128 A 
ATOM      4  C   LIG A   1     -11.060   6.988 130.005  0.00  0.00    +0.066 A 
ATOM      5  C   LIG A   1     -10.537   7.241 128.728  0.00  0.00    +0.060 A 
ATOM      6  C   LIG A   1     -11.286   7.976 127.808  0.00  0.00    +0.118 A 
ATOM      7  C   LIG A   1     -12.552   8.453 128.129  0.00  0.00    +0.049 A 
ATOM      8  C   LIG A   1     -13.092   8.180 129.384  0.00  0.00    +0.050 A 
BRANCH   3   9
ATOM      9  O   LIG A   1     -12.968   7.210 131.513  0.00  0.00    -0.506 OA
ATOM     10  H   LIG A   1     -12.589   7.836 132.172  0.00  0.00    +0.292 HD
ENDBRANCH   3   9
BRANCH   6  11
ATOM     11  O   LIG A   1     -10.809   8.256 126.562  0.00  0.00    -0.507 OA
ATOM     12  H   LIG A   1     -10.017   7.722 126.386  0.00  0.00    +0.292 HD
ENDBRANCH   6  11
ENDBRANCH   1   4
BRANCH   1  13
ATOM     13  C   LIG A   1     -10.340   4.758 131.054  0.00  0.00    +0.050 C 
ATOM     14  C   LIG A   1      -9.455   3.917 130.481  0.00  0.00    -0.069 C 
ATOM     15  C   LIG A   1      -8.195   4.315 129.763  0.00  0.00    +0.039 C 
BRANCH  14  16
ATOM     16  C   LIG A   1      -9.734   2.420 130.517  0.00  0.00    +0.034 C 
BRANCH  16  17
ATOM     17  C   LIG A   1      -9.768   1.837 131.936  0.00  0.00    +0.031 C 
BRANCH  17  18
ATOM     18  C   LIG A   1      -8.415   1.869 132.598  0.00  0.00    -0.028 C 
ATOM     19  C   LIG A   1      -7.983   2.724 133.546  0.00  0.00    -0.080 C 
ATOM     20  C   LIG A   1      -8.791   3.854 134.119  0.00  0.00    +0.038 C 
ATOM     21  C   LIG A   1      -6.604   2.580 134.133  0.00  0.00    +0.038 C 
ENDBRANCH  17  18
ENDBRANCH  16  17
ENDBRANCH  14  16
ENDBRANCH   1  13
TORSDOF 7
ENDMDL
