MODEL 1
REMARK VINA RESULT:      -7.6      0.000      0.000
REMARK  Name = NuBBE_2189
REMARK  7 active torsions:
REMARK  status: ('A' for Active; 'I' for Inactive)
REMARK    1  A    between atoms: C_1  and  C_2
REMARK    2  A    between atoms: C_5  and  O_7
REMARK    3  A    between atoms: C_8  and  O_9
REMARK    4  A    between atoms: C_14  and  C_15
REMARK    5  A    between atoms: C_14  and  C_17
REMARK    6  A    between atoms: C_20  and  C_21
REMARK    7  A    between atoms: C_20  and  C_22
REMARK                            x       y       z     vdW  Elec       q    Type
REMARK                         _______ _______ _______ _____ _____    ______ ____
ROOT
ATOM      1  C   LIG A   1      -7.549   6.913 130.497  0.00  0.00    +0.012 C 
ATOM      2  C   LIG A   1      -8.807   6.045 130.215  0.00  0.00    -0.023 C 
ATOM      3  C   LIG A   1      -9.255   5.144 131.427  0.00  0.00    +0.003 C 
ATOM      4  C   LIG A   1      -9.886   5.999 132.536  0.00  0.00    +0.038 C 
ATOM      5  C   LIG A   1     -11.164   6.711 132.056  0.00  0.00    +0.147 C 
ATOM      6  C   LIG A   1     -11.316   6.821 130.507  0.00  0.00    +0.096 C 
ATOM      7  C   LIG A   1      -9.945   7.110 129.861  0.00  0.00    +0.030 C 
ATOM      8  C   LIG A   1     -10.079   7.402 128.354  0.00  0.00    +0.008 C 
ATOM      9  C   LIG A   1     -11.058   8.546 128.082  0.00  0.00    +0.011 C 
ATOM     10  C   LIG A   1     -12.467   8.309 128.671  0.00  0.00    -0.012 C 
ATOM     11  C   LIG A   1     -13.190   7.207 127.866  0.00  0.00    +0.015 C 
ATOM     12  C   LIG A   1     -12.350   7.925 130.171  0.00  0.00    +0.048 C 
ATOM     13  C   LIG A   1      -8.237   4.047 131.896  0.00  0.00    -0.032 C 
ATOM     14  C   LIG A   1      -8.930   3.075 132.891  0.00  0.00    +0.011 C 
ATOM     15  C   LIG A   1      -6.993   4.586 132.624  0.00  0.00    +0.011 C 
ATOM     16  C   LIG A   1      -7.832   3.198 130.661  0.00  0.00    +0.007 C 
ATOM     17  C   LIG A   1      -7.436   4.005 129.428  0.00  0.00    +0.001 C 
ATOM     18  C   LIG A   1      -8.467   5.077 129.051  0.00  0.00    +0.007 C 
ENDROOT
BRANCH   5  19
ATOM     19  O   LIG A   1     -12.297   5.985 132.566  0.00  0.00    -0.389 OA
ATOM     20  H   LIG A   1     -12.492   5.271 131.932  0.00  0.00    +0.210 HD
ENDBRANCH   5  19
BRANCH   6  21
ATOM     21  O   LIG A   1     -11.839   5.586 130.000  0.00  0.00    -0.386 OA
ATOM     22  H   LIG A   1     -12.592   5.356 130.582  0.00  0.00    +0.210 HD
ENDBRANCH   6  21
BRANCH  10  23
ATOM     23  C   LIG A   1     -13.223   9.643 128.607  0.00  0.00    -0.028 C 
ATOM     24  C   LIG A   1     -13.464  10.510 129.600  0.00  0.00    +0.004 C 
ENDBRANCH  10  23
TORSDOF 3
ENDMDL
MODEL 2
REMARK VINA RESULT:      -7.2      8.749     10.238
REMARK  Name = NuBBE_2189
REMARK  7 active torsions:
REMARK  status: ('A' for Active; 'I' for Inactive)
REMARK    1  A    between atoms: C_1  and  C_2
REMARK    2  A    between atoms: C_5  and  O_7
REMARK    3  A    between atoms: C_8  and  O_9
REMARK    4  A    between atoms: C_14  and  C_15
REMARK    5  A    between atoms: C_14  and  C_17
REMARK    6  A    between atoms: C_20  and  C_21
REMARK    7  A    between atoms: C_20  and  C_22
REMARK                            x       y       z     vdW  Elec       q    Type
REMARK                         _______ _______ _______ _____ _____    ______ ____
ROOT
ATOM      1  C   LIG A   1      -6.186  -4.250 130.574  0.00  0.00    +0.012 C 
ATOM      2  C   LIG A   1      -6.697  -2.870 130.076  0.00  0.00    -0.023 C 
ATOM      3  C   LIG A   1      -5.630  -1.715 130.165  0.00  0.00    +0.003 C 
ATOM      4  C   LIG A   1      -4.548  -1.891 129.089  0.00  0.00    +0.038 C 
ATOM      5  C   LIG A   1      -5.132  -1.805 127.667  0.00  0.00    +0.147 C 
ATOM      6  C   LIG A   1      -6.675  -2.025 127.573  0.00  0.00    +0.096 C 
ATOM      7  C   LIG A   1      -7.111  -3.132 128.555  0.00  0.00    +0.030 C 
ATOM      8  C   LIG A   1      -8.594  -3.505 128.367  0.00  0.00    +0.008 C 
ATOM      9  C   LIG A   1      -8.899  -3.909 126.924  0.00  0.00    +0.011 C 
ATOM     10  C   LIG A   1      -8.520  -2.831 125.883  0.00  0.00    -0.012 C 
ATOM     11  C   LIG A   1      -9.497  -1.641 125.987  0.00  0.00    +0.015 C 
ATOM     12  C   LIG A   1      -7.053  -2.376 126.112  0.00  0.00    +0.048 C 
ATOM     13  C   LIG A   1      -5.122  -1.342 131.601  0.00  0.00    -0.032 C 
ATOM     14  C   LIG A   1      -4.306  -0.020 131.545  0.00  0.00    +0.011 C 
ATOM     15  C   LIG A   1      -4.197  -2.385 132.253  0.00  0.00    +0.011 C 
ATOM     16  C   LIG A   1      -6.357  -1.059 132.497  0.00  0.00    +0.007 C 
ATOM     17  C   LIG A   1      -7.460  -2.112 132.423  0.00  0.00    +0.001 C 
ATOM     18  C   LIG A   1      -7.880  -2.443 130.985  0.00  0.00    +0.007 C 
ENDROOT
BRANCH   5  19
ATOM     19  O   LIG A   1      -4.834  -0.500 127.140  0.00  0.00    -0.389 OA
ATOM     20  H   LIG A   1      -4.636  -0.609 126.192  0.00  0.00    +0.210 HD
ENDBRANCH   5  19
BRANCH   6  21
ATOM     21  O   LIG A   1      -7.342  -0.799 127.898  0.00  0.00    -0.386 OA
ATOM     22  H   LIG A   1      -6.643  -0.114 127.925  0.00  0.00    +0.210 HD
ENDBRANCH   6  21
BRANCH  10  23
ATOM     23  C   LIG A   1      -8.575  -3.489 124.497  0.00  0.00    -0.028 C 
ATOM     24  C   LIG A   1      -9.336  -3.150 123.447  0.00  0.00    +0.004 C 
ENDBRANCH  10  23
TORSDOF 3
ENDMDL
MODEL 3
REMARK VINA RESULT:      -7.2      6.620      8.734
REMARK  Name = NuBBE_2189
REMARK  7 active torsions:
REMARK  status: ('A' for Active; 'I' for Inactive)
REMARK    1  A    between atoms: C_1  and  C_2
REMARK    2  A    between atoms: C_5  and  O_7
REMARK    3  A    between atoms: C_8  and  O_9
REMARK    4  A    between atoms: C_14  and  C_15
REMARK    5  A    between atoms: C_14  and  C_17
REMARK    6  A    between atoms: C_20  and  C_21
REMARK    7  A    between atoms: C_20  and  C_22
REMARK                            x       y       z     vdW  Elec       q    Type
REMARK                         _______ _______ _______ _____ _____    ______ ____
ROOT
ATOM      1  C   LIG A   1      -8.003   1.316 127.003  0.00  0.00    +0.012 C 
ATOM      2  C   LIG A   1      -6.925   1.782 125.986  0.00  0.00    -0.023 C 
ATOM      3  C   LIG A   1      -7.498   2.605 124.770  0.00  0.00    +0.003 C 
ATOM      4  C   LIG A   1      -7.925   4.010 125.218  0.00  0.00    +0.038 C 
ATOM      5  C   LIG A   1      -6.736   4.831 125.748  0.00  0.00    +0.147 C 
ATOM      6  C   LIG A   1      -5.487   3.992 126.163  0.00  0.00    +0.096 C 
ATOM      7  C   LIG A   1      -5.933   2.687 126.854  0.00  0.00    +0.030 C 
ATOM      8  C   LIG A   1      -4.734   1.915 127.437  0.00  0.00    +0.008 C 
ATOM      9  C   LIG A   1      -3.913   2.781 128.393  0.00  0.00    +0.011 C 
ATOM     10  C   LIG A   1      -3.400   4.093 127.757  0.00  0.00    -0.012 C 
ATOM     11  C   LIG A   1      -2.285   3.776 126.737  0.00  0.00    +0.015 C 
ATOM     12  C   LIG A   1      -4.580   4.845 127.085  0.00  0.00    +0.048 C 
ATOM     13  C   LIG A   1      -8.493   1.849 123.822  0.00  0.00    -0.032 C 
ATOM     14  C   LIG A   1      -8.738   2.688 122.538  0.00  0.00    +0.011 C 
ATOM     15  C   LIG A   1      -9.882   1.578 124.424  0.00  0.00    +0.011 C 
ATOM     16  C   LIG A   1      -7.821   0.528 123.362  0.00  0.00    +0.007 C 
ATOM     17  C   LIG A   1      -7.194  -0.299 124.483  0.00  0.00    +0.001 C 
ATOM     18  C   LIG A   1      -6.258   0.517 125.383  0.00  0.00    +0.007 C 
ENDROOT
BRANCH   5  19
ATOM     19  O   LIG A   1      -6.334   5.751 124.717  0.00  0.00    -0.389 OA
ATOM     20  H   LIG A   1      -7.003   6.459 124.685  0.00  0.00    +0.210 HD
ENDBRANCH   5  19
BRANCH   6  21
ATOM     21  O   LIG A   1      -4.723   3.682 124.990  0.00  0.00    -0.386 OA
ATOM     22  H   LIG A   1      -4.275   4.515 124.735  0.00  0.00    +0.210 HD
ENDBRANCH   6  21
BRANCH  10  23
ATOM     23  C   LIG A   1      -2.888   4.987 128.895  0.00  0.00    -0.028 C 
ATOM     24  C   LIG A   1      -2.249   6.162 128.805  0.00  0.00    +0.004 C 
ENDBRANCH  10  23
TORSDOF 3
ENDMDL
MODEL 4
REMARK VINA RESULT:      -7.1      6.952      9.385
REMARK  Name = NuBBE_2189
REMARK  7 active torsions:
REMARK  status: ('A' for Active; 'I' for Inactive)
REMARK    1  A    between atoms: C_1  and  C_2
REMARK    2  A    between atoms: C_5  and  O_7
REMARK    3  A    between atoms: C_8  and  O_9
REMARK    4  A    between atoms: C_14  and  C_15
REMARK    5  A    between atoms: C_14  and  C_17
REMARK    6  A    between atoms: C_20  and  C_21
REMARK    7  A    between atoms: C_20  and  C_22
REMARK                            x       y       z     vdW  Elec       q    Type
REMARK                         _______ _______ _______ _____ _____    ______ ____
ROOT
ATOM      1  C   LIG A   1      -6.279  -1.688 123.054  0.00  0.00    +0.012 C 
ATOM      2  C   LIG A   1      -7.378  -1.025 123.929  0.00  0.00    -0.023 C 
ATOM      3  C   LIG A   1      -7.678  -1.786 125.275  0.00  0.00    +0.003 C 
ATOM      4  C   LIG A   1      -6.529  -1.594 126.276  0.00  0.00    +0.038 C 
ATOM      5  C   LIG A   1      -6.349  -0.117 126.668  0.00  0.00    +0.147 C 
ATOM      6  C   LIG A   1      -6.995   0.910 125.687  0.00  0.00    +0.096 C 
ATOM      7  C   LIG A   1      -6.809   0.438 124.230  0.00  0.00    +0.030 C 
ATOM      8  C   LIG A   1      -7.274   1.507 123.223  0.00  0.00    +0.008 C 
ATOM      9  C   LIG A   1      -6.570   2.846 123.453  0.00  0.00    +0.011 C 
ATOM     10  C   LIG A   1      -6.743   3.401 124.885  0.00  0.00    -0.012 C 
ATOM     11  C   LIG A   1      -8.197   3.881 125.086  0.00  0.00    +0.015 C 
ATOM     12  C   LIG A   1      -6.365   2.306 125.919  0.00  0.00    +0.048 C 
ATOM     13  C   LIG A   1      -8.244  -3.243 125.144  0.00  0.00    -0.032 C 
ATOM     14  C   LIG A   1      -8.748  -3.741 126.527  0.00  0.00    +0.011 C 
ATOM     15  C   LIG A   1      -7.227  -4.291 124.659  0.00  0.00    +0.011 C 
ATOM     16  C   LIG A   1      -9.485  -3.202 124.212  0.00  0.00    +0.007 C 
ATOM     17  C   LIG A   1      -9.285  -2.434 122.908  0.00  0.00    +0.001 C 
ATOM     18  C   LIG A   1      -8.702  -1.031 123.119  0.00  0.00    +0.007 C 
ENDROOT
BRANCH   5  19
ATOM     19  O   LIG A   1      -6.938   0.075 127.967  0.00  0.00    -0.389 OA
ATOM     20  H   LIG A   1      -6.254  -0.138 128.629  0.00  0.00    +0.210 HD
ENDBRANCH   5  19
BRANCH   6  21
ATOM     21  O   LIG A   1      -8.393   1.024 125.984  0.00  0.00    -0.386 OA
ATOM     22  H   LIG A   1      -8.862   0.714 125.182  0.00  0.00    +0.210 HD
ENDBRANCH   6  21
BRANCH  10  23
ATOM     23  C   LIG A   1      -5.741   4.550 125.059  0.00  0.00    -0.028 C 
ATOM     24  C   LIG A   1      -5.114   4.944 126.177  0.00  0.00    +0.004 C 
ENDBRANCH  10  23
TORSDOF 3
ENDMDL
MODEL 5
REMARK VINA RESULT:      -7.1      6.980      9.790
REMARK  Name = NuBBE_2189
REMARK  7 active torsions:
REMARK  status: ('A' for Active; 'I' for Inactive)
REMARK    1  A    between atoms: C_1  and  C_2
REMARK    2  A    between atoms: C_5  and  O_7
REMARK    3  A    between atoms: C_8  and  O_9
REMARK    4  A    between atoms: C_14  and  C_15
REMARK    5  A    between atoms: C_14  and  C_17
REMARK    6  A    between atoms: C_20  and  C_21
REMARK    7  A    between atoms: C_20  and  C_22
REMARK                            x       y       z     vdW  Elec       q    Type
REMARK                         _______ _______ _______ _____ _____    ______ ____
ROOT
ATOM      1  C   LIG A   1      -8.821   2.696 124.737  0.00  0.00    +0.012 C 
ATOM      2  C   LIG A   1      -7.521   1.877 124.509  0.00  0.00    -0.023 C 
ATOM      3  C   LIG A   1      -6.262   2.438 125.270  0.00  0.00    +0.003 C 
ATOM      4  C   LIG A   1      -6.371   2.163 126.777  0.00  0.00    +0.038 C 
ATOM      5  C   LIG A   1      -6.402   0.655 127.086  0.00  0.00    +0.147 C 
ATOM      6  C   LIG A   1      -6.780  -0.258 125.878  0.00  0.00    +0.096 C 
ATOM      7  C   LIG A   1      -7.885   0.412 125.035  0.00  0.00    +0.030 C 
ATOM      8  C   LIG A   1      -8.412  -0.532 123.938  0.00  0.00    +0.008 C 
ATOM      9  C   LIG A   1      -8.904  -1.859 124.520  0.00  0.00    +0.011 C 
ATOM     10  C   LIG A   1      -7.835  -2.607 125.350  0.00  0.00    -0.012 C 
ATOM     11  C   LIG A   1      -6.746  -3.170 124.411  0.00  0.00    +0.015 C 
ATOM     12  C   LIG A   1      -7.226  -1.645 126.405  0.00  0.00    +0.048 C 
ATOM     13  C   LIG A   1      -5.781   3.875 124.862  0.00  0.00    -0.032 C 
ATOM     14  C   LIG A   1      -4.388   4.162 125.486  0.00  0.00    +0.011 C 
ATOM     15  C   LIG A   1      -6.699   5.020 125.325  0.00  0.00    +0.011 C 
ATOM     16  C   LIG A   1      -5.590   3.906 123.323  0.00  0.00    +0.007 C 
ATOM     17  C   LIG A   1      -6.750   3.327 122.518  0.00  0.00    +0.001 C 
ATOM     18  C   LIG A   1      -7.180   1.935 122.996  0.00  0.00    +0.007 C 
ENDROOT
BRANCH   5  19
ATOM     19  O   LIG A   1      -5.095   0.268 127.547  0.00  0.00    -0.389 OA
ATOM     20  H   LIG A   1      -4.496   1.019 127.385  0.00  0.00    +0.210 HD
ENDBRANCH   5  19
BRANCH   6  21
ATOM     21  O   LIG A   1      -5.616  -0.469 125.070  0.00  0.00    -0.386 OA
ATOM     22  H   LIG A   1      -4.877  -0.614 125.697  0.00  0.00    +0.210 HD
ENDBRANCH   6  21
BRANCH  10  23
ATOM     23  C   LIG A   1      -8.550  -3.725 126.121  0.00  0.00    -0.028 C 
ATOM     24  C   LIG A   1      -8.961  -3.723 127.397  0.00  0.00    +0.004 C 
ENDBRANCH  10  23
TORSDOF 3
ENDMDL
MODEL 6
REMARK VINA RESULT:      -6.9      6.693      9.529
REMARK  Name = NuBBE_2189
REMARK  7 active torsions:
REMARK  status: ('A' for Active; 'I' for Inactive)
REMARK    1  A    between atoms: C_1  and  C_2
REMARK    2  A    between atoms: C_5  and  O_7
REMARK    3  A    between atoms: C_8  and  O_9
REMARK    4  A    between atoms: C_14  and  C_15
REMARK    5  A    between atoms: C_14  and  C_17
REMARK    6  A    between atoms: C_20  and  C_21
REMARK    7  A    between atoms: C_20  and  C_22
REMARK                            x       y       z     vdW  Elec       q    Type
REMARK                         _______ _______ _______ _____ _____    ______ ____
ROOT
ATOM      1  C   LIG A   1      -7.726   2.841 126.331  0.00  0.00    +0.012 C 
ATOM      2  C   LIG A   1      -6.479   2.034 125.874  0.00  0.00    -0.023 C 
ATOM      3  C   LIG A   1      -5.365   1.887 126.978  0.00  0.00    +0.003 C 
ATOM      4  C   LIG A   1      -5.809   0.905 128.071  0.00  0.00    +0.038 C 
ATOM      5  C   LIG A   1      -6.029  -0.514 127.514  0.00  0.00    +0.147 C 
ATOM      6  C   LIG A   1      -6.220  -0.594 125.968  0.00  0.00    +0.096 C 
ATOM      7  C   LIG A   1      -7.065   0.601 125.478  0.00  0.00    +0.030 C 
ATOM      8  C   LIG A   1      -7.428   0.465 123.987  0.00  0.00    +0.008 C 
ATOM      9  C   LIG A   1      -8.138  -0.857 123.693  0.00  0.00    +0.011 C 
ATOM     10  C   LIG A   1      -7.332  -2.104 124.126  0.00  0.00    -0.012 C 
ATOM     11  C   LIG A   1      -6.121  -2.293 123.187  0.00  0.00    +0.015 C 
ATOM     12  C   LIG A   1      -6.879  -1.947 125.603  0.00  0.00    +0.048 C 
ATOM     13  C   LIG A   1      -4.693   3.215 127.474  0.00  0.00    -0.032 C 
ATOM     14  C   LIG A   1      -3.442   2.884 128.333  0.00  0.00    +0.011 C 
ATOM     15  C   LIG A   1      -5.589   4.106 128.352  0.00  0.00    +0.011 C 
ATOM     16  C   LIG A   1      -4.181   3.995 126.234  0.00  0.00    +0.007 C 
ATOM     17  C   LIG A   1      -5.192   4.132 125.097  0.00  0.00    +0.001 C 
ATOM     18  C   LIG A   1      -5.826   2.796 124.691  0.00  0.00    +0.007 C 
ENDROOT
BRANCH   5  19
ATOM     19  O   LIG A   1      -4.884  -1.313 127.865  0.00  0.00    -0.389 OA
ATOM     20  H   LIG A   1      -4.096  -0.749 127.763  0.00  0.00    +0.210 HD
ENDBRANCH   5  19
BRANCH   6  21
ATOM     21  O   LIG A   1      -4.934  -0.568 125.336  0.00  0.00    -0.386 OA
ATOM     22  H   LIG A   1      -5.109  -0.453 124.379  0.00  0.00    +0.210 HD
ENDBRANCH   6  21
BRANCH  10  23
ATOM     23  C   LIG A   1      -8.283  -3.308 124.072  0.00  0.00    -0.028 C 
ATOM     24  C   LIG A   1      -9.506  -3.377 123.528  0.00  0.00    +0.004 C 
ENDBRANCH  10  23
TORSDOF 3
ENDMDL
MODEL 7
REMARK VINA RESULT:      -6.8      6.420      9.208
REMARK  Name = NuBBE_2189
REMARK  7 active torsions:
REMARK  status: ('A' for Active; 'I' for Inactive)
REMARK    1  A    between atoms: C_1  and  C_2
REMARK    2  A    between atoms: C_5  and  O_7
REMARK    3  A    between atoms: C_8  and  O_9
REMARK    4  A    between atoms: C_14  and  C_15
REMARK    5  A    between atoms: C_14  and  C_17
REMARK    6  A    between atoms: C_20  and  C_21
REMARK    7  A    between atoms: C_20  and  C_22
REMARK                            x       y       z     vdW  Elec       q    Type
REMARK                         _______ _______ _______ _____ _____    ______ ____
ROOT
ATOM      1  C   LIG A   1      -6.402  -2.044 127.069  0.00  0.00    +0.012 C 
ATOM      2  C   LIG A   1      -6.538  -1.153 125.804  0.00  0.00    -0.023 C 
ATOM      3  C   LIG A   1      -7.902  -1.326 125.035  0.00  0.00    +0.003 C 
ATOM      4  C   LIG A   1      -9.053  -0.680 125.819  0.00  0.00    +0.038 C 
ATOM      5  C   LIG A   1      -8.860   0.839 125.980  0.00  0.00    +0.147 C 
ATOM      6  C   LIG A   1      -7.400   1.345 125.758  0.00  0.00    +0.096 C 
ATOM      7  C   LIG A   1      -6.396   0.339 126.360  0.00  0.00    +0.030 C 
ATOM      8  C   LIG A   1      -4.956   0.885 126.321  0.00  0.00    +0.008 C 
ATOM      9  C   LIG A   1      -4.845   2.242 127.017  0.00  0.00    +0.011 C 
ATOM     10  C   LIG A   1      -5.799   3.314 126.442  0.00  0.00    -0.012 C 
ATOM     11  C   LIG A   1      -5.315   3.746 125.041  0.00  0.00    +0.015 C 
ATOM     12  C   LIG A   1      -7.246   2.751 126.388  0.00  0.00    +0.048 C 
ATOM     13  C   LIG A   1      -8.188  -2.745 124.430  0.00  0.00    -0.032 C 
ATOM     14  C   LIG A   1      -9.414  -2.675 123.477  0.00  0.00    +0.011 C 
ATOM     15  C   LIG A   1      -8.515  -3.836 125.464  0.00  0.00    +0.011 C 
ATOM     16  C   LIG A   1      -6.974  -3.155 123.555  0.00  0.00    +0.007 C 
ATOM     17  C   LIG A   1      -5.611  -2.964 124.216  0.00  0.00    +0.001 C 
ATOM     18  C   LIG A   1      -5.420  -1.563 124.809  0.00  0.00    +0.007 C 
ENDROOT
BRANCH   5  19
ATOM     19  O   LIG A   1      -9.711   1.500 125.026  0.00  0.00    -0.389 OA
ATOM     20  H   LIG A   1     -10.550   1.005 124.995  0.00  0.00    +0.210 HD
ENDBRANCH   5  19
BRANCH   6  21
ATOM     21  O   LIG A   1      -7.162   1.484 124.352  0.00  0.00    -0.386 OA
ATOM     22  H   LIG A   1      -7.629   2.301 124.082  0.00  0.00    +0.210 HD
ENDBRANCH   6  21
BRANCH  10  23
ATOM     23  C   LIG A   1      -5.812   4.494 127.424  0.00  0.00    -0.028 C 
ATOM     24  C   LIG A   1      -5.386   4.522 128.694  0.00  0.00    +0.004 C 
ENDBRANCH  10  23
TORSDOF 3
ENDMDL
MODEL 8
REMARK VINA RESULT:      -6.8      7.095      8.546
REMARK  Name = NuBBE_2189
REMARK  7 active torsions:
REMARK  status: ('A' for Active; 'I' for Inactive)
REMARK    1  A    between atoms: C_1  and  C_2
REMARK    2  A    between atoms: C_5  and  O_7
REMARK    3  A    between atoms: C_8  and  O_9
REMARK    4  A    between atoms: C_14  and  C_15
REMARK    5  A    between atoms: C_14  and  C_17
REMARK    6  A    between atoms: C_20  and  C_21
REMARK    7  A    between atoms: C_20  and  C_22
REMARK                            x       y       z     vdW  Elec       q    Type
REMARK                         _______ _______ _______ _____ _____    ______ ____
ROOT
ATOM      1  C   LIG A   1      -6.061  -2.475 126.321  0.00  0.00    +0.012 C 
ATOM      2  C   LIG A   1      -7.368  -1.700 126.642  0.00  0.00    -0.023 C 
ATOM      3  C   LIG A   1      -7.470  -1.192 128.130  0.00  0.00    +0.003 C 
ATOM      4  C   LIG A   1      -6.514  -0.015 128.369  0.00  0.00    +0.038 C 
ATOM      5  C   LIG A   1      -6.869   1.201 127.493  0.00  0.00    +0.147 C 
ATOM      6  C   LIG A   1      -7.767   0.884 126.257  0.00  0.00    +0.096 C 
ATOM      7  C   LIG A   1      -7.347  -0.462 125.631  0.00  0.00    +0.030 C 
ATOM      8  C   LIG A   1      -8.089  -0.727 124.306  0.00  0.00    +0.008 C 
ATOM      9  C   LIG A   1      -7.896   0.418 123.310  0.00  0.00    +0.011 C 
ATOM     10  C   LIG A   1      -8.330   1.797 123.857  0.00  0.00    -0.012 C 
ATOM     11  C   LIG A   1      -9.869   1.855 123.962  0.00  0.00    +0.015 C 
ATOM     12  C   LIG A   1      -7.663   2.045 125.237  0.00  0.00    +0.048 C 
ATOM     13  C   LIG A   1      -7.499  -2.296 129.245  0.00  0.00    -0.032 C 
ATOM     14  C   LIG A   1      -7.883  -1.658 130.608  0.00  0.00    +0.011 C 
ATOM     15  C   LIG A   1      -6.161  -3.019 129.475  0.00  0.00    +0.011 C 
ATOM     16  C   LIG A   1      -8.623  -3.308 128.900  0.00  0.00    +0.007 C 
ATOM     17  C   LIG A   1      -8.622  -3.804 127.456  0.00  0.00    +0.001 C 
ATOM     18  C   LIG A   1      -8.562  -2.668 126.428  0.00  0.00    +0.007 C 
ENDROOT
BRANCH   5  19
ATOM     19  O   LIG A   1      -7.561   2.157 128.316  0.00  0.00    -0.389 OA
ATOM     20  H   LIG A   1      -7.279   2.005 129.236  0.00  0.00    +0.210 HD
ENDBRANCH   5  19
BRANCH   6  21
ATOM     21  O   LIG A   1      -9.135   0.816 126.679  0.00  0.00    -0.386 OA
ATOM     22  H   LIG A   1      -9.474   1.734 126.636  0.00  0.00    +0.210 HD
ENDBRANCH   6  21
BRANCH  10  23
ATOM     23  C   LIG A   1      -7.788   2.864 122.897  0.00  0.00    -0.028 C 
ATOM     24  C   LIG A   1      -6.536   3.015 122.443  0.00  0.00    +0.004 C 
ENDBRANCH  10  23
TORSDOF 3
ENDMDL
MODEL 9
REMARK VINA RESULT:      -6.5      6.819      8.119
REMARK  Name = NuBBE_2189
REMARK  7 active torsions:
REMARK  status: ('A' for Active; 'I' for Inactive)
REMARK    1  A    between atoms: C_1  and  C_2
REMARK    2  A    between atoms: C_5  and  O_7
REMARK    3  A    between atoms: C_8  and  O_9
REMARK    4  A    between atoms: C_14  and  C_15
REMARK    5  A    between atoms: C_14  and  C_17
REMARK    6  A    between atoms: C_20  and  C_21
REMARK    7  A    between atoms: C_20  and  C_22
REMARK                            x       y       z     vdW  Elec       q    Type
REMARK                         _______ _______ _______ _____ _____    ______ ____
ROOT
ATOM      1  C   LIG A   1      -2.672   2.836 126.599  0.00  0.00    +0.012 C 
ATOM      2  C   LIG A   1      -3.830   3.582 127.317  0.00  0.00    -0.023 C 
ATOM      3  C   LIG A   1      -4.960   2.636 127.874  0.00  0.00    +0.003 C 
ATOM      4  C   LIG A   1      -4.466   1.868 129.108  0.00  0.00    +0.038 C 
ATOM      5  C   LIG A   1      -4.109   2.814 130.270  0.00  0.00    +0.147 C 
ATOM      6  C   LIG A   1      -3.866   4.300 129.860  0.00  0.00    +0.096 C 
ATOM      7  C   LIG A   1      -3.112   4.360 128.514  0.00  0.00    +0.030 C 
ATOM      8  C   LIG A   1      -2.696   5.801 128.162  0.00  0.00    +0.008 C 
ATOM      9  C   LIG A   1      -1.867   6.440 129.276  0.00  0.00    +0.011 C 
ATOM     10  C   LIG A   1      -2.574   6.448 130.650  0.00  0.00    -0.012 C 
ATOM     11  C   LIG A   1      -3.736   7.465 130.632  0.00  0.00    +0.015 C 
ATOM     12  C   LIG A   1      -3.082   5.020 130.985  0.00  0.00    +0.048 C 
ATOM     13  C   LIG A   1      -5.758   1.800 126.814  0.00  0.00    -0.032 C 
ATOM     14  C   LIG A   1      -7.001   1.150 127.481  0.00  0.00    +0.011 C 
ATOM     15  C   LIG A   1      -4.968   0.647 126.171  0.00  0.00    +0.011 C 
ATOM     16  C   LIG A   1      -6.298   2.773 125.732  0.00  0.00    +0.007 C 
ATOM     17  C   LIG A   1      -5.270   3.758 125.182  0.00  0.00    +0.001 C 
ATOM     18  C   LIG A   1      -4.512   4.514 126.280  0.00  0.00    +0.007 C 
ENDROOT
BRANCH   5  19
ATOM     19  O   LIG A   1      -5.191   2.783 131.219  0.00  0.00    -0.389 OA
ATOM     20  H   LIG A   1      -5.115   3.583 131.770  0.00  0.00    +0.210 HD
ENDBRANCH   5  19
BRANCH   6  21
ATOM     21  O   LIG A   1      -5.130   4.963 129.736  0.00  0.00    -0.386 OA
ATOM     22  H   LIG A   1      -5.093   5.454 128.889  0.00  0.00    +0.210 HD
ENDBRANCH   6  21
BRANCH  10  23
ATOM     23  C   LIG A   1      -1.523   6.811 131.708  0.00  0.00    -0.028 C 
ATOM     24  C   LIG A   1      -1.644   7.651 132.746  0.00  0.00    +0.004 C 
ENDBRANCH  10  23
TORSDOF 3
ENDMDL
