MODEL 1
REMARK VINA RESULT:      -8.1      0.000      0.000
REMARK  Name = NuBBE_1081
REMARK  8 active torsions:
REMARK  status: ('A' for Active; 'I' for Inactive)
REMARK    1  A    between atoms: N_5  and  C_13
REMARK    2  A    between atoms: C_7  and  O_12
REMARK    3  A    between atoms: C_14  and  O_15
REMARK    4  A    between atoms: O_15  and  C_16
REMARK    5  A    between atoms: C_17  and  O_27
REMARK    6  A    between atoms: C_21  and  C_22
REMARK    7  A    between atoms: C_21  and  C_26
REMARK    8  A    between atoms: C_23  and  O_25
REMARK                            x       y       z     vdW  Elec       q    Type
REMARK                         _______ _______ _______ _____ _____    ______ ____
ROOT
ATOM      1  O   LIG A   1      -5.332  -0.452 127.873  0.00  0.00    -0.286 OA
ATOM      2  C   LIG A   1      -6.360  -0.452 127.204  0.00  0.00    +0.201 A 
ATOM      3  C   LIG A   1      -6.733   0.664 126.288  0.00  0.00    +0.091 A 
ATOM      4  C   LIG A   1      -7.652   0.375 125.247  0.00  0.00    +0.102 A 
ATOM      5  N   LIG A   1      -8.236  -0.915 125.193  0.00  0.00    -0.337 N 
ATOM      6  C   LIG A   1      -8.217  -1.813 126.287  0.00  0.00    +0.095 A 
ATOM      7  C   LIG A   1      -9.107  -2.893 126.466  0.00  0.00    +0.141 A 
ATOM      8  C   LIG A   1      -9.007  -3.759 127.563  0.00  0.00    +0.047 A 
ATOM      9  C   LIG A   1      -8.023  -3.556 128.526  0.00  0.00    +0.004 A 
ATOM     10  C   LIG A   1      -7.156  -2.477 128.402  0.00  0.00    +0.014 A 
ATOM     11  C   LIG A   1      -7.271  -1.610 127.303  0.00  0.00    +0.050 A 
ATOM     12  C   LIG A   1      -8.709  -1.440 123.912  0.00  0.00    +0.149 C 
ATOM     13  C   LIG A   1      -7.965   1.436 124.369  0.00  0.00    +0.186 A 
ATOM     14  C   LIG A   1      -7.458   2.729 124.593  0.00  0.00    +0.167 A 
ATOM     15  C   LIG A   1      -6.555   3.003 125.620  0.00  0.00    +0.043 A 
ATOM     16  C   LIG A   1      -6.171   1.952 126.458  0.00  0.00    +0.141 A 
ATOM     17  O   LIG A   1      -5.314   2.147 127.508  0.00  0.00    -0.482 OA
ATOM     18  C   LIG A   1      -4.501   3.331 127.516  0.00  0.00    +0.131 C 
ATOM     19  C   LIG A   1      -3.287   3.116 126.596  0.00  0.00    +0.058 C 
ATOM     20  C   LIG A   1      -5.344   4.571 127.158  0.00  0.00    +0.162 C 
ATOM     21  C   LIG A   1      -6.015   4.392 125.801  0.00  0.00    +0.078 C 
ATOM     22  C   LIG A   1      -3.980   3.467 128.957  0.00  0.00    +0.058 C 
ENDROOT
BRANCH   7  23
ATOM     23  O   LIG A   1     -10.139  -3.096 125.583  0.00  0.00    -0.505 OA
ATOM     24  H   LIG A   1     -10.334  -2.261 125.126  0.00  0.00    +0.292 HD
ENDBRANCH   7  23
BRANCH  13  25
ATOM     25  O   LIG A   1      -8.861   1.276 123.333  0.00  0.00    -0.489 OA
ATOM     26  C   LIG A   1     -10.202   1.550 123.766  0.00  0.00    +0.277 C 
ENDBRANCH  13  25
BRANCH  20  27
ATOM     27  O   LIG A   1      -4.583   5.781 127.177  0.00  0.00    -0.388 OA
ATOM     28  H   LIG A   1      -5.028   6.432 126.607  0.00  0.00    +0.210 HD
ENDBRANCH  20  27
BRANCH  14  29
ATOM     29  O   LIG A   1      -7.902   3.778 123.827  0.00  0.00    -0.503 OA
ATOM     30  H   LIG A   1      -7.852   4.566 124.400  0.00  0.00    +0.292 HD
ENDBRANCH  14  29
TORSDOF 4
ENDMDL
MODEL 2
REMARK VINA RESULT:      -7.4      2.758      4.369
REMARK  Name = NuBBE_1081
REMARK  8 active torsions:
REMARK  status: ('A' for Active; 'I' for Inactive)
REMARK    1  A    between atoms: N_5  and  C_13
REMARK    2  A    between atoms: C_7  and  O_12
REMARK    3  A    between atoms: C_14  and  O_15
REMARK    4  A    between atoms: O_15  and  C_16
REMARK    5  A    between atoms: C_17  and  O_27
REMARK    6  A    between atoms: C_21  and  C_22
REMARK    7  A    between atoms: C_21  and  C_26
REMARK    8  A    between atoms: C_23  and  O_25
REMARK                            x       y       z     vdW  Elec       q    Type
REMARK                         _______ _______ _______ _____ _____    ______ ____
ROOT
ATOM      1  O   LIG A   1      -7.016  -2.588 127.770  0.00  0.00    -0.286 OA
ATOM      2  C   LIG A   1      -7.618  -1.756 127.100  0.00  0.00    +0.201 A 
ATOM      3  C   LIG A   1      -7.859  -0.359 127.564  0.00  0.00    +0.091 A 
ATOM      4  C   LIG A   1      -8.131   0.620 126.574  0.00  0.00    +0.102 A 
ATOM      5  N   LIG A   1      -8.255   0.207 125.224  0.00  0.00    -0.337 N 
ATOM      6  C   LIG A   1      -8.455  -1.143 124.849  0.00  0.00    +0.095 A 
ATOM      7  C   LIG A   1      -9.001  -1.572 123.621  0.00  0.00    +0.141 A 
ATOM      8  C   LIG A   1      -9.141  -2.931 123.308  0.00  0.00    +0.047 A 
ATOM      9  C   LIG A   1      -8.756  -3.902 124.228  0.00  0.00    +0.004 A 
ATOM     10  C   LIG A   1      -8.255  -3.513 125.464  0.00  0.00    +0.014 A 
ATOM     11  C   LIG A   1      -8.126  -2.149 125.770  0.00  0.00    +0.050 A 
ATOM     12  C   LIG A   1      -7.975   1.160 124.150  0.00  0.00    +0.149 C 
ATOM     13  C   LIG A   1      -8.321   1.943 127.031  0.00  0.00    +0.186 A 
ATOM     14  C   LIG A   1      -8.336   2.234 128.407  0.00  0.00    +0.167 A 
ATOM     15  C   LIG A   1      -8.068   1.264 129.372  0.00  0.00    +0.043 A 
ATOM     16  C   LIG A   1      -7.803  -0.039 128.942  0.00  0.00    +0.141 A 
ATOM     17  O   LIG A   1      -7.563  -1.055 129.828  0.00  0.00    -0.482 OA
ATOM     18  C   LIG A   1      -7.192  -0.714 131.174  0.00  0.00    +0.131 C 
ATOM     19  C   LIG A   1      -5.695  -0.360 131.210  0.00  0.00    +0.058 C 
ATOM     20  C   LIG A   1      -8.109   0.395 131.725  0.00  0.00    +0.162 C 
ATOM     21  C   LIG A   1      -8.063   1.628 130.829  0.00  0.00    +0.078 C 
ATOM     22  C   LIG A   1      -7.391  -1.997 131.997  0.00  0.00    +0.058 C 
ENDROOT
BRANCH   7  23
ATOM     23  O   LIG A   1      -9.460  -0.654 122.707  0.00  0.00    -0.505 OA
ATOM     24  H   LIG A   1      -8.782   0.029 122.575  0.00  0.00    +0.292 HD
ENDBRANCH   7  23
BRANCH  13  25
ATOM     25  O   LIG A   1      -8.610   2.973 126.161  0.00  0.00    -0.489 OA
ATOM     26  C   LIG A   1      -7.499   3.874 126.042  0.00  0.00    +0.277 C 
ENDBRANCH  13  25
BRANCH  20  27
ATOM     27  O   LIG A   1      -7.795   0.753 133.073  0.00  0.00    -0.388 OA
ATOM     28  H   LIG A   1      -7.736   1.723 133.127  0.00  0.00    +0.210 HD
ENDBRANCH  20  27
BRANCH  14  29
ATOM     29  O   LIG A   1      -8.683   3.491 128.834  0.00  0.00    -0.503 OA
ATOM     30  H   LIG A   1      -9.279   3.850 128.149  0.00  0.00    +0.292 HD
ENDBRANCH  14  29
TORSDOF 4
ENDMDL
MODEL 3
REMARK VINA RESULT:      -7.3      5.272      7.555
REMARK  Name = NuBBE_1081
REMARK  8 active torsions:
REMARK  status: ('A' for Active; 'I' for Inactive)
REMARK    1  A    between atoms: N_5  and  C_13
REMARK    2  A    between atoms: C_7  and  O_12
REMARK    3  A    between atoms: C_14  and  O_15
REMARK    4  A    between atoms: O_15  and  C_16
REMARK    5  A    between atoms: C_17  and  O_27
REMARK    6  A    between atoms: C_21  and  C_22
REMARK    7  A    between atoms: C_21  and  C_26
REMARK    8  A    between atoms: C_23  and  O_25
REMARK                            x       y       z     vdW  Elec       q    Type
REMARK                         _______ _______ _______ _____ _____    ______ ____
ROOT
ATOM      1  O   LIG A   1      -8.431   4.892 126.952  0.00  0.00    -0.286 OA
ATOM      2  C   LIG A   1      -7.950   4.463 127.995  0.00  0.00    +0.201 A 
ATOM      3  C   LIG A   1      -8.625   4.603 129.318  0.00  0.00    +0.091 A 
ATOM      4  C   LIG A   1      -8.242   3.701 130.345  0.00  0.00    +0.102 A 
ATOM      5  N   LIG A   1      -7.185   2.792 130.093  0.00  0.00    -0.337 N 
ATOM      6  C   LIG A   1      -6.277   2.949 129.019  0.00  0.00    +0.095 A 
ATOM      7  C   LIG A   1      -4.993   2.368 128.951  0.00  0.00    +0.141 A 
ATOM      8  C   LIG A   1      -4.160   2.545 127.838  0.00  0.00    +0.047 A 
ATOM      9  C   LIG A   1      -4.582   3.327 126.767  0.00  0.00    +0.004 A 
ATOM     10  C   LIG A   1      -5.824   3.948 126.821  0.00  0.00    +0.014 A 
ATOM     11  C   LIG A   1      -6.647   3.771 127.945  0.00  0.00    +0.050 A 
ATOM     12  C   LIG A   1      -7.125   1.533 130.835  0.00  0.00    +0.149 C 
ATOM     13  C   LIG A   1      -8.918   3.827 131.578  0.00  0.00    +0.186 A 
ATOM     14  C   LIG A   1      -9.845   4.863 131.789  0.00  0.00    +0.167 A 
ATOM     15  C   LIG A   1     -10.214   5.745 130.773  0.00  0.00    +0.043 A 
ATOM     16  C   LIG A   1      -9.614   5.595 129.520  0.00  0.00    +0.141 A 
ATOM     17  O   LIG A   1      -9.898   6.441 128.481  0.00  0.00    -0.482 OA
ATOM     18  C   LIG A   1     -11.095   7.232 128.551  0.00  0.00    +0.131 C 
ATOM     19  C   LIG A   1     -12.298   6.364 128.143  0.00  0.00    +0.058 C 
ATOM     20  C   LIG A   1     -11.236   7.880 129.943  0.00  0.00    +0.162 C 
ATOM     21  C   LIG A   1     -11.233   6.817 131.035  0.00  0.00    +0.078 C 
ATOM     22  C   LIG A   1     -10.928   8.333 127.490  0.00  0.00    +0.058 C 
ENDROOT
BRANCH   7  23
ATOM     23  O   LIG A   1      -4.501   1.644 130.010  0.00  0.00    -0.505 OA
ATOM     24  H   LIG A   1      -3.776   2.141 130.424  0.00  0.00    +0.292 HD
ENDBRANCH   7  23
BRANCH  13  25
ATOM     25  O   LIG A   1      -8.616   3.018 132.653  0.00  0.00    -0.489 OA
ATOM     26  C   LIG A   1      -7.671   3.654 133.527  0.00  0.00    +0.277 C 
ENDBRANCH  13  25
BRANCH  20  27
ATOM     27  O   LIG A   1     -12.402   8.700 130.055  0.00  0.00    -0.388 OA
ATOM     28  H   LIG A   1     -12.819   8.763 129.178  0.00  0.00    +0.210 HD
ENDBRANCH  20  27
BRANCH  14  29
ATOM     29  O   LIG A   1     -10.368   5.067 133.042  0.00  0.00    -0.503 OA
ATOM     30  H   LIG A   1      -9.805   4.554 133.652  0.00  0.00    +0.292 HD
ENDBRANCH  14  29
TORSDOF 4
ENDMDL
MODEL 4
REMARK VINA RESULT:      -7.2      6.604      9.753
REMARK  Name = NuBBE_1081
REMARK  8 active torsions:
REMARK  status: ('A' for Active; 'I' for Inactive)
REMARK    1  A    between atoms: N_5  and  C_13
REMARK    2  A    between atoms: C_7  and  O_12
REMARK    3  A    between atoms: C_14  and  O_15
REMARK    4  A    between atoms: O_15  and  C_16
REMARK    5  A    between atoms: C_17  and  O_27
REMARK    6  A    between atoms: C_21  and  C_22
REMARK    7  A    between atoms: C_21  and  C_26
REMARK    8  A    between atoms: C_23  and  O_25
REMARK                            x       y       z     vdW  Elec       q    Type
REMARK                         _______ _______ _______ _____ _____    ______ ____
ROOT
ATOM      1  O   LIG A   1      -6.443   5.188 129.125  0.00  0.00    -0.286 OA
ATOM      2  C   LIG A   1      -5.836   5.446 130.159  0.00  0.00    +0.201 A 
ATOM      3  C   LIG A   1      -6.486   5.451 131.502  0.00  0.00    +0.091 A 
ATOM      4  C   LIG A   1      -5.646   5.298 132.635  0.00  0.00    +0.102 A 
ATOM      5  N   LIG A   1      -4.243   5.248 132.440  0.00  0.00    -0.337 N 
ATOM      6  C   LIG A   1      -3.619   5.670 131.242  0.00  0.00    +0.095 A 
ATOM      7  C   LIG A   1      -2.265   6.049 131.123  0.00  0.00    +0.141 A 
ATOM      8  C   LIG A   1      -1.709   6.429 129.893  0.00  0.00    +0.047 A 
ATOM      9  C   LIG A   1      -2.500   6.458 128.749  0.00  0.00    +0.004 A 
ATOM     10  C   LIG A   1      -3.848   6.132 128.840  0.00  0.00    +0.014 A 
ATOM     11  C   LIG A   1      -4.396   5.761 130.078  0.00  0.00    +0.050 A 
ATOM     12  C   LIG A   1      -3.403   4.557 133.418  0.00  0.00    +0.149 C 
ATOM     13  C   LIG A   1      -6.284   5.270 133.894  0.00  0.00    +0.186 A 
ATOM     14  C   LIG A   1      -7.669   5.486 134.004  0.00  0.00    +0.167 A 
ATOM     15  C   LIG A   1      -8.487   5.636 132.884  0.00  0.00    +0.043 A 
ATOM     16  C   LIG A   1      -7.890   5.593 131.621  0.00  0.00    +0.141 A 
ATOM     17  O   LIG A   1      -8.618   5.765 130.475  0.00  0.00    -0.482 OA
ATOM     18  C   LIG A   1     -10.043   5.594 130.539  0.00  0.00    +0.131 C 
ATOM     19  C   LIG A   1     -10.375   4.092 130.497  0.00  0.00    +0.058 C 
ATOM     20  C   LIG A   1     -10.623   6.327 131.765  0.00  0.00    +0.162 C 
ATOM     21  C   LIG A   1      -9.966   5.832 133.049  0.00  0.00    +0.078 C 
ATOM     22  C   LIG A   1     -10.597   6.234 129.254  0.00  0.00    +0.058 C 
ENDROOT
BRANCH   7  23
ATOM     23  O   LIG A   1      -1.459   6.104 132.233  0.00  0.00    -0.505 OA
ATOM     24  H   LIG A   1      -0.610   5.676 132.031  0.00  0.00    +0.292 HD
ENDBRANCH   7  23
BRANCH  13  25
ATOM     25  O   LIG A   1      -5.566   5.146 135.065  0.00  0.00    -0.489 OA
ATOM     26  C   LIG A   1      -5.273   6.433 135.629  0.00  0.00    +0.277 C 
ENDBRANCH  13  25
BRANCH  20  27
ATOM     27  O   LIG A   1     -12.044   6.208 131.860  0.00  0.00    -0.388 OA
ATOM     28  H   LIG A   1     -12.401   7.047 132.201  0.00  0.00    +0.210 HD
ENDBRANCH  20  27
BRANCH  14  29
ATOM     29  O   LIG A   1      -8.243   5.617 135.244  0.00  0.00    -0.503 OA
ATOM     30  H   LIG A   1      -8.861   4.867 135.332  0.00  0.00    +0.292 HD
ENDBRANCH  14  29
TORSDOF 4
ENDMDL
MODEL 5
REMARK VINA RESULT:      -7.2      4.774      7.196
REMARK  Name = NuBBE_1081
REMARK  8 active torsions:
REMARK  status: ('A' for Active; 'I' for Inactive)
REMARK    1  A    between atoms: N_5  and  C_13
REMARK    2  A    between atoms: C_7  and  O_12
REMARK    3  A    between atoms: C_14  and  O_15
REMARK    4  A    between atoms: O_15  and  C_16
REMARK    5  A    between atoms: C_17  and  O_27
REMARK    6  A    between atoms: C_21  and  C_22
REMARK    7  A    between atoms: C_21  and  C_26
REMARK    8  A    between atoms: C_23  and  O_25
REMARK                            x       y       z     vdW  Elec       q    Type
REMARK                         _______ _______ _______ _____ _____    ______ ____
ROOT
ATOM      1  O   LIG A   1      -7.409   7.583 130.733  0.00  0.00    -0.286 OA
ATOM      2  C   LIG A   1      -7.770   6.431 130.517  0.00  0.00    +0.201 A 
ATOM      3  C   LIG A   1      -6.816   5.295 130.369  0.00  0.00    +0.091 A 
ATOM      4  C   LIG A   1      -7.320   3.987 130.587  0.00  0.00    +0.102 A 
ATOM      5  N   LIG A   1      -8.705   3.823 130.833  0.00  0.00    -0.337 N 
ATOM      6  C   LIG A   1      -9.660   4.828 130.548  0.00  0.00    +0.095 A 
ATOM      7  C   LIG A   1     -11.041   4.607 130.361  0.00  0.00    +0.141 A 
ATOM      8  C   LIG A   1     -11.931   5.660 130.110  0.00  0.00    +0.047 A 
ATOM      9  C   LIG A   1     -11.460   6.966 130.022  0.00  0.00    +0.004 A 
ATOM     10  C   LIG A   1     -10.100   7.214 130.160  0.00  0.00    +0.014 A 
ATOM     11  C   LIG A   1      -9.215   6.151 130.402  0.00  0.00    +0.050 A 
ATOM     12  C   LIG A   1      -9.171   2.661 131.590  0.00  0.00    +0.149 C 
ATOM     13  C   LIG A   1      -6.393   2.927 130.476  0.00  0.00    +0.186 A 
ATOM     14  C   LIG A   1      -5.068   3.170 130.072  0.00  0.00    +0.167 A 
ATOM     15  C   LIG A   1      -4.582   4.460 129.860  0.00  0.00    +0.043 A 
ATOM     16  C   LIG A   1      -5.461   5.532 130.035  0.00  0.00    +0.141 A 
ATOM     17  O   LIG A   1      -5.070   6.826 129.814  0.00  0.00    -0.482 OA
ATOM     18  C   LIG A   1      -3.664   7.120 129.788  0.00  0.00    +0.131 C 
ATOM     19  C   LIG A   1      -3.146   7.234 131.232  0.00  0.00    +0.058 C 
ATOM     20  C   LIG A   1      -2.908   6.083 128.934  0.00  0.00    +0.162 C 
ATOM     21  C   LIG A   1      -3.150   4.672 129.460  0.00  0.00    +0.078 C 
ATOM     22  C   LIG A   1      -3.542   8.506 129.134  0.00  0.00    +0.058 C 
ENDROOT
BRANCH   7  23
ATOM     23  O   LIG A   1     -11.546   3.330 130.369  0.00  0.00    -0.505 OA
ATOM     24  H   LIG A   1     -11.123   2.825 131.083  0.00  0.00    +0.292 HD
ENDBRANCH   7  23
BRANCH  13  25
ATOM     25  O   LIG A   1      -6.773   1.613 130.648  0.00  0.00    -0.489 OA
ATOM     26  C   LIG A   1      -7.087   0.999 129.389  0.00  0.00    +0.277 C 
ENDBRANCH  13  25
BRANCH  20  27
ATOM     27  O   LIG A   1      -1.506   6.347 128.857  0.00  0.00    -0.388 OA
ATOM     28  H   LIG A   1      -1.027   5.532 129.088  0.00  0.00    +0.210 HD
ENDBRANCH  20  27
BRANCH  14  29
ATOM     29  O   LIG A   1      -4.229   2.114 129.814  0.00  0.00    -0.503 OA
ATOM     30  H   LIG A   1      -4.655   1.332 130.213  0.00  0.00    +0.292 HD
ENDBRANCH  14  29
TORSDOF 4
ENDMDL
MODEL 6
REMARK VINA RESULT:      -7.2      4.484      7.242
REMARK  Name = NuBBE_1081
REMARK  8 active torsions:
REMARK  status: ('A' for Active; 'I' for Inactive)
REMARK    1  A    between atoms: N_5  and  C_13
REMARK    2  A    between atoms: C_7  and  O_12
REMARK    3  A    between atoms: C_14  and  O_15
REMARK    4  A    between atoms: O_15  and  C_16
REMARK    5  A    between atoms: C_17  and  O_27
REMARK    6  A    between atoms: C_21  and  C_22
REMARK    7  A    between atoms: C_21  and  C_26
REMARK    8  A    between atoms: C_23  and  O_25
REMARK                            x       y       z     vdW  Elec       q    Type
REMARK                         _______ _______ _______ _____ _____    ______ ____
ROOT
ATOM      1  O   LIG A   1      -8.575   4.965 127.902  0.00  0.00    -0.286 OA
ATOM      2  C   LIG A   1      -8.723   4.298 128.920  0.00  0.00    +0.201 A 
ATOM      3  C   LIG A   1      -8.354   2.856 129.008  0.00  0.00    +0.091 A 
ATOM      4  C   LIG A   1      -8.126   2.317 130.300  0.00  0.00    +0.102 A 
ATOM      5  N   LIG A   1      -8.354   3.141 131.430  0.00  0.00    -0.337 N 
ATOM      6  C   LIG A   1      -9.104   4.339 131.368  0.00  0.00    +0.095 A 
ATOM      7  C   LIG A   1      -9.724   4.966 132.470  0.00  0.00    +0.141 A 
ATOM      8  C   LIG A   1     -10.427   6.171 132.335  0.00  0.00    +0.047 A 
ATOM      9  C   LIG A   1     -10.546   6.774 131.086  0.00  0.00    +0.004 A 
ATOM     10  C   LIG A   1      -9.984   6.160 129.974  0.00  0.00    +0.014 A 
ATOM     11  C   LIG A   1      -9.289   4.949 130.119  0.00  0.00    +0.050 A 
ATOM     12  C   LIG A   1      -7.637   2.870 132.676  0.00  0.00    +0.149 C 
ATOM     13  C   LIG A   1      -7.742   0.959 130.359  0.00  0.00    +0.186 A 
ATOM     14  C   LIG A   1      -7.693   0.174 129.193  0.00  0.00    +0.167 A 
ATOM     15  C   LIG A   1      -7.919   0.713 127.927  0.00  0.00    +0.043 A 
ATOM     16  C   LIG A   1      -8.228   2.073 127.835  0.00  0.00    +0.141 A 
ATOM     17  O   LIG A   1      -8.496   2.670 126.632  0.00  0.00    -0.482 OA
ATOM     18  C   LIG A   1      -8.076   2.004 125.430  0.00  0.00    +0.131 C 
ATOM     19  C   LIG A   1      -6.578   2.270 125.202  0.00  0.00    +0.058 C 
ATOM     20  C   LIG A   1      -8.443   0.507 125.482  0.00  0.00    +0.162 C 
ATOM     21  C   LIG A   1      -7.824  -0.157 126.707  0.00  0.00    +0.078 C 
ATOM     22  C   LIG A   1      -8.852   2.680 124.287  0.00  0.00    +0.058 C 
ENDROOT
BRANCH   7  23
ATOM     23  O   LIG A   1      -9.695   4.378 133.711  0.00  0.00    -0.505 OA
ATOM     24  H   LIG A   1      -8.821   4.521 134.110  0.00  0.00    +0.292 HD
ENDBRANCH   7  23
BRANCH  13  25
ATOM     25  O   LIG A   1      -7.513   0.325 131.561  0.00  0.00    -0.489 OA
ATOM     26  C   LIG A   1      -8.688  -0.366 132.011  0.00  0.00    +0.277 C 
ENDBRANCH  13  25
BRANCH  20  27
ATOM     27  O   LIG A   1      -8.068  -0.196 124.296  0.00  0.00    -0.388 OA
ATOM     28  H   LIG A   1      -8.329   0.338 123.526  0.00  0.00    +0.210 HD
ENDBRANCH  20  27
BRANCH  14  29
ATOM     29  O   LIG A   1      -7.477  -1.178 129.290  0.00  0.00    -0.503 OA
ATOM     30  H   LIG A   1      -7.940  -1.464 130.100  0.00  0.00    +0.292 HD
ENDBRANCH  14  29
TORSDOF 4
ENDMDL
MODEL 7
REMARK VINA RESULT:      -7.1      5.828      8.342
REMARK  Name = NuBBE_1081
REMARK  8 active torsions:
REMARK  status: ('A' for Active; 'I' for Inactive)
REMARK    1  A    between atoms: N_5  and  C_13
REMARK    2  A    between atoms: C_7  and  O_12
REMARK    3  A    between atoms: C_14  and  O_15
REMARK    4  A    between atoms: O_15  and  C_16
REMARK    5  A    between atoms: C_17  and  O_27
REMARK    6  A    between atoms: C_21  and  C_22
REMARK    7  A    between atoms: C_21  and  C_26
REMARK    8  A    between atoms: C_23  and  O_25
REMARK                            x       y       z     vdW  Elec       q    Type
REMARK                         _______ _______ _______ _____ _____    ______ ____
ROOT
ATOM      1  O   LIG A   1      -8.975   5.693 127.662  0.00  0.00    -0.286 OA
ATOM      2  C   LIG A   1      -9.575   5.506 128.715  0.00  0.00    +0.201 A 
ATOM      3  C   LIG A   1      -9.266   4.374 129.636  0.00  0.00    +0.091 A 
ATOM      4  C   LIG A   1      -9.666   4.507 130.991  0.00  0.00    +0.102 A 
ATOM      5  N   LIG A   1     -10.414   5.648 131.371  0.00  0.00    -0.337 N 
ATOM      6  C   LIG A   1     -11.066   6.485 130.435  0.00  0.00    +0.095 A 
ATOM      7  C   LIG A   1     -12.142   7.349 130.730  0.00  0.00    +0.141 A 
ATOM      8  C   LIG A   1     -12.719   8.173 129.754  0.00  0.00    +0.047 A 
ATOM      9  C   LIG A   1     -12.245   8.141 128.446  0.00  0.00    +0.004 A 
ATOM     10  C   LIG A   1     -11.214   7.271 128.112  0.00  0.00    +0.014 A 
ATOM     11  C   LIG A   1     -10.649   6.444 129.096  0.00  0.00    +0.050 A 
ATOM     12  C   LIG A   1     -10.365   6.113 132.757  0.00  0.00    +0.149 C 
ATOM     13  C   LIG A   1      -9.333   3.440 131.854  0.00  0.00    +0.186 A 
ATOM     14  C   LIG A   1      -8.726   2.273 131.355  0.00  0.00    +0.167 A 
ATOM     15  C   LIG A   1      -8.337   2.152 130.021  0.00  0.00    +0.043 A 
ATOM     16  C   LIG A   1      -8.589   3.225 129.161  0.00  0.00    +0.141 A 
ATOM     17  O   LIG A   1      -8.268   3.171 127.831  0.00  0.00    -0.482 OA
ATOM     18  C   LIG A   1      -7.320   2.183 127.397  0.00  0.00    +0.131 C 
ATOM     19  C   LIG A   1      -5.896   2.683 127.697  0.00  0.00    +0.058 C 
ATOM     20  C   LIG A   1      -7.644   0.810 128.018  0.00  0.00    +0.162 C 
ATOM     21  C   LIG A   1      -7.664   0.899 129.540  0.00  0.00    +0.078 C 
ATOM     22  C   LIG A   1      -7.477   2.101 125.869  0.00  0.00    +0.058 C 
ENDROOT
BRANCH   7  23
ATOM     23  O   LIG A   1     -12.692   7.367 131.989  0.00  0.00    -0.505 OA
ATOM     24  H   LIG A   1     -13.299   6.614 132.081  0.00  0.00    +0.292 HD
ENDBRANCH   7  23
BRANCH  13  25
ATOM     25  O   LIG A   1      -9.687   3.450 133.186  0.00  0.00    -0.489 OA
ATOM     26  C   LIG A   1      -8.544   3.689 134.022  0.00  0.00    +0.277 C 
ENDBRANCH  13  25
BRANCH  20  27
ATOM     27  O   LIG A   1      -6.741  -0.215 127.596  0.00  0.00    -0.388 OA
ATOM     28  H   LIG A   1      -5.832   0.114 127.701  0.00  0.00    +0.210 HD
ENDBRANCH  20  27
BRANCH  14  29
ATOM     29  O   LIG A   1      -8.560   1.186 132.177  0.00  0.00    -0.503 OA
ATOM     30  H   LIG A   1      -9.366   1.140 132.724  0.00  0.00    +0.292 HD
ENDBRANCH  14  29
TORSDOF 4
ENDMDL
MODEL 8
REMARK VINA RESULT:      -7.0      2.914      4.764
REMARK  Name = NuBBE_1081
REMARK  8 active torsions:
REMARK  status: ('A' for Active; 'I' for Inactive)
REMARK    1  A    between atoms: N_5  and  C_13
REMARK    2  A    between atoms: C_7  and  O_12
REMARK    3  A    between atoms: C_14  and  O_15
REMARK    4  A    between atoms: O_15  and  C_16
REMARK    5  A    between atoms: C_17  and  O_27
REMARK    6  A    between atoms: C_21  and  C_22
REMARK    7  A    between atoms: C_21  and  C_26
REMARK    8  A    between atoms: C_23  and  O_25
REMARK                            x       y       z     vdW  Elec       q    Type
REMARK                         _______ _______ _______ _____ _____    ______ ____
ROOT
ATOM      1  O   LIG A   1      -8.186  -1.179 126.727  0.00  0.00    -0.286 OA
ATOM      2  C   LIG A   1      -7.967  -0.654 127.813  0.00  0.00    +0.201 A 
ATOM      3  C   LIG A   1      -7.981   0.823 128.019  0.00  0.00    +0.091 A 
ATOM      4  C   LIG A   1      -8.180   1.297 129.341  0.00  0.00    +0.102 A 
ATOM      5  N   LIG A   1      -8.256   0.356 130.397  0.00  0.00    -0.337 N 
ATOM      6  C   LIG A   1      -7.818  -0.983 130.265  0.00  0.00    +0.095 A 
ATOM      7  C   LIG A   1      -7.466  -1.831 131.336  0.00  0.00    +0.141 A 
ATOM      8  C   LIG A   1      -7.068  -3.159 131.128  0.00  0.00    +0.047 A 
ATOM      9  C   LIG A   1      -6.993  -3.671 129.836  0.00  0.00    +0.004 A 
ATOM     10  C   LIG A   1      -7.293  -2.850 128.756  0.00  0.00    +0.014 A 
ATOM     11  C   LIG A   1      -7.682  -1.519 128.976  0.00  0.00    +0.050 A 
ATOM     12  C   LIG A   1      -8.988   0.698 131.616  0.00  0.00    +0.149 C 
ATOM     13  C   LIG A   1      -8.225   2.699 129.508  0.00  0.00    +0.186 A 
ATOM     14  C   LIG A   1      -7.982   3.562 128.424  0.00  0.00    +0.167 A 
ATOM     15  C   LIG A   1      -7.787   3.086 127.128  0.00  0.00    +0.043 A 
ATOM     16  C   LIG A   1      -7.812   1.703 126.922  0.00  0.00    +0.141 A 
ATOM     17  O   LIG A   1      -7.596   1.156 125.686  0.00  0.00    -0.482 OA
ATOM     18  C   LIG A   1      -7.737   1.999 124.531  0.00  0.00    +0.131 C 
ATOM     19  C   LIG A   1      -9.230   2.136 124.185  0.00  0.00    +0.058 C 
ATOM     20  C   LIG A   1      -7.022   3.347 124.753  0.00  0.00    +0.162 C 
ATOM     21  C   LIG A   1      -7.563   4.046 125.996  0.00  0.00    +0.078 C 
ATOM     22  C   LIG A   1      -7.054   1.244 123.379  0.00  0.00    +0.058 C 
ENDROOT
BRANCH   7  23
ATOM     23  O   LIG A   1      -7.455  -1.355 132.624  0.00  0.00    -0.505 OA
ATOM     24  H   LIG A   1      -7.564  -0.389 132.607  0.00  0.00    +0.292 HD
ENDBRANCH   7  23
BRANCH  13  25
ATOM     25  O   LIG A   1      -8.393   3.273 130.750  0.00  0.00    -0.489 OA
ATOM     26  C   LIG A   1      -7.127   3.601 131.343  0.00  0.00    +0.277 C 
ENDBRANCH  13  25
BRANCH  20  27
ATOM     27  O   LIG A   1      -7.112   4.214 123.620  0.00  0.00    -0.388 OA
ATOM     28  H   LIG A   1      -6.217   4.523 123.397  0.00  0.00    +0.210 HD
ENDBRANCH  20  27
BRANCH  14  29
ATOM     29  O   LIG A   1      -7.868   4.913 128.640  0.00  0.00    -0.503 OA
ATOM     30  H   LIG A   1      -8.041   5.046 129.591  0.00  0.00    +0.292 HD
ENDBRANCH  14  29
TORSDOF 4
ENDMDL
MODEL 9
REMARK VINA RESULT:      -7.0      2.618      7.018
REMARK  Name = NuBBE_1081
REMARK  8 active torsions:
REMARK  status: ('A' for Active; 'I' for Inactive)
REMARK    1  A    between atoms: N_5  and  C_13
REMARK    2  A    between atoms: C_7  and  O_12
REMARK    3  A    between atoms: C_14  and  O_15
REMARK    4  A    between atoms: O_15  and  C_16
REMARK    5  A    between atoms: C_17  and  O_27
REMARK    6  A    between atoms: C_21  and  C_22
REMARK    7  A    between atoms: C_21  and  C_26
REMARK    8  A    between atoms: C_23  and  O_25
REMARK                            x       y       z     vdW  Elec       q    Type
REMARK                         _______ _______ _______ _____ _____    ______ ____
ROOT
ATOM      1  O   LIG A   1      -5.111   0.487 125.862  0.00  0.00    -0.286 OA
ATOM      2  C   LIG A   1      -5.408   0.391 127.048  0.00  0.00    +0.201 A 
ATOM      3  C   LIG A   1      -6.290  -0.687 127.580  0.00  0.00    +0.091 A 
ATOM      4  C   LIG A   1      -6.194  -0.985 128.964  0.00  0.00    +0.102 A 
ATOM      5  N   LIG A   1      -5.350  -0.187 129.775  0.00  0.00    -0.337 N 
ATOM      6  C   LIG A   1      -4.862   1.076 129.366  0.00  0.00    +0.095 A 
ATOM      7  C   LIG A   1      -4.397   2.087 130.234  0.00  0.00    +0.141 A 
ATOM      8  C   LIG A   1      -3.899   3.305 129.751  0.00  0.00    +0.047 A 
ATOM      9  C   LIG A   1      -3.871   3.554 128.383  0.00  0.00    +0.004 A 
ATOM     10  C   LIG A   1      -4.361   2.597 127.502  0.00  0.00    +0.014 A 
ATOM     11  C   LIG A   1      -4.865   1.383 127.997  0.00  0.00    +0.050 A 
ATOM     12  C   LIG A   1      -4.788  -0.750 131.003  0.00  0.00    +0.149 C 
ATOM     13  C   LIG A   1      -7.012  -2.033 129.441  0.00  0.00    +0.186 A 
ATOM     14  C   LIG A   1      -7.938  -2.667 128.593  0.00  0.00    +0.167 A 
ATOM     15  C   LIG A   1      -8.024  -2.367 127.234  0.00  0.00    +0.043 A 
ATOM     16  C   LIG A   1      -7.173  -1.384 126.721  0.00  0.00    +0.141 A 
ATOM     17  O   LIG A   1      -7.219  -1.009 125.405  0.00  0.00    -0.482 OA
ATOM     18  C   LIG A   1      -7.855  -1.889 124.465  0.00  0.00    +0.131 C 
ATOM     19  C   LIG A   1      -6.878  -3.015 124.086  0.00  0.00    +0.058 C 
ATOM     20  C   LIG A   1      -9.203  -2.393 125.020  0.00  0.00    +0.162 C 
ATOM     21  C   LIG A   1      -9.006  -3.092 126.360  0.00  0.00    +0.078 C 
ATOM     22  C   LIG A   1      -8.107  -1.042 123.206  0.00  0.00    +0.058 C 
ENDROOT
BRANCH   7  23
ATOM     23  O   LIG A   1      -4.468   1.919 131.596  0.00  0.00    -0.505 OA
ATOM     24  H   LIG A   1      -4.494   2.792 132.022  0.00  0.00    +0.292 HD
ENDBRANCH   7  23
BRANCH  13  25
ATOM     25  O   LIG A   1      -7.017  -2.397 130.771  0.00  0.00    -0.489 OA
ATOM     26  C   LIG A   1      -6.361  -3.659 130.963  0.00  0.00    +0.277 C 
ENDBRANCH  13  25
BRANCH  20  27
ATOM     27  O   LIG A   1      -9.889  -3.255 124.109  0.00  0.00    -0.388 OA
ATOM     28  H   LIG A   1      -9.691  -4.176 124.350  0.00  0.00    +0.210 HD
ENDBRANCH  20  27
BRANCH  14  29
ATOM     29  O   LIG A   1      -8.834  -3.567 129.113  0.00  0.00    -0.503 OA
ATOM     30  H   LIG A   1      -8.883  -4.297 128.468  0.00  0.00    +0.292 HD
ENDBRANCH  14  29
TORSDOF 4
ENDMDL
