MODEL 1
REMARK VINA RESULT:      -6.8      0.000      0.000
REMARK  Name = NuBBE_2334
REMARK  5 active torsions:
REMARK  status: ('A' for Active; 'I' for Inactive)
REMARK    1  A    between atoms: C_1  and  C_2
REMARK    2  A    between atoms: C_6  and  C_7
REMARK    3  A    between atoms: C_6  and  O_8
REMARK    4  A    between atoms: C_12  and  C_14
REMARK    5  A    between atoms: C_14  and  C_15
REMARK                            x       y       z     vdW  Elec       q    Type
REMARK                         _______ _______ _______ _____ _____    ______ ____
ROOT
ATOM      1  C   LIG A   1      -7.779  -4.383 124.760  0.00  0.00    +0.011 C 
ATOM      2  C   LIG A   1      -8.498  -3.035 125.002  0.00  0.00    -0.027 C 
ATOM      3  C   LIG A   1      -9.150  -2.573 123.675  0.00  0.00    +0.007 C 
ATOM      4  C   LIG A   1      -8.134  -2.075 122.645  0.00  0.00    +0.003 C 
ATOM      5  C   LIG A   1      -7.262  -0.959 123.206  0.00  0.00    +0.035 C 
ATOM      6  C   LIG A   1      -6.554  -1.323 124.525  0.00  0.00    +0.067 C 
ATOM      7  C   LIG A   1      -5.314  -2.189 124.281  0.00  0.00    +0.041 C 
ATOM      8  C   LIG A   1      -7.582  -1.894 125.541  0.00  0.00    +0.027 C 
ATOM      9  C   LIG A   1      -6.984  -2.232 126.924  0.00  0.00    +0.014 C 
ATOM     10  C   LIG A   1      -8.089  -2.528 127.960  0.00  0.00    +0.015 C 
ATOM     11  C   LIG A   1      -9.057  -3.613 127.442  0.00  0.00    +0.008 C 
ATOM     12  C   LIG A   1      -9.615  -3.272 126.056  0.00  0.00    +0.007 C 
ENDROOT
BRANCH  10  13
ATOM     13  C   LIG A   1      -7.484  -2.809 129.335  0.00  0.00    -0.077 C 
ATOM     14  C   LIG A   1      -7.818  -1.797 130.404  0.00  0.00    +0.038 C 
ATOM     15  C   LIG A   1      -6.722  -3.874 129.637  0.00  0.00    +0.007 C 
ENDBRANCH  10  13
BRANCH   6  16
ATOM     16  O   LIG A   1      -6.063  -0.087 125.084  0.00  0.00    -0.389 OA
ATOM     17  H   LIG A   1      -6.299   0.633 124.475  0.00  0.00    +0.210 HD
ENDBRANCH   6  16
TORSDOF 2
ENDMDL
MODEL 2
REMARK VINA RESULT:      -6.3      1.825      4.933
REMARK  Name = NuBBE_2334
REMARK  5 active torsions:
REMARK  status: ('A' for Active; 'I' for Inactive)
REMARK    1  A    between atoms: C_1  and  C_2
REMARK    2  A    between atoms: C_6  and  C_7
REMARK    3  A    between atoms: C_6  and  O_8
REMARK    4  A    between atoms: C_12  and  C_14
REMARK    5  A    between atoms: C_14  and  C_15
REMARK                            x       y       z     vdW  Elec       q    Type
REMARK                         _______ _______ _______ _____ _____    ______ ____
ROOT
ATOM      1  C   LIG A   1      -8.539  -1.121 126.793  0.00  0.00    +0.011 C 
ATOM      2  C   LIG A   1      -7.923  -2.492 127.156  0.00  0.00    -0.027 C 
ATOM      3  C   LIG A   1      -8.494  -2.948 128.522  0.00  0.00    +0.007 C 
ATOM      4  C   LIG A   1      -7.932  -2.158 129.705  0.00  0.00    +0.003 C 
ATOM      5  C   LIG A   1      -6.410  -2.202 129.743  0.00  0.00    +0.035 C 
ATOM      6  C   LIG A   1      -5.739  -1.753 128.431  0.00  0.00    +0.067 C 
ATOM      7  C   LIG A   1      -5.706  -0.227 128.307  0.00  0.00    +0.041 C 
ATOM      8  C   LIG A   1      -6.366  -2.510 127.227  0.00  0.00    +0.027 C 
ATOM      9  C   LIG A   1      -5.717  -2.178 125.864  0.00  0.00    +0.014 C 
ATOM     10  C   LIG A   1      -6.188  -3.152 124.764  0.00  0.00    +0.015 C 
ATOM     11  C   LIG A   1      -7.728  -3.212 124.698  0.00  0.00    +0.008 C 
ATOM     12  C   LIG A   1      -8.352  -3.512 126.066  0.00  0.00    +0.007 C 
ENDROOT
BRANCH  10  13
ATOM     13  C   LIG A   1      -5.498  -2.845 123.435  0.00  0.00    -0.077 C 
ATOM     14  C   LIG A   1      -4.173  -3.536 123.221  0.00  0.00    +0.038 C 
ATOM     15  C   LIG A   1      -5.997  -2.044 122.477  0.00  0.00    +0.007 C 
ENDBRANCH  10  13
BRANCH   6  16
ATOM     16  O   LIG A   1      -4.361  -2.168 128.509  0.00  0.00    -0.389 OA
ATOM     17  H   LIG A   1      -3.846  -1.620 127.893  0.00  0.00    +0.210 HD
ENDBRANCH   6  16
TORSDOF 2
ENDMDL
MODEL 3
REMARK VINA RESULT:      -6.2      2.158      2.803
REMARK  Name = NuBBE_2334
REMARK  5 active torsions:
REMARK  status: ('A' for Active; 'I' for Inactive)
REMARK    1  A    between atoms: C_1  and  C_2
REMARK    2  A    between atoms: C_6  and  C_7
REMARK    3  A    between atoms: C_6  and  O_8
REMARK    4  A    between atoms: C_12  and  C_14
REMARK    5  A    between atoms: C_14  and  C_15
REMARK                            x       y       z     vdW  Elec       q    Type
REMARK                         _______ _______ _______ _____ _____    ______ ____
ROOT
ATOM      1  C   LIG A   1      -7.459  -1.369 123.145  0.00  0.00    +0.011 C 
ATOM      2  C   LIG A   1      -8.885  -1.311 123.740  0.00  0.00    -0.027 C 
ATOM      3  C   LIG A   1      -9.862  -0.810 122.647  0.00  0.00    +0.007 C 
ATOM      4  C   LIG A   1      -9.712   0.682 122.342  0.00  0.00    +0.003 C 
ATOM      5  C   LIG A   1      -9.862   1.533 123.596  0.00  0.00    +0.035 C 
ATOM      6  C   LIG A   1      -8.922   1.124 124.746  0.00  0.00    +0.067 C 
ATOM      7  C   LIG A   1      -7.504   1.661 124.533  0.00  0.00    +0.041 C 
ATOM      8  C   LIG A   1      -9.029  -0.406 125.002  0.00  0.00    +0.027 C 
ATOM      9  C   LIG A   1      -8.170  -0.911 126.182  0.00  0.00    +0.014 C 
ATOM     10  C   LIG A   1      -8.525  -2.365 126.556  0.00  0.00    +0.015 C 
ATOM     11  C   LIG A   1      -8.454  -3.288 125.322  0.00  0.00    +0.008 C 
ATOM     12  C   LIG A   1      -9.289  -2.753 124.154  0.00  0.00    +0.007 C 
ENDROOT
BRANCH  10  13
ATOM     13  C   LIG A   1      -7.706  -2.833 127.759  0.00  0.00    -0.077 C 
ATOM     14  C   LIG A   1      -6.276  -2.349 127.792  0.00  0.00    +0.038 C 
ATOM     15  C   LIG A   1      -8.176  -3.600 128.757  0.00  0.00    +0.007 C 
ENDBRANCH  10  13
BRANCH   6  16
ATOM     16  O   LIG A   1      -9.414   1.777 125.933  0.00  0.00    -0.389 OA
ATOM     17  H   LIG A   1      -9.344   1.150 126.673  0.00  0.00    +0.210 HD
ENDBRANCH   6  16
TORSDOF 2
ENDMDL
MODEL 4
REMARK VINA RESULT:      -6.2      2.393      4.979
REMARK  Name = NuBBE_2334
REMARK  5 active torsions:
REMARK  status: ('A' for Active; 'I' for Inactive)
REMARK    1  A    between atoms: C_1  and  C_2
REMARK    2  A    between atoms: C_6  and  C_7
REMARK    3  A    between atoms: C_6  and  O_8
REMARK    4  A    between atoms: C_12  and  C_14
REMARK    5  A    between atoms: C_14  and  C_15
REMARK                            x       y       z     vdW  Elec       q    Type
REMARK                         _______ _______ _______ _____ _____    ______ ____
ROOT
ATOM      1  C   LIG A   1      -9.196  -0.889 125.562  0.00  0.00    +0.011 C 
ATOM      2  C   LIG A   1      -8.699  -1.247 124.142  0.00  0.00    -0.027 C 
ATOM      3  C   LIG A   1      -9.192  -2.672 123.786  0.00  0.00    +0.007 C 
ATOM      4  C   LIG A   1      -8.447  -3.774 124.542  0.00  0.00    +0.003 C 
ATOM      5  C   LIG A   1      -6.941  -3.684 124.335  0.00  0.00    +0.035 C 
ATOM      6  C   LIG A   1      -6.345  -2.304 124.675  0.00  0.00    +0.067 C 
ATOM      7  C   LIG A   1      -6.163  -2.124 126.185  0.00  0.00    +0.041 C 
ATOM      8  C   LIG A   1      -7.152  -1.185 123.958  0.00  0.00    +0.027 C 
ATOM      9  C   LIG A   1      -6.595   0.238 124.183  0.00  0.00    +0.014 C 
ATOM     10  C   LIG A   1      -7.261   1.260 123.237  0.00  0.00    +0.015 C 
ATOM     11  C   LIG A   1      -8.799   1.192 123.343  0.00  0.00    +0.008 C 
ATOM     12  C   LIG A   1      -9.327  -0.233 123.147  0.00  0.00    +0.007 C 
ENDROOT
BRANCH  10  13
ATOM     13  C   LIG A   1      -6.662   2.653 123.433  0.00  0.00    -0.077 C 
ATOM     14  C   LIG A   1      -6.324   3.394 122.163  0.00  0.00    +0.038 C 
ATOM     15  C   LIG A   1      -6.451   3.237 124.626  0.00  0.00    +0.007 C 
ENDBRANCH  10  13
BRANCH   6  16
ATOM     16  O   LIG A   1      -5.017  -2.280 124.115  0.00  0.00    -0.389 OA
ATOM     17  H   LIG A   1      -4.401  -1.996 124.812  0.00  0.00    +0.210 HD
ENDBRANCH   6  16
TORSDOF 2
ENDMDL
MODEL 5
REMARK VINA RESULT:      -6.2      1.726      2.835
REMARK  Name = NuBBE_2334
REMARK  5 active torsions:
REMARK  status: ('A' for Active; 'I' for Inactive)
REMARK    1  A    between atoms: C_1  and  C_2
REMARK    2  A    between atoms: C_6  and  C_7
REMARK    3  A    between atoms: C_6  and  O_8
REMARK    4  A    between atoms: C_12  and  C_14
REMARK    5  A    between atoms: C_14  and  C_15
REMARK                            x       y       z     vdW  Elec       q    Type
REMARK                         _______ _______ _______ _____ _____    ______ ____
ROOT
ATOM      1  C   LIG A   1      -6.017  -0.252 125.222  0.00  0.00    +0.011 C 
ATOM      2  C   LIG A   1      -6.221  -1.783 125.154  0.00  0.00    -0.027 C 
ATOM      3  C   LIG A   1      -5.848  -2.272 123.731  0.00  0.00    +0.007 C 
ATOM      4  C   LIG A   1      -6.881  -1.886 122.671  0.00  0.00    +0.003 C 
ATOM      5  C   LIG A   1      -8.276  -2.377 123.035  0.00  0.00    +0.035 C 
ATOM      6  C   LIG A   1      -8.750  -1.933 124.432  0.00  0.00    +0.067 C 
ATOM      7  C   LIG A   1      -9.246  -0.483 124.425  0.00  0.00    +0.041 C 
ATOM      8  C   LIG A   1      -7.665  -2.266 125.493  0.00  0.00    +0.027 C 
ATOM      9  C   LIG A   1      -8.069  -1.916 126.942  0.00  0.00    +0.014 C 
ATOM     10  C   LIG A   1      -7.079  -2.516 127.964  0.00  0.00    +0.015 C 
ATOM     11  C   LIG A   1      -5.628  -2.112 127.631  0.00  0.00    +0.008 C 
ATOM     12  C   LIG A   1      -5.257  -2.440 126.180  0.00  0.00    +0.007 C 
ENDROOT
BRANCH  10  13
ATOM     13  C   LIG A   1      -7.521  -2.208 129.394  0.00  0.00    -0.077 C 
ATOM     14  C   LIG A   1      -7.721  -0.745 129.706  0.00  0.00    +0.038 C 
ATOM     15  C   LIG A   1      -7.753  -3.132 130.343  0.00  0.00    +0.007 C 
ENDBRANCH  10  13
BRANCH   6  16
ATOM     16  O   LIG A   1      -9.902  -2.738 124.752  0.00  0.00    -0.389 OA
ATOM     17  H   LIG A   1     -10.472  -2.225 125.351  0.00  0.00    +0.210 HD
ENDBRANCH   6  16
TORSDOF 2
ENDMDL
MODEL 6
REMARK VINA RESULT:      -6.2      8.569     10.921
REMARK  Name = NuBBE_2334
REMARK  5 active torsions:
REMARK  status: ('A' for Active; 'I' for Inactive)
REMARK    1  A    between atoms: C_1  and  C_2
REMARK    2  A    between atoms: C_6  and  C_7
REMARK    3  A    between atoms: C_6  and  O_8
REMARK    4  A    between atoms: C_12  and  C_14
REMARK    5  A    between atoms: C_14  and  C_15
REMARK                            x       y       z     vdW  Elec       q    Type
REMARK                         _______ _______ _______ _____ _____    ______ ____
ROOT
ATOM      1  C   LIG A   1      -7.566   4.482 130.378  0.00  0.00    +0.011 C 
ATOM      2  C   LIG A   1      -7.744   5.397 131.612  0.00  0.00    -0.027 C 
ATOM      3  C   LIG A   1      -6.496   5.256 132.520  0.00  0.00    +0.007 C 
ATOM      4  C   LIG A   1      -6.441   3.923 133.268  0.00  0.00    +0.003 C 
ATOM      5  C   LIG A   1      -7.703   3.680 134.085  0.00  0.00    +0.035 C 
ATOM      6  C   LIG A   1      -9.005   3.783 133.270  0.00  0.00    +0.067 C 
ATOM      7  C   LIG A   1      -9.267   2.510 132.460  0.00  0.00    +0.041 C 
ATOM      8  C   LIG A   1      -9.021   5.110 132.459  0.00  0.00    +0.027 C 
ATOM      9  C   LIG A   1     -10.318   5.342 131.653  0.00  0.00    +0.014 C 
ATOM     10  C   LIG A   1     -10.388   6.781 131.099  0.00  0.00    +0.015 C 
ATOM     11  C   LIG A   1      -9.113   7.130 130.302  0.00  0.00    +0.008 C 
ATOM     12  C   LIG A   1      -7.838   6.864 131.110  0.00  0.00    +0.007 C 
ENDROOT
BRANCH  10  13
ATOM     13  C   LIG A   1     -11.699   7.012 130.350  0.00  0.00    -0.077 C 
ATOM     14  C   LIG A   1     -12.856   7.476 131.202  0.00  0.00    +0.038 C 
ATOM     15  C   LIG A   1     -11.866   6.854 129.025  0.00  0.00    +0.007 C 
ENDBRANCH  10  13
BRANCH   6  16
ATOM     16  O   LIG A   1     -10.083   3.869 134.223  0.00  0.00    -0.389 OA
ATOM     17  H   LIG A   1      -9.708   4.139 135.079  0.00  0.00    +0.210 HD
ENDBRANCH   6  16
TORSDOF 2
ENDMDL
MODEL 7
REMARK VINA RESULT:      -6.1      2.747      5.197
REMARK  Name = NuBBE_2334
REMARK  5 active torsions:
REMARK  status: ('A' for Active; 'I' for Inactive)
REMARK    1  A    between atoms: C_1  and  C_2
REMARK    2  A    between atoms: C_6  and  C_7
REMARK    3  A    between atoms: C_6  and  O_8
REMARK    4  A    between atoms: C_12  and  C_14
REMARK    5  A    between atoms: C_14  and  C_15
REMARK                            x       y       z     vdW  Elec       q    Type
REMARK                         _______ _______ _______ _____ _____    ______ ____
ROOT
ATOM      1  C   LIG A   1      -6.229  -1.123 126.914  0.00  0.00    +0.011 C 
ATOM      2  C   LIG A   1      -7.648  -1.009 127.518  0.00  0.00    -0.027 C 
ATOM      3  C   LIG A   1      -7.730  -1.916 128.772  0.00  0.00    +0.007 C 
ATOM      4  C   LIG A   1      -7.776  -3.408 128.435  0.00  0.00    +0.003 C 
ATOM      5  C   LIG A   1      -8.919  -3.738 127.485  0.00  0.00    +0.035 C 
ATOM      6  C   LIG A   1      -8.922  -2.897 126.194  0.00  0.00    +0.067 C 
ATOM      7  C   LIG A   1      -7.905  -3.422 125.176  0.00  0.00    +0.041 C 
ATOM      8  C   LIG A   1      -8.805  -1.387 126.543  0.00  0.00    +0.027 C 
ATOM      9  C   LIG A   1      -8.863  -0.449 125.317  0.00  0.00    +0.014 C 
ATOM     10  C   LIG A   1      -9.018   1.026 125.743  0.00  0.00    +0.015 C 
ATOM     11  C   LIG A   1      -7.926   1.428 126.757  0.00  0.00    +0.008 C 
ATOM     12  C   LIG A   1      -7.867   0.467 127.949  0.00  0.00    +0.007 C 
ENDROOT
BRANCH  10  13
ATOM     13  C   LIG A   1      -9.128   1.937 124.520  0.00  0.00    -0.077 C 
ATOM     14  C   LIG A   1      -8.446   3.277 124.652  0.00  0.00    +0.038 C 
ATOM     15  C   LIG A   1      -9.753   1.613 123.375  0.00  0.00    +0.007 C 
ENDBRANCH  10  13
BRANCH   6  16
ATOM     16  O   LIG A   1     -10.216  -3.081 125.585  0.00  0.00    -0.389 OA
ATOM     17  H   LIG A   1     -10.300  -4.017 125.335  0.00  0.00    +0.210 HD
ENDBRANCH   6  16
TORSDOF 2
ENDMDL
MODEL 8
REMARK VINA RESULT:      -6.1      1.654      2.793
REMARK  Name = NuBBE_2334
REMARK  5 active torsions:
REMARK  status: ('A' for Active; 'I' for Inactive)
REMARK    1  A    between atoms: C_1  and  C_2
REMARK    2  A    between atoms: C_6  and  C_7
REMARK    3  A    between atoms: C_6  and  O_8
REMARK    4  A    between atoms: C_12  and  C_14
REMARK    5  A    between atoms: C_14  and  C_15
REMARK                            x       y       z     vdW  Elec       q    Type
REMARK                         _______ _______ _______ _____ _____    ______ ____
ROOT
ATOM      1  C   LIG A   1      -9.119  -0.022 125.389  0.00  0.00    +0.011 C 
ATOM      2  C   LIG A   1      -7.606  -0.301 125.544  0.00  0.00    -0.027 C 
ATOM      3  C   LIG A   1      -6.834   0.552 124.506  0.00  0.00    +0.007 C 
ATOM      4  C   LIG A   1      -6.985   0.041 123.072  0.00  0.00    +0.003 C 
ATOM      5  C   LIG A   1      -6.573  -1.420 122.947  0.00  0.00    +0.035 C 
ATOM      6  C   LIG A   1      -7.297  -2.360 123.930  0.00  0.00    +0.067 C 
ATOM      7  C   LIG A   1      -8.710  -2.702 123.449  0.00  0.00    +0.041 C 
ATOM      8  C   LIG A   1      -7.197  -1.796 125.375  0.00  0.00    +0.027 C 
ATOM      9  C   LIG A   1      -7.838  -2.699 126.452  0.00  0.00    +0.014 C 
ATOM     10  C   LIG A   1      -7.470  -2.229 127.875  0.00  0.00    +0.015 C 
ATOM     11  C   LIG A   1      -7.803  -0.735 128.068  0.00  0.00    +0.008 C 
ATOM     12  C   LIG A   1      -7.182   0.139 126.972  0.00  0.00    +0.007 C 
ENDROOT
BRANCH  10  13
ATOM     13  C   LIG A   1      -8.067  -3.163 128.928  0.00  0.00    -0.077 C 
ATOM     14  C   LIG A   1      -9.088  -4.148 128.412  0.00  0.00    +0.038 C 
ATOM     15  C   LIG A   1      -7.729  -3.169 130.229  0.00  0.00    +0.007 C 
ENDBRANCH  10  13
BRANCH   6  16
ATOM     16  O   LIG A   1      -6.569  -3.605 123.922  0.00  0.00    -0.389 OA
ATOM     17  H   LIG A   1      -7.141  -4.291 124.308  0.00  0.00    +0.210 HD
ENDBRANCH   6  16
TORSDOF 2
ENDMDL
MODEL 9
REMARK VINA RESULT:      -5.9      1.531      1.835
REMARK  Name = NuBBE_2334
REMARK  5 active torsions:
REMARK  status: ('A' for Active; 'I' for Inactive)
REMARK    1  A    between atoms: C_1  and  C_2
REMARK    2  A    between atoms: C_6  and  C_7
REMARK    3  A    between atoms: C_6  and  O_8
REMARK    4  A    between atoms: C_12  and  C_14
REMARK    5  A    between atoms: C_14  and  C_15
REMARK                            x       y       z     vdW  Elec       q    Type
REMARK                         _______ _______ _______ _____ _____    ______ ____
ROOT
ATOM      1  C   LIG A   1      -6.951  -3.358 124.740  0.00  0.00    +0.011 C 
ATOM      2  C   LIG A   1      -8.366  -2.855 125.111  0.00  0.00    -0.027 C 
ATOM      3  C   LIG A   1      -9.363  -3.324 124.022  0.00  0.00    +0.007 C 
ATOM      4  C   LIG A   1      -9.219  -2.561 122.704  0.00  0.00    +0.003 C 
ATOM      5  C   LIG A   1      -9.347  -1.057 122.904  0.00  0.00    +0.035 C 
ATOM      6  C   LIG A   1      -8.385  -0.484 123.963  0.00  0.00    +0.067 C 
ATOM      7  C   LIG A   1      -6.971  -0.304 123.402  0.00  0.00    +0.041 C 
ATOM      8  C   LIG A   1      -8.487  -1.309 125.276  0.00  0.00    +0.027 C 
ATOM      9  C   LIG A   1      -7.605  -0.776 126.427  0.00  0.00    +0.014 C 
ATOM     10  C   LIG A   1      -7.954  -1.459 127.766  0.00  0.00    +0.015 C 
ATOM     11  C   LIG A   1      -7.905  -2.995 127.634  0.00  0.00    +0.008 C 
ATOM     12  C   LIG A   1      -8.762  -3.500 126.468  0.00  0.00    +0.007 C 
ENDROOT
BRANCH  10  13
ATOM     13  C   LIG A   1      -7.112  -0.884 128.905  0.00  0.00    -0.077 C 
ATOM     14  C   LIG A   1      -7.894  -0.365 130.087  0.00  0.00    +0.038 C 
ATOM     15  C   LIG A   1      -5.768  -0.837 128.919  0.00  0.00    +0.007 C 
ENDBRANCH  10  13
BRANCH   6  16
ATOM     16  O   LIG A   1      -8.855   0.844 124.271  0.00  0.00    -0.389 OA
ATOM     17  H   LIG A   1      -9.113   1.273 123.437  0.00  0.00    +0.210 HD
ENDBRANCH   6  16
TORSDOF 2
ENDMDL
