MODEL 1
REMARK VINA RESULT:      -9.6      0.000      0.000
REMARK  Name = NuBBE_954
REMARK  7 active torsions:
REMARK  status: ('A' for Active; 'I' for Inactive)
REMARK    1  A    between atoms: C_1  and  C_2
REMARK    2  A    between atoms: C_8  and  C_10
REMARK    3  A    between atoms: C_15  and  C_16
REMARK    4  A    between atoms: C_18  and  O_19
REMARK    5  A    between atoms: C_21  and  C_26
REMARK    6  A    between atoms: C_30  and  C_31
REMARK    7  A    between atoms: C_30  and  C_32
REMARK                            x       y       z     vdW  Elec       q    Type
REMARK                         _______ _______ _______ _____ _____    ______ ____
ROOT
ATOM      1  C   LIG A   1      -8.573   2.859 122.954  0.00  0.00    +0.014 C 
ATOM      2  C   LIG A   1      -7.191   2.463 123.517  0.00  0.00    +0.007 C 
ATOM      3  C   LIG A   1      -7.185   2.573 125.057  0.00  0.00    +0.115 C 
ATOM      4  C   LIG A   1      -6.466   3.861 125.410  0.00  0.00    +0.153 C 
ATOM      5  O   LIG A   1      -7.870   3.760 125.545  0.00  0.00    -0.363 OA
ATOM      6  C   LIG A   1      -6.042   4.579 124.170  0.00  0.00    +0.043 C 
ATOM      7  C   LIG A   1      -6.043   3.472 123.101  0.00  0.00    +0.033 C 
ATOM      8  C   LIG A   1      -7.480   1.353 125.970  0.00  0.00    +0.070 C 
ATOM      9  C   LIG A   1      -8.997   1.311 126.283  0.00  0.00    +0.023 C 
ATOM     10  C   LIG A   1      -6.748   1.396 127.317  0.00  0.00    +0.206 C 
ATOM     11  C   LIG A   1      -6.724   0.154 128.154  0.00  0.00    +0.161 C 
ATOM     12  C   LIG A   1      -7.025  -1.063 127.657  0.00  0.00    -0.002 C 
ATOM     13  C   LIG A   1      -7.193  -1.288 126.135  0.00  0.00    +0.016 C 
ATOM     14  C   LIG A   1      -6.972   0.042 125.298  0.00  0.00    +0.019 C 
ATOM     15  C   LIG A   1      -7.452  -0.051 123.833  0.00  0.00    +0.006 C 
ATOM     16  C   LIG A   1      -6.812   1.059 123.016  0.00  0.00    +0.010 C 
ATOM     17  C   LIG A   1      -6.094  -2.282 125.650  0.00  0.00    +0.020 C 
ATOM     18  C   LIG A   1      -8.535  -1.955 125.901  0.00  0.00    -0.012 C 
ATOM     19  C   LIG A   1      -9.027  -2.896 126.717  0.00  0.00    +0.044 C 
ATOM     20  C   LIG A   1      -8.250  -3.307 127.911  0.00  0.00    +0.166 C 
ATOM     21  C   LIG A   1      -7.300  -2.284 128.582  0.00  0.00    +0.053 C 
ATOM     22  C   LIG A   1      -5.989  -2.986 128.973  0.00  0.00    +0.024 C 
ATOM     23  C   LIG A   1      -8.059  -1.909 129.884  0.00  0.00    +0.024 C 
ATOM     24  O   LIG A   1      -8.441  -4.438 128.356  0.00  0.00    -0.292 OA
ATOM     25  O   LIG A   1      -6.256   2.395 127.843  0.00  0.00    -0.288 OA
ENDROOT
BRANCH   7  26
ATOM     26  C   LIG A   1      -6.067   3.956 121.685  0.00  0.00    -0.006 A 
ATOM     27  C   LIG A   1      -5.066   4.664 121.047  0.00  0.00    +0.198 A 
ATOM     28  O   LIG A   1      -5.406   4.948 119.765  0.00  0.00    -0.471 OA
ATOM     29  C   LIG A   1      -6.641   4.426 119.563  0.00  0.00    +0.195 A 
ATOM     30  C   LIG A   1      -7.093   3.810 120.705  0.00  0.00    +0.045 A 
ENDBRANCH   7  26
BRANCH  11  31
ATOM     31  O   LIG A   1      -6.398   0.352 129.481  0.00  0.00    -0.503 OA
ATOM     32  H   LIG A   1      -6.855   1.185 129.737  0.00  0.00    +0.292 HD
ENDBRANCH  11  31
TORSDOF 2
ENDMDL
MODEL 2
REMARK VINA RESULT:      -9.1      3.200      5.203
REMARK  Name = NuBBE_954
REMARK  7 active torsions:
REMARK  status: ('A' for Active; 'I' for Inactive)
REMARK    1  A    between atoms: C_1  and  C_2
REMARK    2  A    between atoms: C_8  and  C_10
REMARK    3  A    between atoms: C_15  and  C_16
REMARK    4  A    between atoms: C_18  and  O_19
REMARK    5  A    between atoms: C_21  and  C_26
REMARK    6  A    between atoms: C_30  and  C_31
REMARK    7  A    between atoms: C_30  and  C_32
REMARK                            x       y       z     vdW  Elec       q    Type
REMARK                         _______ _______ _______ _____ _____    ______ ____
ROOT
ATOM      1  C   LIG A   1      -6.241   4.111 128.012  0.00  0.00    +0.014 C 
ATOM      2  C   LIG A   1      -5.393   2.821 128.009  0.00  0.00    +0.007 C 
ATOM      3  C   LIG A   1      -6.192   1.648 128.613  0.00  0.00    +0.115 C 
ATOM      4  C   LIG A   1      -5.688   1.447 130.030  0.00  0.00    +0.153 C 
ATOM      5  O   LIG A   1      -6.955   2.027 129.792  0.00  0.00    -0.363 OA
ATOM      6  C   LIG A   1      -4.630   2.451 130.355  0.00  0.00    +0.043 C 
ATOM      7  C   LIG A   1      -4.137   2.907 128.970  0.00  0.00    +0.033 C 
ATOM      8  C   LIG A   1      -7.000   0.660 127.729  0.00  0.00    +0.070 C 
ATOM      9  C   LIG A   1      -8.453   1.180 127.590  0.00  0.00    +0.023 C 
ATOM     10  C   LIG A   1      -7.087  -0.758 128.306  0.00  0.00    +0.206 C 
ATOM     11  C   LIG A   1      -7.586  -1.857 127.418  0.00  0.00    +0.161 C 
ATOM     12  C   LIG A   1      -7.655  -1.734 126.077  0.00  0.00    -0.002 C 
ATOM     13  C   LIG A   1      -7.009  -0.531 125.349  0.00  0.00    +0.016 C 
ATOM     14  C   LIG A   1      -6.298   0.473 126.351  0.00  0.00    +0.019 C 
ATOM     15  C   LIG A   1      -5.937   1.838 125.723  0.00  0.00    +0.006 C 
ATOM     16  C   LIG A   1      -4.895   2.534 126.582  0.00  0.00    +0.010 C 
ATOM     17  C   LIG A   1      -5.885  -1.059 124.407  0.00  0.00    +0.020 C 
ATOM     18  C   LIG A   1      -8.065   0.112 124.470  0.00  0.00    -0.012 C 
ATOM     19  C   LIG A   1      -8.972  -0.601 123.789  0.00  0.00    +0.044 C 
ATOM     20  C   LIG A   1      -8.968  -2.080 123.896  0.00  0.00    +0.166 C 
ATOM     21  C   LIG A   1      -8.453  -2.741 125.199  0.00  0.00    +0.053 C 
ATOM     22  C   LIG A   1      -7.592  -3.965 124.844  0.00  0.00    +0.024 C 
ATOM     23  C   LIG A   1      -9.758  -3.243 125.873  0.00  0.00    +0.024 C 
ATOM     24  O   LIG A   1      -9.436  -2.723 122.957  0.00  0.00    -0.292 OA
ATOM     25  O   LIG A   1      -6.884  -1.078 129.478  0.00  0.00    -0.288 OA
ENDROOT
BRANCH   7  26
ATOM     26  C   LIG A   1      -3.380   4.199 128.959  0.00  0.00    -0.006 A 
ATOM     27  C   LIG A   1      -3.159   5.024 130.045  0.00  0.00    +0.198 A 
ATOM     28  O   LIG A   1      -2.437   6.116 129.693  0.00  0.00    -0.471 OA
ATOM     29  C   LIG A   1      -2.187   6.008 128.364  0.00  0.00    +0.195 A 
ATOM     30  C   LIG A   1      -2.743   4.855 127.865  0.00  0.00    +0.045 A 
ENDBRANCH   7  26
BRANCH  11  31
ATOM     31  O   LIG A   1      -7.997  -2.998 128.079  0.00  0.00    -0.503 OA
ATOM     32  H   LIG A   1      -8.797  -2.729 128.583  0.00  0.00    +0.292 HD
ENDBRANCH  11  31
TORSDOF 2
ENDMDL
MODEL 3
REMARK VINA RESULT:      -9.0      2.923      8.181
REMARK  Name = NuBBE_954
REMARK  7 active torsions:
REMARK  status: ('A' for Active; 'I' for Inactive)
REMARK    1  A    between atoms: C_1  and  C_2
REMARK    2  A    between atoms: C_8  and  C_10
REMARK    3  A    between atoms: C_15  and  C_16
REMARK    4  A    between atoms: C_18  and  O_19
REMARK    5  A    between atoms: C_21  and  C_26
REMARK    6  A    between atoms: C_30  and  C_31
REMARK    7  A    between atoms: C_30  and  C_32
REMARK                            x       y       z     vdW  Elec       q    Type
REMARK                         _______ _______ _______ _____ _____    ______ ____
ROOT
ATOM      1  C   LIG A   1      -5.332  -1.403 131.324  0.00  0.00    +0.014 C 
ATOM      2  C   LIG A   1      -6.788  -1.487 130.820  0.00  0.00    +0.007 C 
ATOM      3  C   LIG A   1      -7.129  -0.260 129.948  0.00  0.00    +0.115 C 
ATOM      4  C   LIG A   1      -7.947   0.685 130.806  0.00  0.00    +0.153 C 
ATOM      5  O   LIG A   1      -6.603   0.985 130.488  0.00  0.00    -0.363 OA
ATOM      6  C   LIG A   1      -8.119   0.125 132.181  0.00  0.00    +0.043 C 
ATOM      7  C   LIG A   1      -7.852  -1.378 131.989  0.00  0.00    +0.033 C 
ATOM      8  C   LIG A   1      -6.997  -0.288 128.402  0.00  0.00    +0.070 C 
ATOM      9  C   LIG A   1      -5.582   0.204 128.006  0.00  0.00    +0.023 C 
ATOM     10  C   LIG A   1      -8.002   0.617 127.678  0.00  0.00    +0.206 C 
ATOM     11  C   LIG A   1      -8.164   0.458 126.198  0.00  0.00    +0.161 C 
ATOM     12  C   LIG A   1      -7.725  -0.628 125.531  0.00  0.00    -0.002 C 
ATOM     13  C   LIG A   1      -7.227  -1.884 126.284  0.00  0.00    +0.016 C 
ATOM     14  C   LIG A   1      -7.306  -1.716 127.861  0.00  0.00    +0.019 C 
ATOM     15  C   LIG A   1      -6.520  -2.789 128.647  0.00  0.00    +0.006 C 
ATOM     16  C   LIG A   1      -7.005  -2.822 130.087  0.00  0.00    +0.010 C 
ATOM     17  C   LIG A   1      -8.163  -3.082 125.938  0.00  0.00    +0.020 C 
ATOM     18  C   LIG A   1      -5.845  -2.231 125.764  0.00  0.00    -0.012 C 
ATOM     19  C   LIG A   1      -5.509  -2.119 124.472  0.00  0.00    +0.044 C 
ATOM     20  C   LIG A   1      -6.511  -1.625 123.498  0.00  0.00    +0.166 C 
ATOM     21  C   LIG A   1      -7.615  -0.651 123.978  0.00  0.00    +0.053 C 
ATOM     22  C   LIG A   1      -8.956  -1.044 123.337  0.00  0.00    +0.024 C 
ATOM     23  C   LIG A   1      -7.166   0.707 123.374  0.00  0.00    +0.024 C 
ATOM     24  O   LIG A   1      -6.383  -1.969 122.323  0.00  0.00    -0.292 OA
ATOM     25  O   LIG A   1      -8.628   1.552 128.180  0.00  0.00    -0.288 OA
ENDROOT
BRANCH   7  26
ATOM     26  C   LIG A   1      -7.540  -2.134 133.242  0.00  0.00    -0.006 A 
ATOM     27  C   LIG A   1      -6.690  -1.724 134.252  0.00  0.00    +0.198 A 
ATOM     28  O   LIG A   1      -6.631  -2.644 135.247  0.00  0.00    -0.471 OA
ATOM     29  C   LIG A   1      -7.445  -3.665 134.885  0.00  0.00    +0.195 A 
ATOM     30  C   LIG A   1      -8.025  -3.406 133.666  0.00  0.00    +0.045 A 
ENDBRANCH   7  26
BRANCH  11  31
ATOM     31  O   LIG A   1      -8.774   1.522 125.561  0.00  0.00    -0.503 OA
ATOM     32  H   LIG A   1      -8.876   1.237 124.626  0.00  0.00    +0.292 HD
ENDBRANCH  11  31
TORSDOF 2
ENDMDL
MODEL 4
REMARK VINA RESULT:      -9.0      6.263      7.357
REMARK  Name = NuBBE_954
REMARK  7 active torsions:
REMARK  status: ('A' for Active; 'I' for Inactive)
REMARK    1  A    between atoms: C_1  and  C_2
REMARK    2  A    between atoms: C_8  and  C_10
REMARK    3  A    between atoms: C_15  and  C_16
REMARK    4  A    between atoms: C_18  and  O_19
REMARK    5  A    between atoms: C_21  and  C_26
REMARK    6  A    between atoms: C_30  and  C_31
REMARK    7  A    between atoms: C_30  and  C_32
REMARK                            x       y       z     vdW  Elec       q    Type
REMARK                         _______ _______ _______ _____ _____    ______ ____
ROOT
ATOM      1  C   LIG A   1      -9.011   3.230 133.346  0.00  0.00    +0.014 C 
ATOM      2  C   LIG A   1      -8.628   2.977 131.872  0.00  0.00    +0.007 C 
ATOM      3  C   LIG A   1      -7.119   2.680 131.750  0.00  0.00    +0.115 C 
ATOM      4  C   LIG A   1      -6.454   3.945 131.243  0.00  0.00    +0.153 C 
ATOM      5  O   LIG A   1      -6.300   3.542 132.589  0.00  0.00    -0.363 OA
ATOM      6  C   LIG A   1      -7.466   5.030 131.062  0.00  0.00    +0.043 C 
ATOM      7  C   LIG A   1      -8.796   4.262 130.961  0.00  0.00    +0.033 C 
ATOM      8  C   LIG A   1      -6.563   1.231 131.744  0.00  0.00    +0.070 C 
ATOM      9  C   LIG A   1      -6.218   0.816 133.196  0.00  0.00    +0.023 C 
ATOM     10  C   LIG A   1      -5.282   1.063 130.916  0.00  0.00    +0.206 C 
ATOM     11  C   LIG A   1      -4.818  -0.326 130.600  0.00  0.00    +0.161 C 
ATOM     12  C   LIG A   1      -5.616  -1.406 130.723  0.00  0.00    -0.002 C 
ATOM     13  C   LIG A   1      -7.134  -1.254 130.980  0.00  0.00    +0.016 C 
ATOM     14  C   LIG A   1      -7.585   0.265 131.073  0.00  0.00    +0.019 C 
ATOM     15  C   LIG A   1      -9.001   0.466 131.655  0.00  0.00    +0.006 C 
ATOM     16  C   LIG A   1      -9.507   1.853 131.295  0.00  0.00    +0.010 C 
ATOM     17  C   LIG A   1      -7.912  -1.854 129.770  0.00  0.00    +0.020 C 
ATOM     18  C   LIG A   1      -7.492  -2.084 132.199  0.00  0.00    -0.012 C 
ATOM     19  C   LIG A   1      -6.946  -3.282 132.443  0.00  0.00    +0.044 C 
ATOM     20  C   LIG A   1      -5.939  -3.831 131.504  0.00  0.00    +0.166 C 
ATOM     21  C   LIG A   1      -5.049  -2.855 130.695  0.00  0.00    +0.053 C 
ATOM     22  C   LIG A   1      -4.913  -3.366 129.251  0.00  0.00    +0.024 C 
ATOM     23  C   LIG A   1      -3.668  -2.987 131.391  0.00  0.00    +0.024 C 
ATOM     24  O   LIG A   1      -5.813  -5.055 131.452  0.00  0.00    -0.292 OA
ATOM     25  O   LIG A   1      -4.523   1.966 130.564  0.00  0.00    -0.288 OA
ENDROOT
BRANCH   7  26
ATOM     26  C   LIG A   1     -10.024   5.084 131.195  0.00  0.00    -0.006 A 
ATOM     27  C   LIG A   1     -11.218   4.983 130.505  0.00  0.00    +0.198 A 
ATOM     28  O   LIG A   1     -12.128   5.876 130.967  0.00  0.00    -0.471 OA
ATOM     29  C   LIG A   1     -11.526   6.570 131.963  0.00  0.00    +0.195 A 
ATOM     30  C   LIG A   1     -10.237   6.128 132.143  0.00  0.00    +0.045 A 
ENDBRANCH   7  26
BRANCH  11  31
ATOM     31  O   LIG A   1      -3.499  -0.422 130.199  0.00  0.00    -0.503 OA
ATOM     32  H   LIG A   1      -3.408   0.222 129.461  0.00  0.00    +0.292 HD
ENDBRANCH  11  31
TORSDOF 2
ENDMDL
MODEL 5
REMARK VINA RESULT:      -8.9      3.158      6.578
REMARK  Name = NuBBE_954
REMARK  7 active torsions:
REMARK  status: ('A' for Active; 'I' for Inactive)
REMARK    1  A    between atoms: C_1  and  C_2
REMARK    2  A    between atoms: C_8  and  C_10
REMARK    3  A    between atoms: C_15  and  C_16
REMARK    4  A    between atoms: C_18  and  O_19
REMARK    5  A    between atoms: C_21  and  C_26
REMARK    6  A    between atoms: C_30  and  C_31
REMARK    7  A    between atoms: C_30  and  C_32
REMARK                            x       y       z     vdW  Elec       q    Type
REMARK                         _______ _______ _______ _____ _____    ______ ____
ROOT
ATOM      1  C   LIG A   1      -6.192   2.618 130.243  0.00  0.00    +0.014 C 
ATOM      2  C   LIG A   1      -7.551   2.347 129.562  0.00  0.00    +0.007 C 
ATOM      3  C   LIG A   1      -7.466   2.644 128.050  0.00  0.00    +0.115 C 
ATOM      4  C   LIG A   1      -8.122   3.993 127.823  0.00  0.00    +0.153 C 
ATOM      5  O   LIG A   1      -6.717   3.856 127.751  0.00  0.00    -0.363 OA
ATOM      6  C   LIG A   1      -8.594   4.569 129.118  0.00  0.00    +0.043 C 
ATOM      7  C   LIG A   1      -8.689   3.340 130.040  0.00  0.00    +0.033 C 
ATOM      8  C   LIG A   1      -7.157   1.535 127.010  0.00  0.00    +0.070 C 
ATOM      9  C   LIG A   1      -5.626   1.475 126.775  0.00  0.00    +0.023 C 
ATOM     10  C   LIG A   1      -7.809   1.771 125.641  0.00  0.00    +0.206 C 
ATOM     11  C   LIG A   1      -7.823   0.643 124.657  0.00  0.00    +0.161 C 
ATOM     12  C   LIG A   1      -7.589  -0.637 125.014  0.00  0.00    -0.002 C 
ATOM     13  C   LIG A   1      -7.516  -1.053 126.502  0.00  0.00    +0.016 C 
ATOM     14  C   LIG A   1      -7.743   0.172 127.485  0.00  0.00    +0.019 C 
ATOM     15  C   LIG A   1      -7.351  -0.118 128.951  0.00  0.00    +0.006 C 
ATOM     16  C   LIG A   1      -8.002   0.908 129.865  0.00  0.00    +0.010 C 
ATOM     17  C   LIG A   1      -8.672  -2.056 126.801  0.00  0.00    +0.020 C 
ATOM     18  C   LIG A   1      -6.211  -1.794 126.722  0.00  0.00    -0.012 C 
ATOM     19  C   LIG A   1      -5.702  -2.646 125.822  0.00  0.00    +0.044 C 
ATOM     20  C   LIG A   1      -6.422  -2.877 124.548  0.00  0.00    +0.166 C 
ATOM     21  C   LIG A   1      -7.299  -1.745 123.959  0.00  0.00    +0.053 C 
ATOM     22  C   LIG A   1      -8.607  -2.343 123.415  0.00  0.00    +0.024 C 
ATOM     23  C   LIG A   1      -6.456  -1.242 122.757  0.00  0.00    +0.024 C 
ATOM     24  O   LIG A   1      -6.241  -3.952 123.976  0.00  0.00    -0.292 OA
ATOM     25  O   LIG A   1      -8.238   2.845 125.219  0.00  0.00    -0.288 OA
ENDROOT
BRANCH   7  26
ATOM     26  C   LIG A   1      -8.731   3.646 131.504  0.00  0.00    -0.006 A 
ATOM     27  C   LIG A   1      -8.310   4.816 132.106  0.00  0.00    +0.198 A 
ATOM     28  O   LIG A   1      -8.487   4.769 133.450  0.00  0.00    -0.471 OA
ATOM     29  C   LIG A   1      -9.023   3.556 133.731  0.00  0.00    +0.195 A 
ATOM     30  C   LIG A   1      -9.192   2.828 132.578  0.00  0.00    +0.045 A 
ENDBRANCH   7  26
BRANCH  11  31
ATOM     31  O   LIG A   1      -8.066   1.014 123.349  0.00  0.00    -0.503 OA
ATOM     32  H   LIG A   1      -8.069   1.997 123.357  0.00  0.00    +0.292 HD
ENDBRANCH  11  31
TORSDOF 2
ENDMDL
MODEL 6
REMARK VINA RESULT:      -8.9      3.939      6.746
REMARK  Name = NuBBE_954
REMARK  7 active torsions:
REMARK  status: ('A' for Active; 'I' for Inactive)
REMARK    1  A    between atoms: C_1  and  C_2
REMARK    2  A    between atoms: C_8  and  C_10
REMARK    3  A    between atoms: C_15  and  C_16
REMARK    4  A    between atoms: C_18  and  O_19
REMARK    5  A    between atoms: C_21  and  C_26
REMARK    6  A    between atoms: C_30  and  C_31
REMARK    7  A    between atoms: C_30  and  C_32
REMARK                            x       y       z     vdW  Elec       q    Type
REMARK                         _______ _______ _______ _____ _____    ______ ____
ROOT
ATOM      1  C   LIG A   1      -6.612  -0.285 126.117  0.00  0.00    +0.014 C 
ATOM      2  C   LIG A   1      -7.840  -0.482 127.031  0.00  0.00    +0.007 C 
ATOM      3  C   LIG A   1      -7.394  -0.771 128.479  0.00  0.00    +0.115 C 
ATOM      4  C   LIG A   1      -7.543  -2.264 128.703  0.00  0.00    +0.153 C 
ATOM      5  O   LIG A   1      -6.263  -1.683 128.554  0.00  0.00    -0.363 OA
ATOM      6  C   LIG A   1      -8.038  -2.931 127.461  0.00  0.00    +0.043 C 
ATOM      7  C   LIG A   1      -8.677  -1.777 126.668  0.00  0.00    +0.033 C 
ATOM      8  C   LIG A   1      -7.264   0.354 129.541  0.00  0.00    +0.070 C 
ATOM      9  C   LIG A   1      -5.814   0.898 129.526  0.00  0.00    +0.023 C 
ATOM     10  C   LIG A   1      -7.550  -0.112 130.975  0.00  0.00    +0.206 C 
ATOM     11  C   LIG A   1      -7.738   0.929 132.035  0.00  0.00    +0.161 C 
ATOM     12  C   LIG A   1      -7.985   2.223 131.749  0.00  0.00    -0.002 C 
ATOM     13  C   LIG A   1      -8.317   2.675 130.307  0.00  0.00    +0.016 C 
ATOM     14  C   LIG A   1      -8.323   1.466 129.279  0.00  0.00    +0.019 C 
ATOM     15  C   LIG A   1      -8.314   1.901 127.797  0.00  0.00    +0.006 C 
ATOM     16  C   LIG A   1      -8.766   0.742 126.923  0.00  0.00    +0.010 C 
ATOM     17  C   LIG A   1      -9.762   3.260 130.283  0.00  0.00    +0.020 C 
ATOM     18  C   LIG A   1      -7.371   3.802 129.935  0.00  0.00    -0.012 C 
ATOM     19  C   LIG A   1      -7.001   4.751 130.805  0.00  0.00    +0.044 C 
ATOM     20  C   LIG A   1      -7.514   4.709 132.195  0.00  0.00    +0.166 C 
ATOM     21  C   LIG A   1      -7.871   3.340 132.827  0.00  0.00    +0.053 C 
ATOM     22  C   LIG A   1      -9.179   3.473 133.624  0.00  0.00    +0.024 C 
ATOM     23  C   LIG A   1      -6.710   3.108 133.830  0.00  0.00    +0.024 C 
ATOM     24  O   LIG A   1      -7.578   5.771 132.813  0.00  0.00    -0.292 OA
ATOM     25  O   LIG A   1      -7.539  -1.276 131.374  0.00  0.00    -0.288 OA
ENDROOT
BRANCH   7  26
ATOM     26  C   LIG A   1      -8.886  -2.045 125.211  0.00  0.00    -0.006 A 
ATOM     27  C   LIG A   1      -9.342  -1.140 124.271  0.00  0.00    +0.198 A 
ATOM     28  O   LIG A   1      -9.417  -1.706 123.041  0.00  0.00    -0.471 OA
ATOM     29  C   LIG A   1      -9.011  -2.993 123.177  0.00  0.00    +0.195 A 
ATOM     30  C   LIG A   1      -8.676  -3.254 124.483  0.00  0.00    +0.045 A 
ENDBRANCH   7  26
BRANCH  11  31
ATOM     31  O   LIG A   1      -7.612   0.468 133.331  0.00  0.00    -0.503 OA
ATOM     32  H   LIG A   1      -7.304   1.245 133.851  0.00  0.00    +0.292 HD
ENDBRANCH  11  31
TORSDOF 2
ENDMDL
MODEL 7
REMARK VINA RESULT:      -8.7      4.230      6.934
REMARK  Name = NuBBE_954
REMARK  7 active torsions:
REMARK  status: ('A' for Active; 'I' for Inactive)
REMARK    1  A    between atoms: C_1  and  C_2
REMARK    2  A    between atoms: C_8  and  C_10
REMARK    3  A    between atoms: C_15  and  C_16
REMARK    4  A    between atoms: C_18  and  O_19
REMARK    5  A    between atoms: C_21  and  C_26
REMARK    6  A    between atoms: C_30  and  C_31
REMARK    7  A    between atoms: C_30  and  C_32
REMARK                            x       y       z     vdW  Elec       q    Type
REMARK                         _______ _______ _______ _____ _____    ______ ____
ROOT
ATOM      1  C   LIG A   1      -6.146  -1.621 126.525  0.00  0.00    +0.014 C 
ATOM      2  C   LIG A   1      -7.401  -1.306 127.367  0.00  0.00    +0.007 C 
ATOM      3  C   LIG A   1      -7.186  -1.732 128.835  0.00  0.00    +0.115 C 
ATOM      4  C   LIG A   1      -7.926  -3.042 129.032  0.00  0.00    +0.153 C 
ATOM      5  O   LIG A   1      -6.514  -3.017 128.961  0.00  0.00    -0.363 OA
ATOM      6  C   LIG A   1      -8.575  -3.472 127.757  0.00  0.00    +0.043 C 
ATOM      7  C   LIG A   1      -8.660  -2.167 126.944  0.00  0.00    +0.033 C 
ATOM      8  C   LIG A   1      -6.681  -0.739 129.915  0.00  0.00    +0.070 C 
ATOM      9  C   LIG A   1      -5.135  -0.813 129.986  0.00  0.00    +0.023 C 
ATOM     10  C   LIG A   1      -7.206  -1.038 131.325  0.00  0.00    +0.206 C 
ATOM     11  C   LIG A   1      -7.025   0.004 132.386  0.00  0.00    +0.161 C 
ATOM     12  C   LIG A   1      -6.723   1.287 132.102  0.00  0.00    -0.002 C 
ATOM     13  C   LIG A   1      -6.769   1.818 130.649  0.00  0.00    +0.016 C 
ATOM     14  C   LIG A   1      -7.196   0.699 129.608  0.00  0.00    +0.019 C 
ATOM     15  C   LIG A   1      -6.934   1.078 128.134  0.00  0.00    +0.006 C 
ATOM     16  C   LIG A   1      -7.759   0.183 127.223  0.00  0.00    +0.010 C 
ATOM     17  C   LIG A   1      -7.861   2.926 130.553  0.00  0.00    +0.020 C 
ATOM     18  C   LIG A   1      -5.436   2.474 130.343  0.00  0.00    -0.012 C 
ATOM     19  C   LIG A   1      -4.768   3.209 131.243  0.00  0.00    +0.044 C 
ATOM     20  C   LIG A   1      -5.332   3.388 132.602  0.00  0.00    +0.166 C 
ATOM     21  C   LIG A   1      -6.236   2.280 133.198  0.00  0.00    +0.053 C 
ATOM     22  C   LIG A   1      -7.427   2.928 133.923  0.00  0.00    +0.024 C 
ATOM     23  C   LIG A   1      -5.319   1.618 134.261  0.00  0.00    +0.024 C 
ATOM     24  O   LIG A   1      -5.004   4.395 133.229  0.00  0.00    -0.292 OA
ATOM     25  O   LIG A   1      -7.678  -2.107 131.711  0.00  0.00    -0.288 OA
ENDROOT
BRANCH   7  26
ATOM     26  C   LIG A   1      -8.878  -2.348 125.474  0.00  0.00    -0.006 A 
ATOM     27  C   LIG A   1      -9.266  -1.367 124.581  0.00  0.00    +0.198 A 
ATOM     28  O   LIG A   1      -9.371  -1.864 123.323  0.00  0.00    -0.471 OA
ATOM     29  C   LIG A   1      -9.054  -3.180 123.394  0.00  0.00    +0.195 A 
ATOM     30  C   LIG A   1      -8.745  -3.529 124.687  0.00  0.00    +0.045 A 
ENDBRANCH   7  26
BRANCH  11  31
ATOM     31  O   LIG A   1      -7.163  -0.455 133.682  0.00  0.00    -0.503 OA
ATOM     32  H   LIG A   1      -6.916   0.308 134.252  0.00  0.00    +0.292 HD
ENDBRANCH  11  31
TORSDOF 2
ENDMDL
MODEL 8
REMARK VINA RESULT:      -8.7      5.579      9.543
REMARK  Name = NuBBE_954
REMARK  7 active torsions:
REMARK  status: ('A' for Active; 'I' for Inactive)
REMARK    1  A    between atoms: C_1  and  C_2
REMARK    2  A    between atoms: C_8  and  C_10
REMARK    3  A    between atoms: C_15  and  C_16
REMARK    4  A    between atoms: C_18  and  O_19
REMARK    5  A    between atoms: C_21  and  C_26
REMARK    6  A    between atoms: C_30  and  C_31
REMARK    7  A    between atoms: C_30  and  C_32
REMARK                            x       y       z     vdW  Elec       q    Type
REMARK                         _______ _______ _______ _____ _____    ______ ____
ROOT
ATOM      1  C   LIG A   1      -7.279  -2.398 133.007  0.00  0.00    +0.014 C 
ATOM      2  C   LIG A   1      -6.426  -1.467 132.119  0.00  0.00    +0.007 C 
ATOM      3  C   LIG A   1      -7.293  -0.839 131.007  0.00  0.00    +0.115 C 
ATOM      4  C   LIG A   1      -6.997  -1.598 129.728  0.00  0.00    +0.153 C 
ATOM      5  O   LIG A   1      -8.222  -1.785 130.408  0.00  0.00    -0.363 OA
ATOM      6  C   LIG A   1      -6.006  -2.687 129.984  0.00  0.00    +0.043 C 
ATOM      7  C   LIG A   1      -5.323  -2.245 131.291  0.00  0.00    +0.033 C 
ATOM      8  C   LIG A   1      -7.955   0.556 131.169  0.00  0.00    +0.070 C 
ATOM      9  C   LIG A   1      -9.378   0.374 131.755  0.00  0.00    +0.023 C 
ATOM     10  C   LIG A   1      -8.111   1.324 129.850  0.00  0.00    +0.206 C 
ATOM     11  C   LIG A   1      -8.466   2.777 129.913  0.00  0.00    +0.161 C 
ATOM     12  C   LIG A   1      -8.343   3.509 131.039  0.00  0.00    -0.002 C 
ATOM     13  C   LIG A   1      -7.610   2.949 132.281  0.00  0.00    +0.016 C 
ATOM     14  C   LIG A   1      -7.060   1.478 132.049  0.00  0.00    +0.019 C 
ATOM     15  C   LIG A   1      -6.626   0.758 133.344  0.00  0.00    +0.006 C 
ATOM     16  C   LIG A   1      -5.725  -0.416 132.997  0.00  0.00    +0.010 C 
ATOM     17  C   LIG A   1      -6.357   3.831 132.566  0.00  0.00    +0.020 C 
ATOM     18  C   LIG A   1      -8.535   3.085 133.477  0.00  0.00    -0.012 C 
ATOM     19  C   LIG A   1      -9.327   4.149 133.661  0.00  0.00    +0.044 C 
ATOM     20  C   LIG A   1      -9.324   5.243 132.660  0.00  0.00    +0.166 C 
ATOM     21  C   LIG A   1      -8.996   4.915 131.182  0.00  0.00    +0.053 C 
ATOM     22  C   LIG A   1      -8.081   6.008 130.608  0.00  0.00    +0.024 C 
ATOM     23  C   LIG A   1     -10.380   5.022 130.487  0.00  0.00    +0.024 C 
ATOM     24  O   LIG A   1      -9.645   6.368 133.042  0.00  0.00    -0.292 OA
ATOM     25  O   LIG A   1      -8.076   0.837 128.720  0.00  0.00    -0.288 OA
ENDROOT
BRANCH   7  26
ATOM     26  C   LIG A   1      -4.585  -3.325 132.019  0.00  0.00    -0.006 A 
ATOM     27  C   LIG A   1      -3.373  -3.190 132.668  0.00  0.00    +0.198 A 
ATOM     28  O   LIG A   1      -2.983  -4.363 133.227  0.00  0.00    -0.471 OA
ATOM     29  C   LIG A   1      -3.944  -5.273 132.937  0.00  0.00    +0.195 A 
ATOM     30  C   LIG A   1      -4.947  -4.692 132.198  0.00  0.00    +0.045 A 
ENDBRANCH   7  26
BRANCH  11  31
ATOM     31  O   LIG A   1      -8.957   3.308 128.735  0.00  0.00    -0.503 OA
ATOM     32  H   LIG A   1      -8.170   3.665 128.267  0.00  0.00    +0.292 HD
ENDBRANCH  11  31
TORSDOF 2
ENDMDL
MODEL 9
REMARK VINA RESULT:      -8.6      3.254      6.184
REMARK  Name = NuBBE_954
REMARK  7 active torsions:
REMARK  status: ('A' for Active; 'I' for Inactive)
REMARK    1  A    between atoms: C_1  and  C_2
REMARK    2  A    between atoms: C_8  and  C_10
REMARK    3  A    between atoms: C_15  and  C_16
REMARK    4  A    between atoms: C_18  and  O_19
REMARK    5  A    between atoms: C_21  and  C_26
REMARK    6  A    between atoms: C_30  and  C_31
REMARK    7  A    between atoms: C_30  and  C_32
REMARK                            x       y       z     vdW  Elec       q    Type
REMARK                         _______ _______ _______ _____ _____    ______ ____
ROOT
ATOM      1  C   LIG A   1      -3.510   2.967 128.465  0.00  0.00    +0.014 C 
ATOM      2  C   LIG A   1      -4.815   2.461 129.114  0.00  0.00    +0.007 C 
ATOM      3  C   LIG A   1      -6.002   2.627 128.142  0.00  0.00    +0.115 C 
ATOM      4  C   LIG A   1      -6.776   3.853 128.588  0.00  0.00    +0.153 C 
ATOM      5  O   LIG A   1      -5.975   3.893 127.424  0.00  0.00    -0.363 OA
ATOM      6  C   LIG A   1      -6.123   4.479 129.777  0.00  0.00    +0.043 C 
ATOM      7  C   LIG A   1      -5.267   3.337 130.354  0.00  0.00    +0.033 C 
ATOM      8  C   LIG A   1      -6.471   1.477 127.211  0.00  0.00    +0.070 C 
ATOM      9  C   LIG A   1      -5.735   1.594 125.853  0.00  0.00    +0.023 C 
ATOM     10  C   LIG A   1      -7.974   1.501 126.907  0.00  0.00    +0.206 C 
ATOM     11  C   LIG A   1      -8.588   0.295 126.265  0.00  0.00    +0.161 C 
ATOM     12  C   LIG A   1      -7.974  -0.905 126.236  0.00  0.00    -0.002 C 
ATOM     13  C   LIG A   1      -6.694  -1.171 127.063  0.00  0.00    +0.016 C 
ATOM     14  C   LIG A   1      -6.239   0.099 127.899  0.00  0.00    +0.019 C 
ATOM     15  C   LIG A   1      -4.806  -0.003 128.467  0.00  0.00    +0.006 C 
ATOM     16  C   LIG A   1      -4.628   1.009 129.587  0.00  0.00    +0.010 C 
ATOM     17  C   LIG A   1      -6.996  -2.284 128.113  0.00  0.00    +0.020 C 
ATOM     18  C   LIG A   1      -5.630  -1.713 126.128  0.00  0.00    -0.012 C 
ATOM     19  C   LIG A   1      -5.908  -2.571 125.137  0.00  0.00    +0.044 C 
ATOM     20  C   LIG A   1      -7.307  -3.009 124.921  0.00  0.00    +0.166 C 
ATOM     21  C   LIG A   1      -8.466  -2.058 125.312  0.00  0.00    +0.053 C 
ATOM     22  C   LIG A   1      -9.584  -2.868 125.990  0.00  0.00    +0.024 C 
ATOM     23  C   LIG A   1      -8.987  -1.563 123.937  0.00  0.00    +0.024 C 
ATOM     24  O   LIG A   1      -7.488  -4.099 124.379  0.00  0.00    -0.292 OA
ATOM     25  O   LIG A   1      -8.726   2.467 127.042  0.00  0.00    -0.288 OA
ENDROOT
BRANCH   7  26
ATOM     26  C   LIG A   1      -4.183   3.767 131.292  0.00  0.00    -0.006 A 
ATOM     27  C   LIG A   1      -3.650   5.038 131.395  0.00  0.00    +0.198 A 
ATOM     28  O   LIG A   1      -2.684   5.089 132.345  0.00  0.00    -0.471 OA
ATOM     29  C   LIG A   1      -2.580   3.842 132.866  0.00  0.00    +0.195 A 
ATOM     30  C   LIG A   1      -3.474   2.993 132.257  0.00  0.00    +0.045 A 
ENDBRANCH   7  26
BRANCH  11  31
ATOM     31  O   LIG A   1      -9.821   0.511 125.680  0.00  0.00    -0.503 OA
ATOM     32  H   LIG A   1      -9.757   0.101 124.788  0.00  0.00    +0.292 HD
ENDBRANCH  11  31
TORSDOF 2
ENDMDL
