MODEL 1
REMARK VINA RESULT:      -7.0      0.000      0.000
REMARK  Name = NuBBE_2393
REMARK  12 active torsions:
REMARK  status: ('A' for Active; 'I' for Inactive)
REMARK    1  A    between atoms: C_1  and  C_2
REMARK    2  A    between atoms: C_7  and  C_19
REMARK    3  A    between atoms: C_7  and  O_20
REMARK    4  A    between atoms: C_8  and  C_10
REMARK    5  A    between atoms: C_10  and  C_11
REMARK    6  A    between atoms: C_11  and  C_12
REMARK    7  A    between atoms: C_12  and  C_14
REMARK    8  A    between atoms: C_12  and  C_18
REMARK    9  A    between atoms: C_14  and  C_15
REMARK   10  A    between atoms: C_15  and  O_17
REMARK   11  A    between atoms: C_21  and  C_22
REMARK   12  A    between atoms: C_21  and  C_23
REMARK                            x       y       z     vdW  Elec       q    Type
REMARK                         _______ _______ _______ _____ _____    ______ ____
ROOT
ATOM      1  C   LIG A   1      -7.590   0.612 126.555  0.00  0.00    +0.012 C 
ATOM      2  C   LIG A   1      -6.343   0.534 125.648  0.00  0.00    -0.023 C 
ATOM      3  C   LIG A   1      -6.668   0.009 124.187  0.00  0.00    +0.001 C 
ATOM      4  C   LIG A   1      -7.594   0.975 123.440  0.00  0.00    +0.007 C 
ATOM      5  C   LIG A   1      -6.885   2.308 123.254  0.00  0.00    +0.035 C 
ATOM      6  C   LIG A   1      -6.471   2.971 124.579  0.00  0.00    +0.067 C 
ATOM      7  C   LIG A   1      -5.667   1.995 125.553  0.00  0.00    +0.027 C 
ATOM      8  C   LIG A   1      -5.667   4.234 124.207  0.00  0.00    +0.041 C 
ATOM      9  C   LIG A   1      -7.074  -1.509 124.035  0.00  0.00    -0.032 C 
ATOM     10  C   LIG A   1      -8.501  -1.844 124.513  0.00  0.00    +0.011 C 
ATOM     11  C   LIG A   1      -6.991  -1.928 122.541  0.00  0.00    +0.011 C 
ATOM     12  C   LIG A   1      -6.054  -2.401 124.781  0.00  0.00    +0.007 C 
ATOM     13  C   LIG A   1      -5.779  -1.943 126.198  0.00  0.00    +0.001 C 
ATOM     14  C   LIG A   1      -5.326  -0.489 126.230  0.00  0.00    +0.007 C 
ENDROOT
BRANCH   6  15
ATOM     15  O   LIG A   1      -7.686   3.405 125.201  0.00  0.00    -0.389 OA
ATOM     16  H   LIG A   1      -7.521   4.235 125.676  0.00  0.00    +0.210 HD
ENDBRANCH   6  15
BRANCH   7  17
ATOM     17  C   LIG A   1      -5.373   2.739 126.925  0.00  0.00    +0.007 C 
BRANCH  17  18
ATOM     18  C   LIG A   1      -3.965   2.678 127.565  0.00  0.00    +0.004 C 
BRANCH  18  19
ATOM     19  C   LIG A   1      -2.937   3.728 127.045  0.00  0.00    -0.003 C 
ATOM     20  C   LIG A   1      -1.675   3.018 126.510  0.00  0.00    +0.008 C 
BRANCH  19  21
ATOM     21  C   LIG A   1      -2.542   4.716 128.158  0.00  0.00    +0.123 C 
BRANCH  21  22
ATOM     22  C   LIG A   1      -3.036   6.128 127.918  0.00  0.00    +0.305 C 
ATOM     23  O   LIG A   1      -2.362   7.124 128.087  0.00  0.00    -0.251 OA
BRANCH  22  24
ATOM     24  O   LIG A   1      -4.312   6.181 127.474  0.00  0.00    -0.481 OA
ATOM     25  H   LIG A   1      -4.980   5.932 128.138  0.00  0.00    +0.295 HD
ENDBRANCH  22  24
ENDBRANCH  21  22
ENDBRANCH  19  21
ENDBRANCH  18  19
ENDBRANCH  17  18
ENDBRANCH   7  17
TORSDOF 7
ENDMDL
MODEL 2
REMARK VINA RESULT:      -7.0      4.750      7.384
REMARK  Name = NuBBE_2393
REMARK  12 active torsions:
REMARK  status: ('A' for Active; 'I' for Inactive)
REMARK    1  A    between atoms: C_1  and  C_2
REMARK    2  A    between atoms: C_7  and  C_19
REMARK    3  A    between atoms: C_7  and  O_20
REMARK    4  A    between atoms: C_8  and  C_10
REMARK    5  A    between atoms: C_10  and  C_11
REMARK    6  A    between atoms: C_11  and  C_12
REMARK    7  A    between atoms: C_12  and  C_14
REMARK    8  A    between atoms: C_12  and  C_18
REMARK    9  A    between atoms: C_14  and  C_15
REMARK   10  A    between atoms: C_15  and  O_17
REMARK   11  A    between atoms: C_21  and  C_22
REMARK   12  A    between atoms: C_21  and  C_23
REMARK                            x       y       z     vdW  Elec       q    Type
REMARK                         _______ _______ _______ _____ _____    ______ ____
ROOT
ATOM      1  C   LIG A   1      -5.585  -0.915 129.236  0.00  0.00    +0.012 C 
ATOM      2  C   LIG A   1      -5.547  -2.360 128.692  0.00  0.00    -0.023 C 
ATOM      3  C   LIG A   1      -6.116  -3.427 129.717  0.00  0.00    +0.001 C 
ATOM      4  C   LIG A   1      -7.605  -3.191 129.999  0.00  0.00    +0.007 C 
ATOM      5  C   LIG A   1      -8.396  -3.385 128.714  0.00  0.00    +0.035 C 
ATOM      6  C   LIG A   1      -7.968  -2.437 127.581  0.00  0.00    +0.067 C 
ATOM      7  C   LIG A   1      -6.393  -2.431 127.321  0.00  0.00    +0.027 C 
ATOM      8  C   LIG A   1      -8.775  -2.848 126.333  0.00  0.00    +0.041 C 
ATOM      9  C   LIG A   1      -5.262  -3.718 131.013  0.00  0.00    -0.032 C 
ATOM     10  C   LIG A   1      -5.314  -2.608 132.080  0.00  0.00    +0.011 C 
ATOM     11  C   LIG A   1      -5.766  -5.021 131.693  0.00  0.00    +0.011 C 
ATOM     12  C   LIG A   1      -3.791  -3.991 130.618  0.00  0.00    +0.007 C 
ATOM     13  C   LIG A   1      -3.217  -2.946 129.684  0.00  0.00    +0.001 C 
ATOM     14  C   LIG A   1      -4.074  -2.791 128.434  0.00  0.00    +0.007 C 
ENDROOT
BRANCH   6  15
ATOM     15  O   LIG A   1      -8.413  -1.131 127.969  0.00  0.00    -0.389 OA
ATOM     16  H   LIG A   1      -8.882  -0.723 127.224  0.00  0.00    +0.210 HD
ENDBRANCH   6  15
BRANCH   7  17
ATOM     17  C   LIG A   1      -6.044  -1.354 126.207  0.00  0.00    +0.007 C 
BRANCH  17  18
ATOM     18  C   LIG A   1      -5.134  -1.728 125.012  0.00  0.00    +0.004 C 
BRANCH  18  19
ATOM     19  C   LIG A   1      -5.712  -2.786 124.024  0.00  0.00    -0.003 C 
ATOM     20  C   LIG A   1      -4.612  -3.786 123.608  0.00  0.00    +0.008 C 
BRANCH  19  21
ATOM     21  C   LIG A   1      -6.297  -2.112 122.769  0.00  0.00    +0.123 C 
BRANCH  21  22
ATOM     22  C   LIG A   1      -7.766  -1.762 122.897  0.00  0.00    +0.305 C 
ATOM     23  O   LIG A   1      -8.672  -2.558 122.747  0.00  0.00    -0.251 OA
BRANCH  22  24
ATOM     24  O   LIG A   1      -7.982  -0.467 123.218  0.00  0.00    -0.481 OA
ATOM     25  H   LIG A   1      -8.411  -0.334 124.083  0.00  0.00    +0.295 HD
ENDBRANCH  22  24
ENDBRANCH  21  22
ENDBRANCH  19  21
ENDBRANCH  18  19
ENDBRANCH  17  18
ENDBRANCH   7  17
TORSDOF 7
ENDMDL
MODEL 3
REMARK VINA RESULT:      -6.8      3.286      6.755
REMARK  Name = NuBBE_2393
REMARK  12 active torsions:
REMARK  status: ('A' for Active; 'I' for Inactive)
REMARK    1  A    between atoms: C_1  and  C_2
REMARK    2  A    between atoms: C_7  and  C_19
REMARK    3  A    between atoms: C_7  and  O_20
REMARK    4  A    between atoms: C_8  and  C_10
REMARK    5  A    between atoms: C_10  and  C_11
REMARK    6  A    between atoms: C_11  and  C_12
REMARK    7  A    between atoms: C_12  and  C_14
REMARK    8  A    between atoms: C_12  and  C_18
REMARK    9  A    between atoms: C_14  and  C_15
REMARK   10  A    between atoms: C_15  and  O_17
REMARK   11  A    between atoms: C_21  and  C_22
REMARK   12  A    between atoms: C_21  and  C_23
REMARK                            x       y       z     vdW  Elec       q    Type
REMARK                         _______ _______ _______ _____ _____    ______ ____
ROOT
ATOM      1  C   LIG A   1      -8.859   1.497 126.697  0.00  0.00    +0.012 C 
ATOM      2  C   LIG A   1      -8.063   0.868 125.532  0.00  0.00    -0.023 C 
ATOM      3  C   LIG A   1      -6.885   1.794 125.013  0.00  0.00    +0.001 C 
ATOM      4  C   LIG A   1      -5.822   2.006 126.098  0.00  0.00    +0.007 C 
ATOM      5  C   LIG A   1      -5.181   0.670 126.441  0.00  0.00    +0.035 C 
ATOM      6  C   LIG A   1      -6.184  -0.377 126.953  0.00  0.00    +0.067 C 
ATOM      7  C   LIG A   1      -7.459  -0.549 126.009  0.00  0.00    +0.027 C 
ATOM      8  C   LIG A   1      -5.397  -1.691 127.135  0.00  0.00    +0.041 C 
ATOM      9  C   LIG A   1      -7.283   3.114 124.244  0.00  0.00    -0.032 C 
ATOM     10  C   LIG A   1      -7.823   4.243 125.142  0.00  0.00    +0.011 C 
ATOM     11  C   LIG A   1      -6.042   3.684 123.502  0.00  0.00    +0.011 C 
ATOM     12  C   LIG A   1      -8.318   2.786 123.143  0.00  0.00    +0.007 C 
ATOM     13  C   LIG A   1      -9.479   1.950 123.641  0.00  0.00    +0.001 C 
ATOM     14  C   LIG A   1      -8.993   0.667 124.302  0.00  0.00    +0.007 C 
ENDROOT
BRANCH   6  15
ATOM     15  O   LIG A   1      -6.586   0.064 128.256  0.00  0.00    -0.389 OA
ATOM     16  H   LIG A   1      -6.338  -0.609 128.909  0.00  0.00    +0.210 HD
ENDBRANCH   6  15
BRANCH   7  17
ATOM     17  C   LIG A   1      -8.476  -1.574 126.672  0.00  0.00    +0.007 C 
BRANCH  17  18
ATOM     18  C   LIG A   1      -9.021  -2.775 125.860  0.00  0.00    +0.004 C 
BRANCH  18  19
ATOM     19  C   LIG A   1      -8.456  -2.929 124.415  0.00  0.00    -0.003 C 
ATOM     20  C   LIG A   1      -9.566  -3.414 123.458  0.00  0.00    +0.008 C 
BRANCH  19  21
ATOM     21  C   LIG A   1      -7.278  -3.920 124.383  0.00  0.00    +0.123 C 
BRANCH  21  22
ATOM     22  C   LIG A   1      -5.985  -3.309 123.883  0.00  0.00    +0.305 C 
ATOM     23  O   LIG A   1      -4.891  -3.816 124.026  0.00  0.00    -0.251 OA
BRANCH  22  24
ATOM     24  O   LIG A   1      -6.163  -2.136 123.235  0.00  0.00    -0.481 OA
ATOM     25  H   LIG A   1      -7.024  -1.711 123.400  0.00  0.00    +0.295 HD
ENDBRANCH  22  24
ENDBRANCH  21  22
ENDBRANCH  19  21
ENDBRANCH  18  19
ENDBRANCH  17  18
ENDBRANCH   7  17
TORSDOF 7
ENDMDL
MODEL 4
REMARK VINA RESULT:      -6.8      2.979      5.651
REMARK  Name = NuBBE_2393
REMARK  12 active torsions:
REMARK  status: ('A' for Active; 'I' for Inactive)
REMARK    1  A    between atoms: C_1  and  C_2
REMARK    2  A    between atoms: C_7  and  C_19
REMARK    3  A    between atoms: C_7  and  O_20
REMARK    4  A    between atoms: C_8  and  C_10
REMARK    5  A    between atoms: C_10  and  C_11
REMARK    6  A    between atoms: C_11  and  C_12
REMARK    7  A    between atoms: C_12  and  C_14
REMARK    8  A    between atoms: C_12  and  C_18
REMARK    9  A    between atoms: C_14  and  C_15
REMARK   10  A    between atoms: C_15  and  O_17
REMARK   11  A    between atoms: C_21  and  C_22
REMARK   12  A    between atoms: C_21  and  C_23
REMARK                            x       y       z     vdW  Elec       q    Type
REMARK                         _______ _______ _______ _____ _____    ______ ____
ROOT
ATOM      1  C   LIG A   1      -7.998  -0.344 127.738  0.00  0.00    +0.012 C 
ATOM      2  C   LIG A   1      -7.052  -1.483 127.300  0.00  0.00    -0.023 C 
ATOM      3  C   LIG A   1      -7.164  -2.772 128.217  0.00  0.00    +0.001 C 
ATOM      4  C   LIG A   1      -8.556  -3.407 128.120  0.00  0.00    +0.007 C 
ATOM      5  C   LIG A   1      -8.791  -3.888 126.696  0.00  0.00    +0.035 C 
ATOM      6  C   LIG A   1      -8.703  -2.765 125.648  0.00  0.00    +0.067 C 
ATOM      7  C   LIG A   1      -7.379  -1.883 125.772  0.00  0.00    +0.027 C 
ATOM      8  C   LIG A   1      -8.842  -3.439 124.268  0.00  0.00    +0.041 C 
ATOM      9  C   LIG A   1      -6.614  -2.663 129.693  0.00  0.00    -0.032 C 
ATOM     10  C   LIG A   1      -7.509  -1.857 130.654  0.00  0.00    +0.011 C 
ATOM     11  C   LIG A   1      -6.465  -4.084 130.304  0.00  0.00    +0.011 C 
ATOM     12  C   LIG A   1      -5.191  -2.058 129.678  0.00  0.00    +0.007 C 
ATOM     13  C   LIG A   1      -5.085  -0.793 128.852  0.00  0.00    +0.001 C 
ATOM     14  C   LIG A   1      -5.572  -1.022 127.427  0.00  0.00    +0.007 C 
ENDROOT
BRANCH   6  15
ATOM     15  O   LIG A   1      -9.865  -1.950 125.845  0.00  0.00    -0.389 OA
ATOM     16  H   LIG A   1      -9.639  -1.025 125.655  0.00  0.00    +0.210 HD
ENDBRANCH   6  15
BRANCH   7  17
ATOM     17  C   LIG A   1      -7.431  -0.697 124.716  0.00  0.00    +0.007 C 
BRANCH  17  18
ATOM     18  C   LIG A   1      -6.214   0.241 124.530  0.00  0.00    +0.004 C 
BRANCH  18  19
ATOM     19  C   LIG A   1      -6.493   1.762 124.726  0.00  0.00    -0.003 C 
ATOM     20  C   LIG A   1      -5.696   2.300 125.933  0.00  0.00    +0.008 C 
BRANCH  19  21
ATOM     21  C   LIG A   1      -7.995   2.026 124.940  0.00  0.00    +0.123 C 
BRANCH  21  22
ATOM     22  C   LIG A   1      -8.421   3.434 124.578  0.00  0.00    +0.305 C 
ATOM     23  O   LIG A   1      -8.789   4.265 125.384  0.00  0.00    -0.251 OA
BRANCH  22  24
ATOM     24  O   LIG A   1      -8.334   3.696 123.254  0.00  0.00    -0.481 OA
ATOM     25  H   LIG A   1      -7.899   2.997 122.733  0.00  0.00    +0.295 HD
ENDBRANCH  22  24
ENDBRANCH  21  22
ENDBRANCH  19  21
ENDBRANCH  18  19
ENDBRANCH  17  18
ENDBRANCH   7  17
TORSDOF 7
ENDMDL
MODEL 5
REMARK VINA RESULT:      -6.8      1.006      1.274
REMARK  Name = NuBBE_2393
REMARK  12 active torsions:
REMARK  status: ('A' for Active; 'I' for Inactive)
REMARK    1  A    between atoms: C_1  and  C_2
REMARK    2  A    between atoms: C_7  and  C_19
REMARK    3  A    between atoms: C_7  and  O_20
REMARK    4  A    between atoms: C_8  and  C_10
REMARK    5  A    between atoms: C_10  and  C_11
REMARK    6  A    between atoms: C_11  and  C_12
REMARK    7  A    between atoms: C_12  and  C_14
REMARK    8  A    between atoms: C_12  and  C_18
REMARK    9  A    between atoms: C_14  and  C_15
REMARK   10  A    between atoms: C_15  and  O_17
REMARK   11  A    between atoms: C_21  and  C_22
REMARK   12  A    between atoms: C_21  and  C_23
REMARK                            x       y       z     vdW  Elec       q    Type
REMARK                         _______ _______ _______ _____ _____    ______ ____
ROOT
ATOM      1  C   LIG A   1      -7.605   0.226 127.009  0.00  0.00    +0.012 C 
ATOM      2  C   LIG A   1      -6.858   0.088 125.664  0.00  0.00    -0.023 C 
ATOM      3  C   LIG A   1      -7.736  -0.589 124.531  0.00  0.00    +0.001 C 
ATOM      4  C   LIG A   1      -8.952   0.275 124.177  0.00  0.00    +0.007 C 
ATOM      5  C   LIG A   1      -8.476   1.599 123.599  0.00  0.00    +0.035 C 
ATOM      6  C   LIG A   1      -7.583   2.402 124.560  0.00  0.00    +0.067 C 
ATOM      7  C   LIG A   1      -6.382   1.548 125.172  0.00  0.00    +0.027 C 
ATOM      8  C   LIG A   1      -7.097   3.640 123.780  0.00  0.00    +0.041 C 
ATOM      9  C   LIG A   1      -8.070  -2.124 124.690  0.00  0.00    -0.032 C 
ATOM     10  C   LIG A   1      -9.135  -2.443 125.757  0.00  0.00    +0.011 C 
ATOM     11  C   LIG A   1      -8.601  -2.688 123.343  0.00  0.00    +0.011 C 
ATOM     12  C   LIG A   1      -6.775  -2.912 124.996  0.00  0.00    +0.007 C 
ATOM     13  C   LIG A   1      -5.955  -2.307 126.117  0.00  0.00    +0.001 C 
ATOM     14  C   LIG A   1      -5.626  -0.847 125.835  0.00  0.00    +0.007 C 
ENDROOT
BRANCH   6  15
ATOM     15  O   LIG A   1      -8.446   2.867 125.606  0.00  0.00    -0.389 OA
ATOM     16  H   LIG A   1      -8.032   2.683 126.464  0.00  0.00    +0.210 HD
ENDBRANCH   6  15
BRANCH   7  17
ATOM     17  C   LIG A   1      -5.583   2.433 126.222  0.00  0.00    +0.007 C 
BRANCH  17  18
ATOM     18  C   LIG A   1      -4.078   2.178 126.478  0.00  0.00    +0.004 C 
BRANCH  18  19
ATOM     19  C   LIG A   1      -3.180   3.450 126.571  0.00  0.00    -0.003 C 
ATOM     20  C   LIG A   1      -1.693   3.066 126.422  0.00  0.00    +0.008 C 
BRANCH  19  21
ATOM     21  C   LIG A   1      -3.393   4.181 127.910  0.00  0.00    +0.123 C 
BRANCH  21  22
ATOM     22  C   LIG A   1      -3.315   5.690 127.795  0.00  0.00    +0.305 C 
ATOM     23  O   LIG A   1      -4.261   6.403 127.524  0.00  0.00    -0.251 OA
BRANCH  22  24
ATOM     24  O   LIG A   1      -2.082   6.184 128.046  0.00  0.00    -0.481 OA
ATOM     25  H   LIG A   1      -1.475   5.552 128.473  0.00  0.00    +0.295 HD
ENDBRANCH  22  24
ENDBRANCH  21  22
ENDBRANCH  19  21
ENDBRANCH  18  19
ENDBRANCH  17  18
ENDBRANCH   7  17
TORSDOF 7
ENDMDL
MODEL 6
REMARK VINA RESULT:      -6.7      2.062      2.623
REMARK  Name = NuBBE_2393
REMARK  12 active torsions:
REMARK  status: ('A' for Active; 'I' for Inactive)
REMARK    1  A    between atoms: C_1  and  C_2
REMARK    2  A    between atoms: C_7  and  C_19
REMARK    3  A    between atoms: C_7  and  O_20
REMARK    4  A    between atoms: C_8  and  C_10
REMARK    5  A    between atoms: C_10  and  C_11
REMARK    6  A    between atoms: C_11  and  C_12
REMARK    7  A    between atoms: C_12  and  C_14
REMARK    8  A    between atoms: C_12  and  C_18
REMARK    9  A    between atoms: C_14  and  C_15
REMARK   10  A    between atoms: C_15  and  O_17
REMARK   11  A    between atoms: C_21  and  C_22
REMARK   12  A    between atoms: C_21  and  C_23
REMARK                            x       y       z     vdW  Elec       q    Type
REMARK                         _______ _______ _______ _____ _____    ______ ____
ROOT
ATOM      1  C   LIG A   1      -7.164  -0.843 127.369  0.00  0.00    +0.012 C 
ATOM      2  C   LIG A   1      -6.996  -0.505 125.872  0.00  0.00    -0.023 C 
ATOM      3  C   LIG A   1      -8.125  -1.143 124.960  0.00  0.00    +0.001 C 
ATOM      4  C   LIG A   1      -9.507  -0.573 125.302  0.00  0.00    +0.007 C 
ATOM      5  C   LIG A   1      -9.523   0.918 125.002  0.00  0.00    +0.035 C 
ATOM      6  C   LIG A   1      -8.469   1.713 125.791  0.00  0.00    +0.067 C 
ATOM      7  C   LIG A   1      -7.001   1.097 125.688  0.00  0.00    +0.027 C 
ATOM      8  C   LIG A   1      -8.541   3.167 125.282  0.00  0.00    +0.041 C 
ATOM      9  C   LIG A   1      -8.112  -2.711 124.775  0.00  0.00    -0.032 C 
ATOM     10  C   LIG A   1      -8.600  -3.507 126.001  0.00  0.00    +0.011 C 
ATOM     11  C   LIG A   1      -9.029  -3.109 123.586  0.00  0.00    +0.011 C 
ATOM     12  C   LIG A   1      -6.690  -3.179 124.385  0.00  0.00    +0.007 C 
ATOM     13  C   LIG A   1      -5.606  -2.623 125.286  0.00  0.00    +0.001 C 
ATOM     14  C   LIG A   1      -5.660  -1.101 125.340  0.00  0.00    +0.007 C 
ENDROOT
BRANCH   6  15
ATOM     15  O   LIG A   1      -8.913   1.715 127.154  0.00  0.00    -0.389 OA
ATOM     16  H   LIG A   1      -8.143   1.803 127.738  0.00  0.00    +0.210 HD
ENDBRANCH   6  15
BRANCH   7  17
ATOM     17  C   LIG A   1      -6.010   1.927 126.611  0.00  0.00    +0.007 C 
BRANCH  17  18
ATOM     18  C   LIG A   1      -4.503   2.014 126.267  0.00  0.00    +0.004 C 
BRANCH  18  19
ATOM     19  C   LIG A   1      -3.931   3.453 126.085  0.00  0.00    -0.003 C 
ATOM     20  C   LIG A   1      -2.847   3.734 127.148  0.00  0.00    +0.008 C 
BRANCH  19  21
ATOM     21  C   LIG A   1      -5.045   4.510 126.191  0.00  0.00    +0.123 C 
BRANCH  21  22
ATOM     22  C   LIG A   1      -5.609   4.934 124.850  0.00  0.00    +0.305 C 
ATOM     23  O   LIG A   1      -5.338   4.395 123.795  0.00  0.00    -0.251 OA
BRANCH  22  24
ATOM     24  O   LIG A   1      -6.471   5.972 124.935  0.00  0.00    -0.481 OA
ATOM     25  H   LIG A   1      -6.579   6.473 124.106  0.00  0.00    +0.295 HD
ENDBRANCH  22  24
ENDBRANCH  21  22
ENDBRANCH  19  21
ENDBRANCH  18  19
ENDBRANCH  17  18
ENDBRANCH   7  17
TORSDOF 7
ENDMDL
MODEL 7
REMARK VINA RESULT:      -6.5      4.165      6.572
REMARK  Name = NuBBE_2393
REMARK  12 active torsions:
REMARK  status: ('A' for Active; 'I' for Inactive)
REMARK    1  A    between atoms: C_1  and  C_2
REMARK    2  A    between atoms: C_7  and  C_19
REMARK    3  A    between atoms: C_7  and  O_20
REMARK    4  A    between atoms: C_8  and  C_10
REMARK    5  A    between atoms: C_10  and  C_11
REMARK    6  A    between atoms: C_11  and  C_12
REMARK    7  A    between atoms: C_12  and  C_14
REMARK    8  A    between atoms: C_12  and  C_18
REMARK    9  A    between atoms: C_14  and  C_15
REMARK   10  A    between atoms: C_15  and  O_17
REMARK   11  A    between atoms: C_21  and  C_22
REMARK   12  A    between atoms: C_21  and  C_23
REMARK                            x       y       z     vdW  Elec       q    Type
REMARK                         _______ _______ _______ _____ _____    ______ ____
ROOT
ATOM      1  C   LIG A   1      -6.035  -0.672 125.974  0.00  0.00    +0.012 C 
ATOM      2  C   LIG A   1      -7.557  -0.422 126.048  0.00  0.00    -0.023 C 
ATOM      3  C   LIG A   1      -8.064   0.644 124.989  0.00  0.00    +0.001 C 
ATOM      4  C   LIG A   1      -7.852   0.149 123.553  0.00  0.00    +0.007 C 
ATOM      5  C   LIG A   1      -8.692  -1.098 123.323  0.00  0.00    +0.035 C 
ATOM      6  C   LIG A   1      -8.351  -2.252 124.281  0.00  0.00    +0.067 C 
ATOM      7  C   LIG A   1      -8.333  -1.817 125.816  0.00  0.00    +0.027 C 
ATOM      8  C   LIG A   1      -9.365  -3.378 123.994  0.00  0.00    +0.041 C 
ATOM      9  C   LIG A   1      -7.642   2.149 125.213  0.00  0.00    -0.032 C 
ATOM     10  C   LIG A   1      -6.170   2.460 124.877  0.00  0.00    +0.011 C 
ATOM     11  C   LIG A   1      -8.512   3.077 124.322  0.00  0.00    +0.011 C 
ATOM     12  C   LIG A   1      -7.940   2.564 126.673  0.00  0.00    +0.007 C 
ATOM     13  C   LIG A   1      -7.409   1.582 127.696  0.00  0.00    +0.001 C 
ATOM     14  C   LIG A   1      -7.931   0.175 127.435  0.00  0.00    +0.007 C 
ENDROOT
BRANCH   6  15
ATOM     15  O   LIG A   1      -7.059  -2.728 123.883  0.00  0.00    -0.389 OA
ATOM     16  H   LIG A   1      -6.863  -3.548 124.363  0.00  0.00    +0.210 HD
ENDBRANCH   6  15
BRANCH   7  17
ATOM     17  C   LIG A   1      -7.877  -3.047 126.712  0.00  0.00    +0.007 C 
BRANCH  17  18
ATOM     18  C   LIG A   1      -8.545  -3.311 128.083  0.00  0.00    +0.004 C 
BRANCH  18  19
ATOM     19  C   LIG A   1      -7.608  -3.212 129.325  0.00  0.00    -0.003 C 
ATOM     20  C   LIG A   1      -8.061  -2.059 130.245  0.00  0.00    +0.008 C 
BRANCH  19  21
ATOM     21  C   LIG A   1      -6.145  -2.987 128.898  0.00  0.00    +0.123 C 
BRANCH  21  22
ATOM     22  C   LIG A   1      -5.140  -3.701 129.779  0.00  0.00    +0.305 C 
ATOM     23  O   LIG A   1      -3.972  -3.384 129.877  0.00  0.00    -0.251 OA
BRANCH  22  24
ATOM     24  O   LIG A   1      -5.674  -4.731 130.474  0.00  0.00    -0.481 OA
ATOM     25  H   LIG A   1      -6.498  -4.513 130.946  0.00  0.00    +0.295 HD
ENDBRANCH  22  24
ENDBRANCH  21  22
ENDBRANCH  19  21
ENDBRANCH  18  19
ENDBRANCH  17  18
ENDBRANCH   7  17
TORSDOF 7
ENDMDL
MODEL 8
REMARK VINA RESULT:      -6.5      4.318      6.392
REMARK  Name = NuBBE_2393
REMARK  12 active torsions:
REMARK  status: ('A' for Active; 'I' for Inactive)
REMARK    1  A    between atoms: C_1  and  C_2
REMARK    2  A    between atoms: C_7  and  C_19
REMARK    3  A    between atoms: C_7  and  O_20
REMARK    4  A    between atoms: C_8  and  C_10
REMARK    5  A    between atoms: C_10  and  C_11
REMARK    6  A    between atoms: C_11  and  C_12
REMARK    7  A    between atoms: C_12  and  C_14
REMARK    8  A    between atoms: C_12  and  C_18
REMARK    9  A    between atoms: C_14  and  C_15
REMARK   10  A    between atoms: C_15  and  O_17
REMARK   11  A    between atoms: C_21  and  C_22
REMARK   12  A    between atoms: C_21  and  C_23
REMARK                            x       y       z     vdW  Elec       q    Type
REMARK                         _______ _______ _______ _____ _____    ______ ____
ROOT
ATOM      1  C   LIG A   1      -9.034  -0.684 126.356  0.00  0.00    +0.012 C 
ATOM      2  C   LIG A   1      -7.944  -1.769 126.218  0.00  0.00    -0.023 C 
ATOM      3  C   LIG A   1      -6.990  -1.538 124.973  0.00  0.00    +0.001 C 
ATOM      4  C   LIG A   1      -6.186  -0.241 125.119  0.00  0.00    +0.007 C 
ATOM      5  C   LIG A   1      -5.271  -0.352 126.329  0.00  0.00    +0.035 C 
ATOM      6  C   LIG A   1      -6.025  -0.598 127.647  0.00  0.00    +0.067 C 
ATOM      7  C   LIG A   1      -7.063  -1.808 127.568  0.00  0.00    +0.027 C 
ATOM      8  C   LIG A   1      -4.954  -0.804 128.737  0.00  0.00    +0.041 C 
ATOM      9  C   LIG A   1      -7.608  -1.745 123.535  0.00  0.00    -0.032 C 
ATOM     10  C   LIG A   1      -8.549  -0.616 123.071  0.00  0.00    +0.011 C 
ATOM     11  C   LIG A   1      -6.470  -1.843 122.482  0.00  0.00    +0.011 C 
ATOM     12  C   LIG A   1      -8.354  -3.099 123.476  0.00  0.00    +0.007 C 
ATOM     13  C   LIG A   1      -9.313  -3.307 124.630  0.00  0.00    +0.001 C 
ATOM     14  C   LIG A   1      -8.605  -3.157 125.971  0.00  0.00    +0.007 C 
ENDROOT
BRANCH   6  15
ATOM     15  O   LIG A   1      -6.709   0.626 127.946  0.00  0.00    -0.389 OA
ATOM     16  H   LIG A   1      -7.395   0.776 127.277  0.00  0.00    +0.210 HD
ENDBRANCH   6  15
BRANCH   7  17
ATOM     17  C   LIG A   1      -7.857  -1.917 128.939  0.00  0.00    +0.007 C 
BRANCH  17  18
ATOM     18  C   LIG A   1      -7.977  -3.275 129.671  0.00  0.00    +0.004 C 
BRANCH  18  19
ATOM     19  C   LIG A   1      -6.985  -3.499 130.853  0.00  0.00    -0.003 C 
ATOM     20  C   LIG A   1      -6.759  -2.177 131.618  0.00  0.00    +0.008 C 
BRANCH  19  21
ATOM     21  C   LIG A   1      -5.634  -4.039 130.348  0.00  0.00    +0.123 C 
BRANCH  21  22
ATOM     22  C   LIG A   1      -4.625  -4.279 131.453  0.00  0.00    +0.305 C 
ATOM     23  O   LIG A   1      -4.816  -5.011 132.404  0.00  0.00    -0.251 OA
BRANCH  22  24
ATOM     24  O   LIG A   1      -3.465  -3.607 131.275  0.00  0.00    -0.481 OA
ATOM     25  H   LIG A   1      -3.520  -2.873 130.636  0.00  0.00    +0.295 HD
ENDBRANCH  22  24
ENDBRANCH  21  22
ENDBRANCH  19  21
ENDBRANCH  18  19
ENDBRANCH  17  18
ENDBRANCH   7  17
TORSDOF 7
ENDMDL
MODEL 9
REMARK VINA RESULT:      -6.5      2.292      3.796
REMARK  Name = NuBBE_2393
REMARK  12 active torsions:
REMARK  status: ('A' for Active; 'I' for Inactive)
REMARK    1  A    between atoms: C_1  and  C_2
REMARK    2  A    between atoms: C_7  and  C_19
REMARK    3  A    between atoms: C_7  and  O_20
REMARK    4  A    between atoms: C_8  and  C_10
REMARK    5  A    between atoms: C_10  and  C_11
REMARK    6  A    between atoms: C_11  and  C_12
REMARK    7  A    between atoms: C_12  and  C_14
REMARK    8  A    between atoms: C_12  and  C_18
REMARK    9  A    between atoms: C_14  and  C_15
REMARK   10  A    between atoms: C_15  and  O_17
REMARK   11  A    between atoms: C_21  and  C_22
REMARK   12  A    between atoms: C_21  and  C_23
REMARK                            x       y       z     vdW  Elec       q    Type
REMARK                         _______ _______ _______ _____ _____    ______ ____
ROOT
ATOM      1  C   LIG A   1      -5.189  -1.043 125.799  0.00  0.00    +0.012 C 
ATOM      2  C   LIG A   1      -6.632  -0.498 125.878  0.00  0.00    -0.023 C 
ATOM      3  C   LIG A   1      -7.733  -1.630 125.733  0.00  0.00    +0.001 C 
ATOM      4  C   LIG A   1      -7.663  -2.629 126.894  0.00  0.00    +0.007 C 
ATOM      5  C   LIG A   1      -7.978  -1.908 128.196  0.00  0.00    +0.035 C 
ATOM      6  C   LIG A   1      -7.014  -0.750 128.503  0.00  0.00    +0.067 C 
ATOM      7  C   LIG A   1      -6.832   0.265 127.285  0.00  0.00    +0.027 C 
ATOM      8  C   LIG A   1      -7.544  -0.061 129.777  0.00  0.00    +0.041 C 
ATOM      9  C   LIG A   1      -7.893  -2.310 124.316  0.00  0.00    -0.032 C 
ATOM     10  C   LIG A   1      -6.772  -3.301 123.948  0.00  0.00    +0.011 C 
ATOM     11  C   LIG A   1      -9.228  -3.102 124.262  0.00  0.00    +0.011 C 
ATOM     12  C   LIG A   1      -8.003  -1.221 123.223  0.00  0.00    +0.007 C 
ATOM     13  C   LIG A   1      -6.921  -0.165 123.317  0.00  0.00    +0.001 C 
ATOM     14  C   LIG A   1      -6.896   0.479 124.697  0.00  0.00    +0.007 C 
ENDROOT
BRANCH   6  15
ATOM     15  O   LIG A   1      -5.759  -1.358 128.836  0.00  0.00    -0.389 OA
ATOM     16  H   LIG A   1      -5.925  -2.208 129.272  0.00  0.00    +0.210 HD
ENDBRANCH   6  15
BRANCH   7  17
ATOM     17  C   LIG A   1      -5.748   1.362 127.665  0.00  0.00    +0.007 C 
BRANCH  17  18
ATOM     18  C   LIG A   1      -5.926   2.831 127.211  0.00  0.00    +0.004 C 
BRANCH  18  19
ATOM     19  C   LIG A   1      -4.687   3.484 126.526  0.00  0.00    -0.003 C 
ATOM     20  C   LIG A   1      -5.042   3.926 125.090  0.00  0.00    +0.008 C 
BRANCH  19  21
ATOM     21  C   LIG A   1      -3.498   2.507 126.485  0.00  0.00    +0.123 C 
BRANCH  21  22
ATOM     22  C   LIG A   1      -2.165   3.161 126.787  0.00  0.00    +0.305 C 
ATOM     23  O   LIG A   1      -1.088   2.626 126.617  0.00  0.00    -0.251 OA
BRANCH  22  24
ATOM     24  O   LIG A   1      -2.282   4.425 127.253  0.00  0.00    -0.481 OA
ATOM     25  H   LIG A   1      -2.909   4.981 126.754  0.00  0.00    +0.295 HD
ENDBRANCH  22  24
ENDBRANCH  21  22
ENDBRANCH  19  21
ENDBRANCH  18  19
ENDBRANCH  17  18
ENDBRANCH   7  17
TORSDOF 7
ENDMDL
