MODEL 1
REMARK VINA RESULT:      -7.6      0.000      0.000
REMARK  Name = NuBBE_1344
REMARK  8 active torsions:
REMARK  status: ('A' for Active; 'I' for Inactive)
REMARK    1  A    between atoms: C_1  and  O_2
REMARK    2  A    between atoms: O_2  and  C_3
REMARK    3  A    between atoms: N_9  and  C_10
REMARK    4  A    between atoms: C_10  and  O_11
REMARK    5  A    between atoms: O_11  and  C_12
REMARK    6  A    between atoms: C_12  and  C_13
REMARK    7  A    between atoms: C_19  and  C_20
REMARK    8  A    between atoms: C_19  and  C_21
REMARK                            x       y       z     vdW  Elec       q    Type
REMARK                         _______ _______ _______ _____ _____    ______ ____
ROOT
ATOM      1  C   LIG A   1      -7.426   3.483 121.956  0.00  0.00    +0.144 A 
ATOM      2  C   LIG A   1      -7.182   3.309 123.346  0.00  0.00    +0.100 A 
ATOM      3  C   LIG A   1      -5.944   3.750 123.863  0.00  0.00    +0.045 A 
ATOM      4  C   LIG A   1      -4.961   4.269 123.000  0.00  0.00    +0.014 A 
ATOM      5  C   LIG A   1      -5.194   4.385 121.637  0.00  0.00    +0.004 A 
ATOM      6  C   LIG A   1      -6.428   4.013 121.120  0.00  0.00    +0.048 A 
ATOM      7  N   LIG A   1      -8.113   2.719 124.270  0.00  0.00    -0.270 N 
ATOM      8  C   LIG A   1      -7.947   2.806 125.652  0.00  0.00    +0.265 A 
ATOM      9  C   LIG A   1      -6.623   3.270 126.159  0.00  0.00    +0.082 A 
ATOM     10  C   LIG A   1      -5.673   3.673 125.305  0.00  0.00    +0.143 A 
ATOM     11  O   LIG A   1      -4.403   4.053 125.687  0.00  0.00    -0.481 OA
ATOM     12  C   LIG A   1      -4.036   4.037 127.082  0.00  0.00    +0.123 C 
ATOM     13  C   LIG A   1      -3.638   5.474 127.428  0.00  0.00    +0.060 C 
ATOM     14  C   LIG A   1      -2.825   3.108 127.202  0.00  0.00    +0.060 C 
ATOM     15  C   LIG A   1      -5.126   3.575 128.020  0.00  0.00    +0.020 C 
ATOM     16  C   LIG A   1      -6.335   3.220 127.576  0.00  0.00    +0.016 C 
ATOM     17  O   LIG A   1      -8.806   2.450 126.462  0.00  0.00    -0.267 OA
ENDROOT
BRANCH   1  19
ATOM     18  C   LIG A   1      -8.992   3.899 120.212  0.00  0.00    +0.277 C 
ATOM     19  O   LIG A   1      -8.693   3.283 121.465  0.00  0.00    -0.493 OA
ENDBRANCH   1  19
BRANCH   7  20
ATOM     20  C   LIG A   1      -9.214   1.879 123.828  0.00  0.00    +0.362 C 
BRANCH  20  21
ATOM     21  O   LIG A   1      -8.721   0.552 123.566  0.00  0.00    -0.443 OA
BRANCH  21  22
ATOM     22  C   LIG A   1      -9.563  -0.270 122.901  0.00  0.00    +0.306 C 
ATOM     23  C   LIG A   1      -8.998  -1.651 122.858  0.00  0.00    +0.136 C 
ATOM     24  O   LIG A   1     -10.631   0.051 122.386  0.00  0.00    -0.251 OA
ENDBRANCH  21  22
ENDBRANCH  20  21
ENDBRANCH   7  20
TORSDOF 4
ENDMDL
MODEL 2
REMARK VINA RESULT:      -7.1      2.111      5.710
REMARK  Name = NuBBE_1344
REMARK  8 active torsions:
REMARK  status: ('A' for Active; 'I' for Inactive)
REMARK    1  A    between atoms: C_1  and  O_2
REMARK    2  A    between atoms: O_2  and  C_3
REMARK    3  A    between atoms: N_9  and  C_10
REMARK    4  A    between atoms: C_10  and  O_11
REMARK    5  A    between atoms: O_11  and  C_12
REMARK    6  A    between atoms: C_12  and  C_13
REMARK    7  A    between atoms: C_19  and  C_20
REMARK    8  A    between atoms: C_19  and  C_21
REMARK                            x       y       z     vdW  Elec       q    Type
REMARK                         _______ _______ _______ _____ _____    ______ ____
ROOT
ATOM      1  C   LIG A   1      -6.194   2.951 124.932  0.00  0.00    +0.144 A 
ATOM      2  C   LIG A   1      -6.952   1.852 124.445  0.00  0.00    +0.100 A 
ATOM      3  C   LIG A   1      -6.728   0.583 125.021  0.00  0.00    +0.045 A 
ATOM      4  C   LIG A   1      -5.722   0.414 125.991  0.00  0.00    +0.014 A 
ATOM      5  C   LIG A   1      -4.954   1.486 126.421  0.00  0.00    +0.004 A 
ATOM      6  C   LIG A   1      -5.202   2.753 125.908  0.00  0.00    +0.048 A 
ATOM      7  N   LIG A   1      -7.943   1.941 123.405  0.00  0.00    -0.270 N 
ATOM      8  C   LIG A   1      -8.841   0.907 123.142  0.00  0.00    +0.265 A 
ATOM      9  C   LIG A   1      -8.566  -0.421 123.764  0.00  0.00    +0.082 A 
ATOM     10  C   LIG A   1      -7.543  -0.571 124.616  0.00  0.00    +0.143 A 
ATOM     11  O   LIG A   1      -7.182  -1.776 125.182  0.00  0.00    -0.481 OA
ATOM     12  C   LIG A   1      -7.929  -2.971 124.871  0.00  0.00    +0.123 C 
ATOM     13  C   LIG A   1      -8.470  -3.488 126.207  0.00  0.00    +0.060 C 
ATOM     14  C   LIG A   1      -6.927  -3.968 124.283  0.00  0.00    +0.060 C 
ATOM     15  C   LIG A   1      -9.073  -2.770 123.906  0.00  0.00    +0.020 C 
ATOM     16  C   LIG A   1      -9.363  -1.569 123.395  0.00  0.00    +0.016 C 
ATOM     17  O   LIG A   1      -9.796   1.019 122.370  0.00  0.00    -0.267 OA
ENDROOT
BRANCH   1  19
ATOM     18  C   LIG A   1      -7.286   4.982 125.522  0.00  0.00    +0.277 C 
ATOM     19  O   LIG A   1      -6.545   4.227 124.564  0.00  0.00    -0.493 OA
ENDBRANCH   1  19
BRANCH   7  20
ATOM     20  C   LIG A   1      -7.986   3.054 122.472  0.00  0.00    +0.362 C 
BRANCH  20  21
ATOM     21  O   LIG A   1      -6.866   2.963 121.572  0.00  0.00    -0.443 OA
BRANCH  21  22
ATOM     22  C   LIG A   1      -6.817   3.894 120.594  0.00  0.00    +0.306 C 
ATOM     23  C   LIG A   1      -5.475   4.547 120.580  0.00  0.00    +0.136 C 
ATOM     24  O   LIG A   1      -7.732   4.188 119.828  0.00  0.00    -0.251 OA
ENDBRANCH  21  22
ENDBRANCH  20  21
ENDBRANCH   7  20
TORSDOF 4
ENDMDL
MODEL 3
REMARK VINA RESULT:      -7.0      4.218      5.651
REMARK  Name = NuBBE_1344
REMARK  8 active torsions:
REMARK  status: ('A' for Active; 'I' for Inactive)
REMARK    1  A    between atoms: C_1  and  O_2
REMARK    2  A    between atoms: O_2  and  C_3
REMARK    3  A    between atoms: N_9  and  C_10
REMARK    4  A    between atoms: C_10  and  O_11
REMARK    5  A    between atoms: O_11  and  C_12
REMARK    6  A    between atoms: C_12  and  C_13
REMARK    7  A    between atoms: C_19  and  C_20
REMARK    8  A    between atoms: C_19  and  C_21
REMARK                            x       y       z     vdW  Elec       q    Type
REMARK                         _______ _______ _______ _____ _____    ______ ____
ROOT
ATOM      1  C   LIG A   1      -6.980   0.888 124.902  0.00  0.00    +0.144 A 
ATOM      2  C   LIG A   1      -7.386  -0.265 125.628  0.00  0.00    +0.100 A 
ATOM      3  C   LIG A   1      -6.802  -0.492 126.894  0.00  0.00    +0.045 A 
ATOM      4  C   LIG A   1      -5.792   0.363 127.371  0.00  0.00    +0.014 A 
ATOM      5  C   LIG A   1      -5.369   1.456 126.629  0.00  0.00    +0.004 A 
ATOM      6  C   LIG A   1      -5.974   1.729 125.408  0.00  0.00    +0.048 A 
ATOM      7  N   LIG A   1      -8.359  -1.219 125.167  0.00  0.00    -0.270 N 
ATOM      8  C   LIG A   1      -8.917  -2.179 126.009  0.00  0.00    +0.265 A 
ATOM      9  C   LIG A   1      -8.269  -2.395 127.336  0.00  0.00    +0.082 A 
ATOM     10  C   LIG A   1      -7.247  -1.620 127.723  0.00  0.00    +0.143 A 
ATOM     11  O   LIG A   1      -6.552  -1.795 128.903  0.00  0.00    -0.481 OA
ATOM     12  C   LIG A   1      -6.919  -2.859 129.805  0.00  0.00    +0.123 C 
ATOM     13  C   LIG A   1      -7.287  -2.181 131.127  0.00  0.00    +0.060 C 
ATOM     14  C   LIG A   1      -5.671  -3.727 129.983  0.00  0.00    +0.060 C 
ATOM     15  C   LIG A   1      -8.072  -3.717 129.337  0.00  0.00    +0.020 C 
ATOM     16  C   LIG A   1      -8.698  -3.488 128.179  0.00  0.00    +0.016 C 
ATOM     17  O   LIG A   1      -9.863  -2.900 125.682  0.00  0.00    -0.267 OA
ENDROOT
BRANCH   1  19
ATOM     18  C   LIG A   1      -7.076   2.248 122.950  0.00  0.00    +0.277 C 
ATOM     19  O   LIG A   1      -7.686   1.264 123.785  0.00  0.00    -0.493 OA
ENDBRANCH   1  19
BRANCH   7  20
ATOM     20  C   LIG A   1      -8.723  -1.335 123.764  0.00  0.00    +0.362 C 
BRANCH  20  21
ATOM     21  O   LIG A   1      -8.008  -2.439 123.178  0.00  0.00    -0.443 OA
BRANCH  21  22
ATOM     22  C   LIG A   1      -6.677  -2.265 123.026  0.00  0.00    +0.306 C 
ATOM     23  C   LIG A   1      -5.935  -3.242 123.878  0.00  0.00    +0.136 C 
ATOM     24  O   LIG A   1      -6.133  -1.426 122.312  0.00  0.00    -0.251 OA
ENDBRANCH  21  22
ENDBRANCH  20  21
ENDBRANCH   7  20
TORSDOF 4
ENDMDL
MODEL 4
REMARK VINA RESULT:      -6.8      1.779      2.335
REMARK  Name = NuBBE_1344
REMARK  8 active torsions:
REMARK  status: ('A' for Active; 'I' for Inactive)
REMARK    1  A    between atoms: C_1  and  O_2
REMARK    2  A    between atoms: O_2  and  C_3
REMARK    3  A    between atoms: N_9  and  C_10
REMARK    4  A    between atoms: C_10  and  O_11
REMARK    5  A    between atoms: O_11  and  C_12
REMARK    6  A    between atoms: C_12  and  C_13
REMARK    7  A    between atoms: C_19  and  C_20
REMARK    8  A    between atoms: C_19  and  C_21
REMARK                            x       y       z     vdW  Elec       q    Type
REMARK                         _______ _______ _______ _____ _____    ______ ____
ROOT
ATOM      1  C   LIG A   1      -8.320   1.858 123.758  0.00  0.00    +0.144 A 
ATOM      2  C   LIG A   1      -7.443   1.760 124.872  0.00  0.00    +0.100 A 
ATOM      3  C   LIG A   1      -6.295   2.582 124.888  0.00  0.00    +0.045 A 
ATOM      4  C   LIG A   1      -6.001   3.409 123.787  0.00  0.00    +0.014 A 
ATOM      5  C   LIG A   1      -6.840   3.457 122.684  0.00  0.00    +0.004 A 
ATOM      6  C   LIG A   1      -8.005   2.700 122.678  0.00  0.00    +0.048 A 
ATOM      7  N   LIG A   1      -7.644   0.883 125.995  0.00  0.00    -0.270 N 
ATOM      8  C   LIG A   1      -6.912   1.004 127.175  0.00  0.00    +0.265 A 
ATOM      9  C   LIG A   1      -5.702   1.878 127.150  0.00  0.00    +0.082 A 
ATOM     10  C   LIG A   1      -5.399   2.584 126.053  0.00  0.00    +0.143 A 
ATOM     11  O   LIG A   1      -4.266   3.362 125.925  0.00  0.00    -0.481 OA
ATOM     12  C   LIG A   1      -3.329   3.454 127.018  0.00  0.00    +0.123 C 
ATOM     13  C   LIG A   1      -3.260   4.937 127.389  0.00  0.00    +0.060 C 
ATOM     14  C   LIG A   1      -1.979   2.980 126.472  0.00  0.00    +0.060 C 
ATOM     15  C   LIG A   1      -3.696   2.643 128.238  0.00  0.00    +0.020 C 
ATOM     16  C   LIG A   1      -4.812   1.910 128.290  0.00  0.00    +0.016 C 
ATOM     17  O   LIG A   1      -7.172   0.374 128.202  0.00  0.00    -0.267 OA
ENDROOT
BRANCH   1  19
ATOM     18  C   LIG A   1     -10.113   0.838 122.571  0.00  0.00    +0.277 C 
ATOM     19  O   LIG A   1      -9.552   1.253 123.816  0.00  0.00    -0.493 OA
ENDBRANCH   1  19
BRANCH   7  20
ATOM     20  C   LIG A   1      -8.525  -0.271 125.926  0.00  0.00    +0.362 C 
BRANCH  20  21
ATOM     21  O   LIG A   1      -7.808  -1.381 125.352  0.00  0.00    -0.443 OA
BRANCH  21  22
ATOM     22  C   LIG A   1      -8.390  -1.970 124.284  0.00  0.00    +0.306 C 
ATOM     23  C   LIG A   1      -7.494  -1.865 123.094  0.00  0.00    +0.136 C 
ATOM     24  O   LIG A   1      -9.497  -2.503 124.265  0.00  0.00    -0.251 OA
ENDBRANCH  21  22
ENDBRANCH  20  21
ENDBRANCH   7  20
TORSDOF 4
ENDMDL
MODEL 5
REMARK VINA RESULT:      -6.8      4.748      5.919
REMARK  Name = NuBBE_1344
REMARK  8 active torsions:
REMARK  status: ('A' for Active; 'I' for Inactive)
REMARK    1  A    between atoms: C_1  and  O_2
REMARK    2  A    between atoms: O_2  and  C_3
REMARK    3  A    between atoms: N_9  and  C_10
REMARK    4  A    between atoms: C_10  and  O_11
REMARK    5  A    between atoms: O_11  and  C_12
REMARK    6  A    between atoms: C_12  and  C_13
REMARK    7  A    between atoms: C_19  and  C_20
REMARK    8  A    between atoms: C_19  and  C_21
REMARK                            x       y       z     vdW  Elec       q    Type
REMARK                         _______ _______ _______ _____ _____    ______ ____
ROOT
ATOM      1  C   LIG A   1      -8.387   0.075 125.979  0.00  0.00    +0.144 A 
ATOM      2  C   LIG A   1      -7.955  -0.974 126.834  0.00  0.00    +0.100 A 
ATOM      3  C   LIG A   1      -6.820  -0.745 127.643  0.00  0.00    +0.045 A 
ATOM      4  C   LIG A   1      -6.103   0.461 127.532  0.00  0.00    +0.014 A 
ATOM      5  C   LIG A   1      -6.507   1.457 126.655  0.00  0.00    +0.004 A 
ATOM      6  C   LIG A   1      -7.656   1.273 125.896  0.00  0.00    +0.048 A 
ATOM      7  N   LIG A   1      -8.597  -2.256 126.942  0.00  0.00    -0.270 N 
ATOM      8  C   LIG A   1      -8.305  -3.151 127.971  0.00  0.00    +0.265 A 
ATOM      9  C   LIG A   1      -7.095  -2.879 128.800  0.00  0.00    +0.082 A 
ATOM     10  C   LIG A   1      -6.380  -1.762 128.608  0.00  0.00    +0.143 A 
ATOM     11  O   LIG A   1      -5.213  -1.468 129.285  0.00  0.00    -0.481 OA
ATOM     12  C   LIG A   1      -4.702  -2.387 130.272  0.00  0.00    +0.123 C 
ATOM     13  C   LIG A   1      -4.647  -1.604 131.586  0.00  0.00    +0.060 C 
ATOM     14  C   LIG A   1      -3.289  -2.767 129.821  0.00  0.00    +0.060 C 
ATOM     15  C   LIG A   1      -5.528  -3.637 130.462  0.00  0.00    +0.020 C 
ATOM     16  C   LIG A   1      -6.649  -3.856 129.768  0.00  0.00    +0.016 C 
ATOM     17  O   LIG A   1      -8.951  -4.181 128.177  0.00  0.00    -0.267 OA
ENDROOT
BRANCH   1  19
ATOM     18  C   LIG A   1      -9.847   0.884 124.280  0.00  0.00    +0.277 C 
ATOM     19  O   LIG A   1      -9.609  -0.023 125.357  0.00  0.00    -0.493 OA
ENDBRANCH   1  19
BRANCH   7  20
ATOM     20  C   LIG A   1      -9.489  -2.763 125.913  0.00  0.00    +0.362 C 
BRANCH  20  21
ATOM     21  O   LIG A   1      -8.709  -3.359 124.860  0.00  0.00    -0.443 OA
BRANCH  21  22
ATOM     22  C   LIG A   1      -9.026  -2.977 123.602  0.00  0.00    +0.306 C 
ATOM     23  C   LIG A   1      -7.877  -2.246 122.989  0.00  0.00    +0.136 C 
ATOM     24  O   LIG A   1     -10.096  -3.174 123.033  0.00  0.00    -0.251 OA
ENDBRANCH  21  22
ENDBRANCH  20  21
ENDBRANCH   7  20
TORSDOF 4
ENDMDL
MODEL 6
REMARK VINA RESULT:      -6.7      2.747      6.623
REMARK  Name = NuBBE_1344
REMARK  8 active torsions:
REMARK  status: ('A' for Active; 'I' for Inactive)
REMARK    1  A    between atoms: C_1  and  O_2
REMARK    2  A    between atoms: O_2  and  C_3
REMARK    3  A    between atoms: N_9  and  C_10
REMARK    4  A    between atoms: C_10  and  O_11
REMARK    5  A    between atoms: O_11  and  C_12
REMARK    6  A    between atoms: C_12  and  C_13
REMARK    7  A    between atoms: C_19  and  C_20
REMARK    8  A    between atoms: C_19  and  C_21
REMARK                            x       y       z     vdW  Elec       q    Type
REMARK                         _______ _______ _______ _____ _____    ______ ____
ROOT
ATOM      1  C   LIG A   1      -8.312   1.887 128.589  0.00  0.00    +0.144 A 
ATOM      2  C   LIG A   1      -8.017   1.451 127.269  0.00  0.00    +0.100 A 
ATOM      3  C   LIG A   1      -7.668   0.096 127.080  0.00  0.00    +0.045 A 
ATOM      4  C   LIG A   1      -7.541  -0.763 128.187  0.00  0.00    +0.014 A 
ATOM      5  C   LIG A   1      -7.782  -0.311 129.476  0.00  0.00    +0.004 A 
ATOM      6  C   LIG A   1      -8.185   1.004 129.675  0.00  0.00    +0.048 A 
ATOM      7  N   LIG A   1      -8.056   2.294 126.103  0.00  0.00    -0.270 N 
ATOM      8  C   LIG A   1      -8.019   1.776 124.809  0.00  0.00    +0.265 A 
ATOM      9  C   LIG A   1      -7.640   0.342 124.650  0.00  0.00    +0.082 A 
ATOM     10  C   LIG A   1      -7.437  -0.428 125.727  0.00  0.00    +0.143 A 
ATOM     11  O   LIG A   1      -7.021  -1.743 125.667  0.00  0.00    -0.481 OA
ATOM     12  C   LIG A   1      -6.786  -2.366 124.387  0.00  0.00    +0.123 C 
ATOM     13  C   LIG A   1      -7.736  -3.565 124.323  0.00  0.00    +0.060 C 
ATOM     14  C   LIG A   1      -5.331  -2.842 124.397  0.00  0.00    +0.060 C 
ATOM     15  C   LIG A   1      -7.019  -1.471 123.193  0.00  0.00    +0.020 C 
ATOM     16  C   LIG A   1      -7.422  -0.204 123.329  0.00  0.00    +0.016 C 
ATOM     17  O   LIG A   1      -8.211   2.459 123.800  0.00  0.00    -0.267 OA
ENDROOT
BRANCH   1  19
ATOM     18  C   LIG A   1      -8.439   3.852 129.929  0.00  0.00    +0.277 C 
ATOM     19  O   LIG A   1      -8.875   3.126 128.779  0.00  0.00    -0.493 OA
ENDBRANCH   1  19
BRANCH   7  20
ATOM     20  C   LIG A   1      -7.998   3.743 126.195  0.00  0.00    +0.362 C 
BRANCH  20  21
ATOM     21  O   LIG A   1      -6.643   4.147 126.468  0.00  0.00    -0.443 OA
BRANCH  21  22
ATOM     22  C   LIG A   1      -6.013   4.809 125.472  0.00  0.00    +0.306 C 
ATOM     23  C   LIG A   1      -4.937   3.951 124.892  0.00  0.00    +0.136 C 
ATOM     24  O   LIG A   1      -6.259   5.951 125.093  0.00  0.00    -0.251 OA
ENDBRANCH  21  22
ENDBRANCH  20  21
ENDBRANCH   7  20
TORSDOF 4
ENDMDL
MODEL 7
REMARK VINA RESULT:      -6.7      4.682      8.073
REMARK  Name = NuBBE_1344
REMARK  8 active torsions:
REMARK  status: ('A' for Active; 'I' for Inactive)
REMARK    1  A    between atoms: C_1  and  O_2
REMARK    2  A    between atoms: O_2  and  C_3
REMARK    3  A    between atoms: N_9  and  C_10
REMARK    4  A    between atoms: C_10  and  O_11
REMARK    5  A    between atoms: O_11  and  C_12
REMARK    6  A    between atoms: C_12  and  C_13
REMARK    7  A    between atoms: C_19  and  C_20
REMARK    8  A    between atoms: C_19  and  C_21
REMARK                            x       y       z     vdW  Elec       q    Type
REMARK                         _______ _______ _______ _____ _____    ______ ____
ROOT
ATOM      1  C   LIG A   1      -7.893  -2.303 129.420  0.00  0.00    +0.144 A 
ATOM      2  C   LIG A   1      -7.542  -1.512 128.292  0.00  0.00    +0.100 A 
ATOM      3  C   LIG A   1      -7.937  -1.966 127.015  0.00  0.00    +0.045 A 
ATOM      4  C   LIG A   1      -8.586  -3.207 126.874  0.00  0.00    +0.014 A 
ATOM      5  C   LIG A   1      -8.877  -3.993 127.980  0.00  0.00    +0.004 A 
ATOM      6  C   LIG A   1      -8.550  -3.533 129.250  0.00  0.00    +0.048 A 
ATOM      7  N   LIG A   1      -6.816  -0.272 128.359  0.00  0.00    -0.270 N 
ATOM      8  C   LIG A   1      -6.723   0.595 127.271  0.00  0.00    +0.265 A 
ATOM      9  C   LIG A   1      -7.144   0.077 125.937  0.00  0.00    +0.082 A 
ATOM     10  C   LIG A   1      -7.676  -1.147 125.823  0.00  0.00    +0.143 A 
ATOM     11  O   LIG A   1      -8.029  -1.726 124.621  0.00  0.00    -0.481 OA
ATOM     12  C   LIG A   1      -7.837  -1.000 123.389  0.00  0.00    +0.123 C 
ATOM     13  C   LIG A   1      -9.224  -0.878 122.752  0.00  0.00    +0.060 C 
ATOM     14  C   LIG A   1      -6.926  -1.865 122.513  0.00  0.00    +0.060 C 
ATOM     15  C   LIG A   1      -7.232   0.374 123.549  0.00  0.00    +0.020 C 
ATOM     16  C   LIG A   1      -6.913   0.869 124.749  0.00  0.00    +0.016 C 
ATOM     17  O   LIG A   1      -6.246   1.730 127.348  0.00  0.00    -0.267 OA
ENDROOT
BRANCH   1  19
ATOM     18  C   LIG A   1      -7.349  -2.705 131.703  0.00  0.00    +0.277 C 
ATOM     19  O   LIG A   1      -7.733  -1.783 130.682  0.00  0.00    -0.493 OA
ENDBRANCH   1  19
BRANCH   7  20
ATOM     20  C   LIG A   1      -6.019   0.095 129.517  0.00  0.00    +0.362 C 
BRANCH  20  21
ATOM     21  O   LIG A   1      -4.662  -0.345 129.317  0.00  0.00    -0.443 OA
BRANCH  21  22
ATOM     22  C   LIG A   1      -4.266  -1.395 130.070  0.00  0.00    +0.306 C 
ATOM     23  C   LIG A   1      -4.150  -2.616 129.217  0.00  0.00    +0.136 C 
ATOM     24  O   LIG A   1      -4.044  -1.378 131.278  0.00  0.00    -0.251 OA
ENDBRANCH  21  22
ENDBRANCH  20  21
ENDBRANCH   7  20
TORSDOF 4
ENDMDL
MODEL 8
REMARK VINA RESULT:      -6.5      4.068      7.830
REMARK  Name = NuBBE_1344
REMARK  8 active torsions:
REMARK  status: ('A' for Active; 'I' for Inactive)
REMARK    1  A    between atoms: C_1  and  O_2
REMARK    2  A    between atoms: O_2  and  C_3
REMARK    3  A    between atoms: N_9  and  C_10
REMARK    4  A    between atoms: C_10  and  O_11
REMARK    5  A    between atoms: O_11  and  C_12
REMARK    6  A    between atoms: C_12  and  C_13
REMARK    7  A    between atoms: C_19  and  C_20
REMARK    8  A    between atoms: C_19  and  C_21
REMARK                            x       y       z     vdW  Elec       q    Type
REMARK                         _______ _______ _______ _____ _____    ______ ____
ROOT
ATOM      1  C   LIG A   1      -7.836  -0.335 130.027  0.00  0.00    +0.144 A 
ATOM      2  C   LIG A   1      -7.950  -0.143 128.624  0.00  0.00    +0.100 A 
ATOM      3  C   LIG A   1      -7.925  -1.285 127.794  0.00  0.00    +0.045 A 
ATOM      4  C   LIG A   1      -7.710  -2.560 128.350  0.00  0.00    +0.014 A 
ATOM      5  C   LIG A   1      -7.550  -2.727 129.718  0.00  0.00    +0.004 A 
ATOM      6  C   LIG A   1      -7.632  -1.621 130.555  0.00  0.00    +0.048 A 
ATOM      7  N   LIG A   1      -8.098   1.137 127.984  0.00  0.00    -0.270 N 
ATOM      8  C   LIG A   1      -8.467   1.262 126.646  0.00  0.00    +0.265 A 
ATOM      9  C   LIG A   1      -8.422   0.034 125.799  0.00  0.00    +0.082 A 
ATOM     10  C   LIG A   1      -8.125  -1.153 126.344  0.00  0.00    +0.143 A 
ATOM     11  O   LIG A   1      -7.997  -2.322 125.622  0.00  0.00    -0.481 OA
ATOM     12  C   LIG A   1      -8.195  -2.311 124.193  0.00  0.00    +0.123 C 
ATOM     13  C   LIG A   1      -9.348  -3.281 123.921  0.00  0.00    +0.060 C 
ATOM     14  C   LIG A   1      -6.899  -2.839 123.571  0.00  0.00    +0.060 C 
ATOM     15  C   LIG A   1      -8.525  -0.958 123.608  0.00  0.00    +0.020 C 
ATOM     16  C   LIG A   1      -8.630   0.134 124.372  0.00  0.00    +0.016 C 
ATOM     17  O   LIG A   1      -8.754   2.340 126.120  0.00  0.00    -0.267 OA
ENDROOT
BRANCH   1  19
ATOM     18  C   LIG A   1      -9.211   0.577 131.744  0.00  0.00    +0.277 C 
ATOM     19  O   LIG A   1      -8.088   0.718 130.874  0.00  0.00    -0.493 OA
ENDBRANCH   1  19
BRANCH   7  20
ATOM     20  C   LIG A   1      -7.740   2.379 128.649  0.00  0.00    +0.362 C 
BRANCH  20  21
ATOM     21  O   LIG A   1      -8.940   3.102 128.981  0.00  0.00    -0.443 OA
BRANCH  21  22
ATOM     22  C   LIG A   1      -8.778   4.413 129.267  0.00  0.00    +0.306 C 
ATOM     23  C   LIG A   1      -8.312   4.572 130.677  0.00  0.00    +0.136 C 
ATOM     24  O   LIG A   1      -8.992   5.353 128.505  0.00  0.00    -0.251 OA
ENDBRANCH  21  22
ENDBRANCH  20  21
ENDBRANCH   7  20
TORSDOF 4
ENDMDL
MODEL 9
REMARK VINA RESULT:      -6.5      3.159      7.253
REMARK  Name = NuBBE_1344
REMARK  8 active torsions:
REMARK  status: ('A' for Active; 'I' for Inactive)
REMARK    1  A    between atoms: C_1  and  O_2
REMARK    2  A    between atoms: O_2  and  C_3
REMARK    3  A    between atoms: N_9  and  C_10
REMARK    4  A    between atoms: C_10  and  O_11
REMARK    5  A    between atoms: O_11  and  C_12
REMARK    6  A    between atoms: C_12  and  C_13
REMARK    7  A    between atoms: C_19  and  C_20
REMARK    8  A    between atoms: C_19  and  C_21
REMARK                            x       y       z     vdW  Elec       q    Type
REMARK                         _______ _______ _______ _____ _____    ______ ____
ROOT
ATOM      1  C   LIG A   1      -5.207   1.234 128.727  0.00  0.00    +0.144 A 
ATOM      2  C   LIG A   1      -5.526   0.888 127.386  0.00  0.00    +0.100 A 
ATOM      3  C   LIG A   1      -5.568  -0.482 127.045  0.00  0.00    +0.045 A 
ATOM      4  C   LIG A   1      -5.221  -1.459 127.997  0.00  0.00    +0.014 A 
ATOM      5  C   LIG A   1      -4.862  -1.104 129.289  0.00  0.00    +0.004 A 
ATOM      6  C   LIG A   1      -4.874   0.236 129.658  0.00  0.00    +0.048 A 
ATOM      7  N   LIG A   1      -5.819   1.838 126.346  0.00  0.00    -0.270 N 
ATOM      8  C   LIG A   1      -6.378   1.458 125.126  0.00  0.00    +0.265 A 
ATOM      9  C   LIG A   1      -6.398   0.002 124.800  0.00  0.00    +0.082 A 
ATOM     10  C   LIG A   1      -5.975  -0.899 125.697  0.00  0.00    +0.143 A 
ATOM     11  O   LIG A   1      -5.899  -2.254 125.450  0.00  0.00    -0.481 OA
ATOM     12  C   LIG A   1      -6.297  -2.776 124.165  0.00  0.00    +0.123 C 
ATOM     13  C   LIG A   1      -7.432  -3.764 124.446  0.00  0.00    +0.060 C 
ATOM     14  C   LIG A   1      -5.079  -3.513 123.601  0.00  0.00    +0.060 C 
ATOM     15  C   LIG A   1      -6.764  -1.736 123.175  0.00  0.00    +0.020 C 
ATOM     16  C   LIG A   1      -6.810  -0.437 123.485  0.00  0.00    +0.016 C 
ATOM     17  O   LIG A   1      -6.783   2.265 124.286  0.00  0.00    -0.267 OA
ENDROOT
BRANCH   1  19
ATOM     18  C   LIG A   1      -6.099   2.707 130.371  0.00  0.00    +0.277 C 
ATOM     19  O   LIG A   1      -5.384   2.530 129.149  0.00  0.00    -0.493 OA
ENDBRANCH   1  19
BRANCH   7  20
ATOM     20  C   LIG A   1      -5.426   3.234 126.441  0.00  0.00    +0.362 C 
BRANCH  20  21
ATOM     21  O   LIG A   1      -4.114   3.398 125.869  0.00  0.00    -0.443 OA
BRANCH  21  22
ATOM     22  C   LIG A   1      -3.172   3.909 126.692  0.00  0.00    +0.306 C 
ATOM     23  C   LIG A   1      -1.989   2.999 126.738  0.00  0.00    +0.136 C 
ATOM     24  O   LIG A   1      -3.258   4.956 127.330  0.00  0.00    -0.251 OA
ENDBRANCH  21  22
ENDBRANCH  20  21
ENDBRANCH   7  20
TORSDOF 4
ENDMDL
