MODEL 1
REMARK VINA RESULT:      -7.7      0.000      0.000
REMARK  Name = NuBBE_2071
REMARK  3 active torsions:
REMARK  status: ('A' for Active; 'I' for Inactive)
REMARK    1  A    between atoms: C_3  and  C_4
REMARK    2  A    between atoms: C_5  and  O_6
REMARK    3  A    between atoms: C_16  and  O_17
REMARK                            x       y       z     vdW  Elec       q    Type
REMARK                         _______ _______ _______ _____ _____    ______ ____
ROOT
ATOM      1  O   LIG A   1     -10.236  -0.318 122.504  0.00  0.00    -0.250 OA
ATOM      2  C   LIG A   1      -9.216  -0.375 123.217  0.00  0.00    +0.319 C 
ATOM      3  C   LIG A   1      -8.514  -1.596 123.718  0.00  0.00    +0.125 C 
ATOM      4  C   LIG A   1      -7.676  -1.884 122.411  0.00  0.00    +0.029 C 
ATOM      5  C   LIG A   1      -8.977  -2.951 124.314  0.00  0.00    +0.183 C 
ATOM      6  C   LIG A   1      -9.246  -3.260 125.818  0.00  0.00    +0.066 C 
ATOM      7  C   LIG A   1      -8.197  -2.622 126.722  0.00  0.00    +0.015 C 
ATOM      8  C   LIG A   1      -7.151  -1.893 125.827  0.00  0.00    +0.008 C 
ATOM      9  C   LIG A   1      -6.638  -3.073 124.917  0.00  0.00    +0.171 C 
ATOM     10  O   LIG A   1      -7.752  -3.755 124.208  0.00  0.00    -0.347 OA
ATOM     11  C   LIG A   1      -6.018  -1.150 126.618  0.00  0.00    +0.028 C 
ATOM     12  C   LIG A   1      -6.093  -1.522 128.118  0.00  0.00    +0.016 C 
ATOM     13  C   LIG A   1      -5.156  -0.770 129.029  0.00  0.00    +0.083 C 
ATOM     14  C   LIG A   1      -5.277   0.706 128.802  0.00  0.00    +0.197 C 
ATOM     15  C   LIG A   1      -5.634   1.206 127.434  0.00  0.00    +0.159 C 
ATOM     16  C   LIG A   1      -5.972   0.377 126.425  0.00  0.00    -0.018 C 
ATOM     17  C   LIG A   1      -6.340   0.908 125.031  0.00  0.00    +0.079 C 
ATOM     18  C   LIG A   1      -7.771   0.503 124.732  0.00  0.00    +0.185 C 
ATOM     19  O   LIG A   1      -8.381   0.718 123.463  0.00  0.00    -0.460 OA
ATOM     20  C   LIG A   1      -8.024  -0.944 124.992  0.00  0.00    +0.061 C 
ATOM     21  O   LIG A   1      -5.035   1.535 129.680  0.00  0.00    -0.289 OA
ENDROOT
BRANCH   5  22
ATOM     22  O   LIG A   1     -10.121  -3.404 123.631  0.00  0.00    -0.364 OA
ATOM     23  H   LIG A   1      -9.786  -4.073 122.998  0.00  0.00    +0.213 HD
ENDBRANCH   5  22
BRANCH  15  24
ATOM     24  O   LIG A   1      -5.563   2.577 127.269  0.00  0.00    -0.503 OA
ATOM     25  H   LIG A   1      -6.056   2.948 128.036  0.00  0.00    +0.292 HD
ENDBRANCH  15  24
TORSDOF 2
ENDMDL
MODEL 2
REMARK VINA RESULT:      -7.6      2.131      2.531
REMARK  Name = NuBBE_2071
REMARK  3 active torsions:
REMARK  status: ('A' for Active; 'I' for Inactive)
REMARK    1  A    between atoms: C_3  and  C_4
REMARK    2  A    between atoms: C_5  and  O_6
REMARK    3  A    between atoms: C_16  and  O_17
REMARK                            x       y       z     vdW  Elec       q    Type
REMARK                         _______ _______ _______ _____ _____    ______ ____
ROOT
ATOM      1  O   LIG A   1     -10.540   1.212 123.734  0.00  0.00    -0.250 OA
ATOM      2  C   LIG A   1      -9.735   0.827 124.603  0.00  0.00    +0.319 C 
ATOM      3  C   LIG A   1      -8.800  -0.338 124.535  0.00  0.00    +0.125 C 
ATOM      4  C   LIG A   1      -7.654   0.383 123.723  0.00  0.00    +0.029 C 
ATOM      5  C   LIG A   1      -8.916  -1.800 124.030  0.00  0.00    +0.183 C 
ATOM      6  C   LIG A   1      -9.387  -3.033 124.859  0.00  0.00    +0.066 C 
ATOM      7  C   LIG A   1      -8.821  -3.012 126.274  0.00  0.00    +0.015 C 
ATOM      8  C   LIG A   1      -7.901  -1.764 126.420  0.00  0.00    +0.008 C 
ATOM      9  C   LIG A   1      -6.851  -2.011 125.270  0.00  0.00    +0.171 C 
ATOM     10  O   LIG A   1      -7.504  -2.198 123.949  0.00  0.00    -0.347 OA
ATOM     11  C   LIG A   1      -7.267  -1.582 127.843  0.00  0.00    +0.028 C 
ATOM     12  C   LIG A   1      -7.538  -2.838 128.704  0.00  0.00    +0.016 C 
ATOM     13  C   LIG A   1      -7.113  -2.749 130.149  0.00  0.00    +0.083 C 
ATOM     14  C   LIG A   1      -7.654  -1.501 130.777  0.00  0.00    +0.197 C 
ATOM     15  C   LIG A   1      -7.851  -0.283 129.926  0.00  0.00    +0.159 C 
ATOM     16  C   LIG A   1      -7.677  -0.299 128.588  0.00  0.00    -0.018 C 
ATOM     17  C   LIG A   1      -7.888   0.960 127.730  0.00  0.00    +0.079 C 
ATOM     18  C   LIG A   1      -9.012   0.681 126.750  0.00  0.00    +0.185 C 
ATOM     19  O   LIG A   1      -9.371   1.592 125.715  0.00  0.00    -0.460 OA
ATOM     20  C   LIG A   1      -8.833  -0.610 126.023  0.00  0.00    +0.061 C 
ATOM     21  O   LIG A   1      -7.887  -1.413 131.983  0.00  0.00    -0.289 OA
ENDROOT
BRANCH   5  22
ATOM     22  O   LIG A   1      -9.678  -1.833 122.847  0.00  0.00    -0.364 OA
ATOM     23  H   LIG A   1      -9.504  -0.972 122.413  0.00  0.00    +0.213 HD
ENDBRANCH   5  22
BRANCH  15  24
ATOM     24  O   LIG A   1      -8.193   0.869 130.611  0.00  0.00    -0.503 OA
ATOM     25  H   LIG A   1      -7.410   1.458 130.516  0.00  0.00    +0.292 HD
ENDBRANCH  15  24
TORSDOF 2
ENDMDL
MODEL 3
REMARK VINA RESULT:      -7.5      2.073      2.857
REMARK  Name = NuBBE_2071
REMARK  3 active torsions:
REMARK  status: ('A' for Active; 'I' for Inactive)
REMARK    1  A    between atoms: C_3  and  C_4
REMARK    2  A    between atoms: C_5  and  O_6
REMARK    3  A    between atoms: C_16  and  O_17
REMARK                            x       y       z     vdW  Elec       q    Type
REMARK                         _______ _______ _______ _____ _____    ______ ____
ROOT
ATOM      1  O   LIG A   1     -10.748   0.041 122.664  0.00  0.00    -0.250 OA
ATOM      2  C   LIG A   1      -9.640   0.454 123.054  0.00  0.00    +0.319 C 
ATOM      3  C   LIG A   1      -8.600  -0.295 123.823  0.00  0.00    +0.125 C 
ATOM      4  C   LIG A   1      -7.945  -1.033 122.590  0.00  0.00    +0.029 C 
ATOM      5  C   LIG A   1      -8.628  -1.276 125.024  0.00  0.00    +0.183 C 
ATOM      6  C   LIG A   1      -8.565  -0.895 126.534  0.00  0.00    +0.066 C 
ATOM      7  C   LIG A   1      -7.559   0.221 126.794  0.00  0.00    +0.015 C 
ATOM      8  C   LIG A   1      -6.875   0.593 125.445  0.00  0.00    +0.008 C 
ATOM      9  C   LIG A   1      -6.259  -0.791 125.012  0.00  0.00    +0.171 C 
ATOM     10  O   LIG A   1      -7.284  -1.866 124.957  0.00  0.00    -0.347 OA
ATOM     11  C   LIG A   1      -5.832   1.761 125.541  0.00  0.00    +0.028 C 
ATOM     12  C   LIG A   1      -5.569   2.110 127.025  0.00  0.00    +0.016 C 
ATOM     13  C   LIG A   1      -4.696   3.315 127.272  0.00  0.00    +0.083 C 
ATOM     14  C   LIG A   1      -5.194   4.492 126.490  0.00  0.00    +0.197 C 
ATOM     15  C   LIG A   1      -5.879   4.257 125.177  0.00  0.00    +0.159 C 
ATOM     16  C   LIG A   1      -6.176   3.021 124.726  0.00  0.00    -0.018 C 
ATOM     17  C   LIG A   1      -6.883   2.800 123.379  0.00  0.00    +0.079 C 
ATOM     18  C   LIG A   1      -8.210   2.114 123.648  0.00  0.00    +0.185 C 
ATOM     19  O   LIG A   1      -9.054   1.640 122.603  0.00  0.00    -0.460 OA
ATOM     20  C   LIG A   1      -8.071   0.927 124.541  0.00  0.00    +0.061 C 
ATOM     21  O   LIG A   1      -5.010   5.655 126.852  0.00  0.00    -0.289 OA
ENDROOT
BRANCH   5  22
ATOM     22  O   LIG A   1      -9.732  -2.140 124.904  0.00  0.00    -0.364 OA
ATOM     23  H   LIG A   1      -9.992  -2.083 123.961  0.00  0.00    +0.213 HD
ENDBRANCH   5  22
BRANCH  15  24
ATOM     24  O   LIG A   1      -6.158   5.396 124.444  0.00  0.00    -0.503 OA
ATOM     25  H   LIG A   1      -6.640   5.985 125.070  0.00  0.00    +0.292 HD
ENDBRANCH  15  24
TORSDOF 2
ENDMDL
MODEL 4
REMARK VINA RESULT:      -7.4      1.995      3.166
REMARK  Name = NuBBE_2071
REMARK  3 active torsions:
REMARK  status: ('A' for Active; 'I' for Inactive)
REMARK    1  A    between atoms: C_3  and  C_4
REMARK    2  A    between atoms: C_5  and  O_6
REMARK    3  A    between atoms: C_16  and  O_17
REMARK                            x       y       z     vdW  Elec       q    Type
REMARK                         _______ _______ _______ _____ _____    ______ ____
ROOT
ATOM      1  O   LIG A   1      -9.800  -2.995 123.538  0.00  0.00    -0.250 OA
ATOM      2  C   LIG A   1      -8.984  -2.080 123.758  0.00  0.00    +0.319 C 
ATOM      3  C   LIG A   1      -7.856  -2.074 124.739  0.00  0.00    +0.125 C 
ATOM      4  C   LIG A   1      -6.816  -2.851 123.840  0.00  0.00    +0.029 C 
ATOM      5  C   LIG A   1      -7.685  -2.545 126.206  0.00  0.00    +0.183 C 
ATOM      6  C   LIG A   1      -7.972  -1.706 127.489  0.00  0.00    +0.066 C 
ATOM      7  C   LIG A   1      -7.490  -0.267 127.342  0.00  0.00    +0.015 C 
ATOM      8  C   LIG A   1      -6.813  -0.113 125.948  0.00  0.00    +0.008 C 
ATOM      9  C   LIG A   1      -5.680  -1.206 126.024  0.00  0.00    +0.171 C 
ATOM     10  O   LIG A   1      -6.223  -2.550 126.348  0.00  0.00    -0.347 OA
ATOM     11  C   LIG A   1      -6.293   1.333 125.630  0.00  0.00    +0.028 C 
ATOM     12  C   LIG A   1      -6.380   2.214 126.899  0.00  0.00    +0.016 C 
ATOM     13  C   LIG A   1      -6.051   3.674 126.710  0.00  0.00    +0.083 C 
ATOM     14  C   LIG A   1      -6.835   4.243 125.566  0.00  0.00    +0.197 C 
ATOM     15  C   LIG A   1      -7.202   3.351 124.418  0.00  0.00    +0.159 C 
ATOM     16  C   LIG A   1      -6.961   2.024 124.427  0.00  0.00    -0.018 C 
ATOM     17  C   LIG A   1      -7.349   1.124 123.242  0.00  0.00    +0.079 C 
ATOM     18  C   LIG A   1      -8.355   0.101 123.734  0.00  0.00    +0.185 C 
ATOM     19  O   LIG A   1      -8.818  -0.973 122.921  0.00  0.00    -0.460 OA
ATOM     20  C   LIG A   1      -7.914  -0.582 124.985  0.00  0.00    +0.061 C 
ATOM     21  O   LIG A   1      -7.140   5.434 125.500  0.00  0.00    -0.289 OA
ENDROOT
BRANCH   5  22
ATOM     22  O   LIG A   1      -8.369  -3.760 126.397  0.00  0.00    -0.364 OA
ATOM     23  H   LIG A   1      -8.103  -4.059 127.291  0.00  0.00    +0.213 HD
ENDBRANCH   5  22
BRANCH  15  24
ATOM     24  O   LIG A   1      -7.776   3.989 123.334  0.00  0.00    -0.503 OA
ATOM     25  H   LIG A   1      -8.422   3.339 122.975  0.00  0.00    +0.292 HD
ENDBRANCH  15  24
TORSDOF 2
ENDMDL
MODEL 5
REMARK VINA RESULT:      -7.4      2.118      5.777
REMARK  Name = NuBBE_2071
REMARK  3 active torsions:
REMARK  status: ('A' for Active; 'I' for Inactive)
REMARK    1  A    between atoms: C_3  and  C_4
REMARK    2  A    between atoms: C_5  and  O_6
REMARK    3  A    between atoms: C_16  and  O_17
REMARK                            x       y       z     vdW  Elec       q    Type
REMARK                         _______ _______ _______ _____ _____    ______ ____
ROOT
ATOM      1  O   LIG A   1      -5.258   4.625 122.864  0.00  0.00    -0.250 OA
ATOM      2  C   LIG A   1      -6.053   3.834 123.407  0.00  0.00    +0.319 C 
ATOM      3  C   LIG A   1      -6.136   3.466 124.854  0.00  0.00    +0.125 C 
ATOM      4  C   LIG A   1      -6.983   4.714 125.321  0.00  0.00    +0.029 C 
ATOM      5  C   LIG A   1      -5.095   3.138 125.956  0.00  0.00    +0.183 C 
ATOM      6  C   LIG A   1      -4.501   1.734 126.283  0.00  0.00    +0.066 C 
ATOM      7  C   LIG A   1      -5.565   0.644 126.228  0.00  0.00    +0.015 C 
ATOM      8  C   LIG A   1      -6.936   1.308 125.900  0.00  0.00    +0.008 C 
ATOM      9  C   LIG A   1      -7.078   2.338 127.085  0.00  0.00    +0.171 C 
ATOM     10  O   LIG A   1      -5.909   3.250 127.174  0.00  0.00    -0.347 OA
ATOM     11  C   LIG A   1      -8.135   0.303 125.772  0.00  0.00    +0.028 C 
ATOM     12  C   LIG A   1      -7.692  -1.105 126.236  0.00  0.00    +0.016 C 
ATOM     13  C   LIG A   1      -8.698  -2.210 126.032  0.00  0.00    +0.083 C 
ATOM     14  C   LIG A   1      -9.200  -2.207 124.621  0.00  0.00    +0.197 C 
ATOM     15  C   LIG A   1      -9.280  -0.907 123.878  0.00  0.00    +0.159 C 
ATOM     16  C   LIG A   1      -8.802   0.248 124.387  0.00  0.00    -0.018 C 
ATOM     17  C   LIG A   1      -8.889   1.571 123.609  0.00  0.00    +0.079 C 
ATOM     18  C   LIG A   1      -7.477   2.067 123.360  0.00  0.00    +0.185 C 
ATOM     19  O   LIG A   1      -7.202   3.340 122.783  0.00  0.00    -0.460 OA
ATOM     20  C   LIG A   1      -6.642   2.063 124.596  0.00  0.00    +0.061 C 
ATOM     21  O   LIG A   1      -9.610  -3.224 124.060  0.00  0.00    -0.289 OA
ENDROOT
BRANCH   5  22
ATOM     22  O   LIG A   1      -3.984   3.991 125.827  0.00  0.00    -0.364 OA
ATOM     23  H   LIG A   1      -4.330   4.786 125.370  0.00  0.00    +0.213 HD
ENDBRANCH   5  22
BRANCH  15  24
ATOM     24  O   LIG A   1      -9.906  -0.967 122.647  0.00  0.00    -0.503 OA
ATOM     25  H   LIG A   1     -10.498  -0.180 122.628  0.00  0.00    +0.292 HD
ENDBRANCH  15  24
TORSDOF 2
ENDMDL
MODEL 6
REMARK VINA RESULT:      -7.3      2.560      6.404
REMARK  Name = NuBBE_2071
REMARK  3 active torsions:
REMARK  status: ('A' for Active; 'I' for Inactive)
REMARK    1  A    between atoms: C_3  and  C_4
REMARK    2  A    between atoms: C_5  and  O_6
REMARK    3  A    between atoms: C_16  and  O_17
REMARK                            x       y       z     vdW  Elec       q    Type
REMARK                         _______ _______ _______ _____ _____    ______ ____
ROOT
ATOM      1  O   LIG A   1      -7.546  -2.557 132.272  0.00  0.00    -0.250 OA
ATOM      2  C   LIG A   1      -7.421  -2.725 131.044  0.00  0.00    +0.319 C 
ATOM      3  C   LIG A   1      -6.176  -2.611 130.225  0.00  0.00    +0.125 C 
ATOM      4  C   LIG A   1      -5.614  -4.055 130.528  0.00  0.00    +0.029 C 
ATOM      5  C   LIG A   1      -4.985  -1.619 130.185  0.00  0.00    +0.183 C 
ATOM      6  C   LIG A   1      -4.899  -0.305 129.350  0.00  0.00    +0.066 C 
ATOM      7  C   LIG A   1      -5.475  -0.487 127.950  0.00  0.00    +0.015 C 
ATOM      8  C   LIG A   1      -5.928  -1.969 127.792  0.00  0.00    +0.008 C 
ATOM      9  C   LIG A   1      -4.585  -2.743 128.082  0.00  0.00    +0.171 C 
ATOM     10  O   LIG A   1      -3.999  -2.369 129.395  0.00  0.00    -0.347 OA
ATOM     11  C   LIG A   1      -6.581  -2.309 126.406  0.00  0.00    +0.028 C 
ATOM     12  C   LIG A   1      -6.403  -1.117 125.435  0.00  0.00    +0.016 C 
ATOM     13  C   LIG A   1      -7.108  -1.240 124.107  0.00  0.00    +0.083 C 
ATOM     14  C   LIG A   1      -8.548  -1.599 124.311  0.00  0.00    +0.197 C 
ATOM     15  C   LIG A   1      -8.932  -2.428 125.499  0.00  0.00    +0.159 C 
ATOM     16  C   LIG A   1      -8.050  -2.764 126.463  0.00  0.00    -0.018 C 
ATOM     17  C   LIG A   1      -8.463  -3.612 127.677  0.00  0.00    +0.079 C 
ATOM     18  C   LIG A   1      -8.244  -2.784 128.929  0.00  0.00    +0.185 C 
ATOM     19  O   LIG A   1      -8.398  -3.320 130.240  0.00  0.00    -0.460 OA
ATOM     20  C   LIG A   1      -6.892  -2.155 128.973  0.00  0.00    +0.061 C 
ATOM     21  O   LIG A   1      -9.429  -1.291 123.507  0.00  0.00    -0.289 OA
ENDROOT
BRANCH   5  22
ATOM     22  O   LIG A   1      -4.632  -1.249 131.496  0.00  0.00    -0.364 OA
ATOM     23  H   LIG A   1      -5.374  -0.688 131.806  0.00  0.00    +0.213 HD
ENDBRANCH   5  22
BRANCH  15  24
ATOM     24  O   LIG A   1     -10.248  -2.853 125.524  0.00  0.00    -0.503 OA
ATOM     25  H   LIG A   1     -10.645  -2.393 126.300  0.00  0.00    +0.292 HD
ENDBRANCH  15  24
TORSDOF 2
ENDMDL
MODEL 7
REMARK VINA RESULT:      -7.1      2.223      4.805
REMARK  Name = NuBBE_2071
REMARK  3 active torsions:
REMARK  status: ('A' for Active; 'I' for Inactive)
REMARK    1  A    between atoms: C_3  and  C_4
REMARK    2  A    between atoms: C_5  and  O_6
REMARK    3  A    between atoms: C_16  and  O_17
REMARK                            x       y       z     vdW  Elec       q    Type
REMARK                         _______ _______ _______ _____ _____    ______ ____
ROOT
ATOM      1  O   LIG A   1      -8.137   4.605 126.265  0.00  0.00    -0.250 OA
ATOM      2  C   LIG A   1      -7.842   3.396 126.218  0.00  0.00    +0.319 C 
ATOM      3  C   LIG A   1      -7.556   2.568 125.007  0.00  0.00    +0.125 C 
ATOM      4  C   LIG A   1      -6.046   2.993 124.836  0.00  0.00    +0.029 C 
ATOM      5  C   LIG A   1      -8.194   2.441 123.599  0.00  0.00    +0.183 C 
ATOM      6  C   LIG A   1      -9.365   1.496 123.193  0.00  0.00    +0.066 C 
ATOM      7  C   LIG A   1      -9.226   0.118 123.830  0.00  0.00    +0.015 C 
ATOM      8  C   LIG A   1      -7.908   0.088 124.660  0.00  0.00    +0.008 C 
ATOM      9  C   LIG A   1      -6.835   0.441 123.560  0.00  0.00    +0.171 C 
ATOM     10  O   LIG A   1      -7.148   1.716 122.864  0.00  0.00    -0.347 OA
ATOM     11  C   LIG A   1      -7.639  -1.262 125.412  0.00  0.00    +0.028 C 
ATOM     12  C   LIG A   1      -8.657  -2.332 124.952  0.00  0.00    +0.016 C 
ATOM     13  C   LIG A   1      -8.615  -3.643 125.697  0.00  0.00    +0.083 C 
ATOM     14  C   LIG A   1      -8.666  -3.406 127.176  0.00  0.00    +0.197 C 
ATOM     15  C   LIG A   1      -8.068  -2.150 127.734  0.00  0.00    +0.159 C 
ATOM     16  C   LIG A   1      -7.592  -1.163 126.947  0.00  0.00    -0.018 C 
ATOM     17  C   LIG A   1      -6.986   0.120 127.538  0.00  0.00    +0.079 C 
ATOM     18  C   LIG A   1      -7.828   1.296 127.080  0.00  0.00    +0.185 C 
ATOM     19  O   LIG A   1      -7.461   2.648 127.336  0.00  0.00    -0.460 OA
ATOM     20  C   LIG A   1      -8.080   1.283 125.610  0.00  0.00    +0.061 C 
ATOM     21  O   LIG A   1      -9.128  -4.233 127.964  0.00  0.00    -0.289 OA
ENDROOT
BRANCH   5  22
ATOM     22  O   LIG A   1      -8.565   3.715 123.130  0.00  0.00    -0.364 OA
ATOM     23  H   LIG A   1      -7.935   4.332 123.559  0.00  0.00    +0.213 HD
ENDBRANCH   5  22
BRANCH  15  24
ATOM     24  O   LIG A   1      -8.008  -2.087 129.114  0.00  0.00    -0.503 OA
ATOM     25  H   LIG A   1      -7.867  -1.133 129.315  0.00  0.00    +0.292 HD
ENDBRANCH  15  24
TORSDOF 2
ENDMDL
MODEL 8
REMARK VINA RESULT:      -6.9      8.446     10.104
REMARK  Name = NuBBE_2071
REMARK  3 active torsions:
REMARK  status: ('A' for Active; 'I' for Inactive)
REMARK    1  A    between atoms: C_3  and  C_4
REMARK    2  A    between atoms: C_5  and  O_6
REMARK    3  A    between atoms: C_16  and  O_17
REMARK                            x       y       z     vdW  Elec       q    Type
REMARK                         _______ _______ _______ _____ _____    ______ ____
ROOT
ATOM      1  O   LIG A   1     -10.316   6.546 131.366  0.00  0.00    -0.250 OA
ATOM      2  C   LIG A   1      -9.093   6.318 131.424  0.00  0.00    +0.319 C 
ATOM      3  C   LIG A   1      -8.398   5.219 132.163  0.00  0.00    +0.125 C 
ATOM      4  C   LIG A   1      -8.605   4.095 131.074  0.00  0.00    +0.029 C 
ATOM      5  C   LIG A   1      -8.559   4.580 133.567  0.00  0.00    +0.183 C 
ATOM      6  C   LIG A   1      -7.868   5.047 134.884  0.00  0.00    +0.066 C 
ATOM      7  C   LIG A   1      -6.412   5.437 134.650  0.00  0.00    +0.015 C 
ATOM      8  C   LIG A   1      -6.071   5.193 133.150  0.00  0.00    +0.008 C 
ATOM      9  C   LIG A   1      -6.397   3.658 132.998  0.00  0.00    +0.171 C 
ATOM     10  O   LIG A   1      -7.786   3.339 133.418  0.00  0.00    -0.347 OA
ATOM     11  C   LIG A   1      -4.607   5.584 132.741  0.00  0.00    +0.028 C 
ATOM     12  C   LIG A   1      -3.777   5.910 134.005  0.00  0.00    +0.016 C 
ATOM     13  C   LIG A   1      -2.388   6.445 133.761  0.00  0.00    +0.083 C 
ATOM     14  C   LIG A   1      -2.432   7.591 132.796  0.00  0.00    +0.197 C 
ATOM     15  C   LIG A   1      -3.495   7.616 131.740  0.00  0.00    +0.159 C 
ATOM     16  C   LIG A   1      -4.493   6.709 131.696  0.00  0.00    -0.018 C 
ATOM     17  C   LIG A   1      -5.578   6.752 130.608  0.00  0.00    +0.079 C 
ATOM     18  C   LIG A   1      -6.920   6.960 131.285  0.00  0.00    +0.185 C 
ATOM     19  O   LIG A   1      -8.154   6.910 130.575  0.00  0.00    -0.460 OA
ATOM     20  C   LIG A   1      -7.141   6.020 132.422  0.00  0.00    +0.061 C 
ATOM     21  O   LIG A   1      -1.589   8.490 132.796  0.00  0.00    -0.289 OA
ENDROOT
BRANCH   5  22
ATOM     22  O   LIG A   1      -9.925   4.469 133.884  0.00  0.00    -0.364 OA
ATOM     23  H   LIG A   1      -9.954   4.450 134.864  0.00  0.00    +0.213 HD
ENDBRANCH   5  22
BRANCH  15  24
ATOM     24  O   LIG A   1      -3.366   8.615 130.793  0.00  0.00    -0.503 OA
ATOM     25  H   LIG A   1      -3.989   8.361 130.074  0.00  0.00    +0.292 HD
ENDBRANCH  15  24
TORSDOF 2
ENDMDL
MODEL 9
REMARK VINA RESULT:      -6.9      7.250      9.210
REMARK  Name = NuBBE_2071
REMARK  3 active torsions:
REMARK  status: ('A' for Active; 'I' for Inactive)
REMARK    1  A    between atoms: C_3  and  C_4
REMARK    2  A    between atoms: C_5  and  O_6
REMARK    3  A    between atoms: C_16  and  O_17
REMARK                            x       y       z     vdW  Elec       q    Type
REMARK                         _______ _______ _______ _____ _____    ______ ____
ROOT
ATOM      1  O   LIG A   1     -10.362   2.329 131.124  0.00  0.00    -0.250 OA
ATOM      2  C   LIG A   1      -9.270   2.891 131.334  0.00  0.00    +0.319 C 
ATOM      3  C   LIG A   1      -9.022   4.166 132.074  0.00  0.00    +0.125 C 
ATOM      4  C   LIG A   1      -9.039   3.550 133.528  0.00  0.00    +0.029 C 
ATOM      5  C   LIG A   1      -9.716   5.552 132.120  0.00  0.00    +0.183 C 
ATOM      6  C   LIG A   1      -9.419   6.770 131.193  0.00  0.00    +0.066 C 
ATOM      7  C   LIG A   1      -7.924   6.942 130.950  0.00  0.00    +0.015 C 
ATOM      8  C   LIG A   1      -7.163   5.850 131.759  0.00  0.00    +0.008 C 
ATOM      9  C   LIG A   1      -7.652   6.148 133.228  0.00  0.00    +0.171 C 
ATOM     10  O   LIG A   1      -9.133   6.136 133.335  0.00  0.00    -0.347 OA
ATOM     11  C   LIG A   1      -5.604   5.872 131.582  0.00  0.00    +0.028 C 
ATOM     12  C   LIG A   1      -5.181   7.144 130.808  0.00  0.00    +0.016 C 
ATOM     13  C   LIG A   1      -3.722   7.231 130.433  0.00  0.00    +0.083 C 
ATOM     14  C   LIG A   1      -3.283   5.974 129.747  0.00  0.00    +0.197 C 
ATOM     15  C   LIG A   1      -3.937   4.675 130.114  0.00  0.00    +0.159 C 
ATOM     16  C   LIG A   1      -4.994   4.608 130.949  0.00  0.00    -0.018 C 
ATOM     17  C   LIG A   1      -5.656   3.268 131.310  0.00  0.00    +0.079 C 
ATOM     18  C   LIG A   1      -7.096   3.308 130.833  0.00  0.00    +0.185 C 
ATOM     19  O   LIG A   1      -8.031   2.276 131.132  0.00  0.00    -0.460 OA
ATOM     20  C   LIG A   1      -7.807   4.549 131.258  0.00  0.00    +0.061 C 
ATOM     21  O   LIG A   1      -2.358   5.951 128.934  0.00  0.00    -0.289 OA
ENDROOT
BRANCH   5  22
ATOM     22  O   LIG A   1     -11.113   5.384 132.076  0.00  0.00    -0.364 OA
ATOM     23  H   LIG A   1     -11.312   4.753 132.799  0.00  0.00    +0.213 HD
ENDBRANCH   5  22
BRANCH  15  24
ATOM     24  O   LIG A   1      -3.363   3.546 129.560  0.00  0.00    -0.503 OA
ATOM     25  H   LIG A   1      -3.298   2.907 130.305  0.00  0.00    +0.292 HD
ENDBRANCH  15  24
TORSDOF 2
ENDMDL
