MODEL 1
REMARK VINA RESULT:      -5.9      0.000      0.000
REMARK  Name = NuBBE_1331
REMARK  8 active torsions:
REMARK  status: ('A' for Active; 'I' for Inactive)
REMARK    1  A    between atoms: C_2  and  C_3
REMARK    2  A    between atoms: C_3  and  C_18
REMARK    3  A    between atoms: C_4  and  C_6
REMARK    4  A    between atoms: C_6  and  C_7
REMARK    5  A    between atoms: C_10  and  C_14
REMARK    6  A    between atoms: C_14  and  O_15
REMARK    7  A    between atoms: C_14  and  C_16
REMARK    8  A    between atoms: C_14  and  C_17
REMARK                            x       y       z     vdW  Elec       q    Type
REMARK                         _______ _______ _______ _____ _____    ______ ____
ROOT
ATOM      1  C   LIG A   1      -6.694  -2.739 124.357  0.00  0.00    -0.008 C 
ATOM      2  C   LIG A   1      -6.925  -2.083 125.778  0.00  0.00    +0.024 C 
ATOM      3  C   LIG A   1      -6.695  -0.542 125.729  0.00  0.00    +0.015 C 
ATOM      4  C   LIG A   1      -7.328   0.267 124.564  0.00  0.00    +0.021 C 
ATOM      5  C   LIG A   1      -7.168  -0.490 123.232  0.00  0.00    +0.007 C 
ATOM      6  C   LIG A   1      -7.524  -1.973 123.299  0.00  0.00    +0.012 C 
ATOM      7  C   LIG A   1      -7.061  -4.238 124.337  0.00  0.00    +0.016 C 
ENDROOT
BRANCH   2   8
ATOM      8  C   LIG A   1      -8.146  -2.463 126.639  0.00  0.00    -0.076 C 
ATOM      9  C   LIG A   1      -7.890  -2.501 128.129  0.00  0.00    +0.038 C 
ATOM     10  C   LIG A   1      -9.372  -2.794 126.198  0.00  0.00    +0.007 C 
ENDBRANCH   2   8
BRANCH   4  11
ATOM     11  C   LIG A   1      -8.757   0.849 124.826  0.00  0.00    +0.063 C 
ATOM     12  C   LIG A   1      -9.025   1.000 126.334  0.00  0.00    +0.041 C 
ATOM     13  C   LIG A   1      -8.957   2.224 124.168  0.00  0.00    +0.041 C 
BRANCH  11  14
ATOM     14  O   LIG A   1      -9.747  -0.006 124.273  0.00  0.00    -0.389 OA
ATOM     15  H   LIG A   1      -9.578  -0.914 124.576  0.00  0.00    +0.210 HD
ENDBRANCH  11  14
ENDBRANCH   4  11
BRANCH   1  17
ATOM     16  C   LIG A   1      -4.422  -3.731 123.583  0.00  0.00    +0.004 C 
ATOM     17  C   LIG A   1      -5.179  -2.717 124.040  0.00  0.00    -0.027 C 
ENDBRANCH   1  17
TORSDOF 4
ENDMDL
MODEL 2
REMARK VINA RESULT:      -5.6      2.072      4.130
REMARK  Name = NuBBE_1331
REMARK  8 active torsions:
REMARK  status: ('A' for Active; 'I' for Inactive)
REMARK    1  A    between atoms: C_2  and  C_3
REMARK    2  A    between atoms: C_3  and  C_18
REMARK    3  A    between atoms: C_4  and  C_6
REMARK    4  A    between atoms: C_6  and  C_7
REMARK    5  A    between atoms: C_10  and  C_14
REMARK    6  A    between atoms: C_14  and  O_15
REMARK    7  A    between atoms: C_14  and  C_16
REMARK    8  A    between atoms: C_14  and  C_17
REMARK                            x       y       z     vdW  Elec       q    Type
REMARK                         _______ _______ _______ _____ _____    ______ ____
ROOT
ATOM      1  C   LIG A   1      -7.577  -2.060 123.946  0.00  0.00    -0.008 C 
ATOM      2  C   LIG A   1      -7.689  -0.748 124.824  0.00  0.00    +0.024 C 
ATOM      3  C   LIG A   1      -8.684  -0.947 126.006  0.00  0.00    +0.015 C 
ATOM      4  C   LIG A   1      -8.587  -2.249 126.848  0.00  0.00    +0.021 C 
ATOM      5  C   LIG A   1      -8.360  -3.468 125.934  0.00  0.00    +0.007 C 
ATOM      6  C   LIG A   1      -7.286  -3.269 124.866  0.00  0.00    +0.012 C 
ATOM      7  C   LIG A   1      -6.487  -1.946 122.858  0.00  0.00    +0.016 C 
ENDROOT
BRANCH   2   8
ATOM      8  C   LIG A   1      -6.430   0.033 125.247  0.00  0.00    -0.076 C 
ATOM      9  C   LIG A   1      -6.503   1.528 125.033  0.00  0.00    +0.038 C 
ATOM     10  C   LIG A   1      -5.289  -0.481 125.738  0.00  0.00    +0.007 C 
ENDBRANCH   2   8
BRANCH   4  11
ATOM     11  C   LIG A   1      -7.660  -2.187 128.108  0.00  0.00    +0.063 C 
ATOM     12  C   LIG A   1      -7.568  -0.752 128.656  0.00  0.00    +0.041 C 
ATOM     13  C   LIG A   1      -8.156  -3.098 129.243  0.00  0.00    +0.041 C 
BRANCH  11  14
ATOM     14  O   LIG A   1      -6.352  -2.633 127.781  0.00  0.00    -0.389 OA
ATOM     15  H   LIG A   1      -6.185  -3.470 128.245  0.00  0.00    +0.210 HD
ENDBRANCH  11  14
ENDBRANCH   4  11
BRANCH   1  17
ATOM     16  C   LIG A   1      -9.699  -3.311 123.122  0.00  0.00    +0.004 C 
ATOM     17  C   LIG A   1      -8.891  -2.236 123.146  0.00  0.00    -0.027 C 
ENDBRANCH   1  17
TORSDOF 4
ENDMDL
MODEL 3
REMARK VINA RESULT:      -5.5      1.589      3.256
REMARK  Name = NuBBE_1331
REMARK  8 active torsions:
REMARK  status: ('A' for Active; 'I' for Inactive)
REMARK    1  A    between atoms: C_2  and  C_3
REMARK    2  A    between atoms: C_3  and  C_18
REMARK    3  A    between atoms: C_4  and  C_6
REMARK    4  A    between atoms: C_6  and  C_7
REMARK    5  A    between atoms: C_10  and  C_14
REMARK    6  A    between atoms: C_14  and  O_15
REMARK    7  A    between atoms: C_14  and  C_16
REMARK    8  A    between atoms: C_14  and  C_17
REMARK                            x       y       z     vdW  Elec       q    Type
REMARK                         _______ _______ _______ _____ _____    ______ ____
ROOT
ATOM      1  C   LIG A   1      -6.900  -1.526 126.062  0.00  0.00    -0.008 C 
ATOM      2  C   LIG A   1      -8.263  -1.722 125.283  0.00  0.00    +0.024 C 
ATOM      3  C   LIG A   1      -9.284  -0.603 125.649  0.00  0.00    +0.015 C 
ATOM      4  C   LIG A   1      -8.794   0.870 125.678  0.00  0.00    +0.021 C 
ATOM      5  C   LIG A   1      -7.408   0.965 126.343  0.00  0.00    +0.007 C 
ATOM      6  C   LIG A   1      -6.400  -0.076 125.862  0.00  0.00    +0.012 C 
ATOM      7  C   LIG A   1      -5.817  -2.529 125.607  0.00  0.00    +0.016 C 
ENDROOT
BRANCH   2   8
ATOM      8  C   LIG A   1      -8.277  -2.053 123.778  0.00  0.00    -0.076 C 
ATOM      9  C   LIG A   1      -9.362  -3.015 123.346  0.00  0.00    +0.038 C 
ATOM     10  C   LIG A   1      -7.414  -1.612 122.847  0.00  0.00    +0.007 C 
ENDBRANCH   2   8
BRANCH   4  11
ATOM     11  C   LIG A   1      -8.940   1.671 124.341  0.00  0.00    +0.063 C 
ATOM     12  C   LIG A   1      -7.598   1.747 123.592  0.00  0.00    +0.041 C 
ATOM     13  C   LIG A   1      -9.977   1.042 123.394  0.00  0.00    +0.041 C 
BRANCH  11  14
ATOM     14  O   LIG A   1      -9.389   2.992 124.602  0.00  0.00    -0.389 OA
ATOM     15  H   LIG A   1      -8.659   3.609 124.425  0.00  0.00    +0.210 HD
ENDBRANCH  11  14
ENDBRANCH   4  11
BRANCH   1  17
ATOM     16  C   LIG A   1      -7.883  -2.855 128.065  0.00  0.00    +0.004 C 
ATOM     17  C   LIG A   1      -7.126  -1.867 127.554  0.00  0.00    -0.027 C 
ENDBRANCH   1  17
TORSDOF 4
ENDMDL
MODEL 4
REMARK VINA RESULT:      -5.4      1.861      4.518
REMARK  Name = NuBBE_1331
REMARK  8 active torsions:
REMARK  status: ('A' for Active; 'I' for Inactive)
REMARK    1  A    between atoms: C_2  and  C_3
REMARK    2  A    between atoms: C_3  and  C_18
REMARK    3  A    between atoms: C_4  and  C_6
REMARK    4  A    between atoms: C_6  and  C_7
REMARK    5  A    between atoms: C_10  and  C_14
REMARK    6  A    between atoms: C_14  and  O_15
REMARK    7  A    between atoms: C_14  and  C_16
REMARK    8  A    between atoms: C_14  and  C_17
REMARK                            x       y       z     vdW  Elec       q    Type
REMARK                         _______ _______ _______ _____ _____    ______ ____
ROOT
ATOM      1  C   LIG A   1      -9.172   0.920 123.679  0.00  0.00    -0.008 C 
ATOM      2  C   LIG A   1      -7.807   0.132 123.544  0.00  0.00    +0.024 C 
ATOM      3  C   LIG A   1      -6.879   0.404 124.765  0.00  0.00    +0.015 C 
ATOM      4  C   LIG A   1      -7.490   0.343 126.192  0.00  0.00    +0.021 C 
ATOM      5  C   LIG A   1      -8.870   1.025 126.218  0.00  0.00    +0.007 C 
ATOM      6  C   LIG A   1      -9.794   0.633 125.067  0.00  0.00    +0.012 C 
ATOM      7  C   LIG A   1     -10.174   0.553 122.563  0.00  0.00    +0.016 C 
ENDROOT
BRANCH   2   8
ATOM      8  C   LIG A   1      -7.784  -1.347 123.113  0.00  0.00    -0.076 C 
ATOM      9  C   LIG A   1      -6.472  -1.821 122.526  0.00  0.00    +0.038 C 
ATOM     10  C   LIG A   1      -8.804  -2.221 123.170  0.00  0.00    +0.007 C 
ENDBRANCH   2   8
BRANCH   4  11
ATOM     11  C   LIG A   1      -7.427  -1.047 126.908  0.00  0.00    +0.063 C 
ATOM     12  C   LIG A   1      -6.180  -1.838 126.473  0.00  0.00    +0.041 C 
ATOM     13  C   LIG A   1      -7.394  -0.914 128.440  0.00  0.00    +0.041 C 
BRANCH  11  14
ATOM     14  O   LIG A   1      -8.581  -1.815 126.600  0.00  0.00    -0.389 OA
ATOM     15  H   LIG A   1      -8.958  -2.156 127.428  0.00  0.00    +0.210 HD
ENDBRANCH  11  14
ENDBRANCH   4  11
BRANCH   1  17
ATOM     16  C   LIG A   1      -8.295   3.009 122.410  0.00  0.00    +0.004 C 
ATOM     17  C   LIG A   1      -8.901   2.428 123.461  0.00  0.00    -0.027 C 
ENDBRANCH   1  17
TORSDOF 4
ENDMDL
MODEL 5
REMARK VINA RESULT:      -5.4      1.562      4.489
REMARK  Name = NuBBE_1331
REMARK  8 active torsions:
REMARK  status: ('A' for Active; 'I' for Inactive)
REMARK    1  A    between atoms: C_2  and  C_3
REMARK    2  A    between atoms: C_3  and  C_18
REMARK    3  A    between atoms: C_4  and  C_6
REMARK    4  A    between atoms: C_6  and  C_7
REMARK    5  A    between atoms: C_10  and  C_14
REMARK    6  A    between atoms: C_14  and  O_15
REMARK    7  A    between atoms: C_14  and  C_16
REMARK    8  A    between atoms: C_14  and  C_17
REMARK                            x       y       z     vdW  Elec       q    Type
REMARK                         _______ _______ _______ _____ _____    ______ ____
ROOT
ATOM      1  C   LIG A   1      -8.042   0.698 124.560  0.00  0.00    -0.008 C 
ATOM      2  C   LIG A   1      -7.131  -0.560 124.261  0.00  0.00    +0.024 C 
ATOM      3  C   LIG A   1      -6.867  -1.383 125.558  0.00  0.00    +0.015 C 
ATOM      4  C   LIG A   1      -8.065  -1.696 126.496  0.00  0.00    +0.021 C 
ATOM      5  C   LIG A   1      -8.972  -0.460 126.644  0.00  0.00    +0.007 C 
ATOM      6  C   LIG A   1      -9.306   0.244 125.330  0.00  0.00    +0.012 C 
ATOM      7  C   LIG A   1      -8.447   1.448 123.272  0.00  0.00    +0.016 C 
ENDROOT
BRANCH   2   8
ATOM      8  C   LIG A   1      -7.400  -1.464 123.042  0.00  0.00    -0.076 C 
ATOM      9  C   LIG A   1      -6.164  -1.925 122.303  0.00  0.00    +0.038 C 
ATOM     10  C   LIG A   1      -8.600  -1.837 122.564  0.00  0.00    +0.007 C 
ENDBRANCH   2   8
BRANCH   4  11
ATOM     11  C   LIG A   1      -8.820  -3.040 126.224  0.00  0.00    +0.063 C 
ATOM     12  C   LIG A   1      -8.008  -3.950 125.285  0.00  0.00    +0.041 C 
ATOM     13  C   LIG A   1      -9.101  -3.823 127.517  0.00  0.00    +0.041 C 
BRANCH  11  14
ATOM     14  O   LIG A   1     -10.083  -2.785 125.629  0.00  0.00    -0.389 OA
ATOM     15  H   LIG A   1     -10.179  -1.827 125.501  0.00  0.00    +0.210 HD
ENDBRANCH  11  14
ENDBRANCH   4  11
BRANCH   1  17
ATOM     16  C   LIG A   1      -5.960   2.152 125.103  0.00  0.00    +0.004 C 
ATOM     17  C   LIG A   1      -7.214   1.736 125.355  0.00  0.00    -0.027 C 
ENDBRANCH   1  17
TORSDOF 4
ENDMDL
MODEL 6
REMARK VINA RESULT:      -5.3      1.909      2.856
REMARK  Name = NuBBE_1331
REMARK  8 active torsions:
REMARK  status: ('A' for Active; 'I' for Inactive)
REMARK    1  A    between atoms: C_2  and  C_3
REMARK    2  A    between atoms: C_3  and  C_18
REMARK    3  A    between atoms: C_4  and  C_6
REMARK    4  A    between atoms: C_6  and  C_7
REMARK    5  A    between atoms: C_10  and  C_14
REMARK    6  A    between atoms: C_14  and  O_15
REMARK    7  A    between atoms: C_14  and  C_16
REMARK    8  A    between atoms: C_14  and  C_17
REMARK                            x       y       z     vdW  Elec       q    Type
REMARK                         _______ _______ _______ _____ _____    ______ ____
ROOT
ATOM      1  C   LIG A   1      -8.272  -2.416 125.720  0.00  0.00    -0.008 C 
ATOM      2  C   LIG A   1      -6.758  -2.223 126.133  0.00  0.00    +0.024 C 
ATOM      3  C   LIG A   1      -6.021  -1.277 125.137  0.00  0.00    +0.015 C 
ATOM      4  C   LIG A   1      -6.719   0.044 124.711  0.00  0.00    +0.021 C 
ATOM      5  C   LIG A   1      -8.216  -0.200 124.442  0.00  0.00    +0.007 C 
ATOM      6  C   LIG A   1      -8.927  -1.029 125.509  0.00  0.00    +0.012 C 
ATOM      7  C   LIG A   1      -9.067  -3.223 126.769  0.00  0.00    +0.016 C 
ENDROOT
BRANCH   2   8
ATOM      8  C   LIG A   1      -6.362  -1.949 127.597  0.00  0.00    -0.076 C 
ATOM      9  C   LIG A   1      -5.054  -2.571 128.033  0.00  0.00    +0.038 C 
ATOM     10  C   LIG A   1      -7.072  -1.262 128.509  0.00  0.00    +0.007 C 
ENDBRANCH   2   8
BRANCH   4  11
ATOM     11  C   LIG A   1      -6.402   1.303 125.585  0.00  0.00    +0.063 C 
ATOM     12  C   LIG A   1      -5.063   1.140 126.326  0.00  0.00    +0.041 C 
ATOM     13  C   LIG A   1      -6.327   2.591 124.748  0.00  0.00    +0.041 C 
BRANCH  11  14
ATOM     14  O   LIG A   1      -7.428   1.510 126.544  0.00  0.00    -0.389 OA
ATOM     15  H   LIG A   1      -7.948   0.693 126.625  0.00  0.00    +0.210 HD
ENDBRANCH  11  14
ENDBRANCH   4  11
BRANCH   1  17
ATOM     16  C   LIG A   1      -9.377  -3.460 123.615  0.00  0.00    +0.004 C 
ATOM     17  C   LIG A   1      -8.333  -3.291 124.445  0.00  0.00    -0.027 C 
ENDBRANCH   1  17
TORSDOF 4
ENDMDL
MODEL 7
REMARK VINA RESULT:      -5.3      1.906      3.846
REMARK  Name = NuBBE_1331
REMARK  8 active torsions:
REMARK  status: ('A' for Active; 'I' for Inactive)
REMARK    1  A    between atoms: C_2  and  C_3
REMARK    2  A    between atoms: C_3  and  C_18
REMARK    3  A    between atoms: C_4  and  C_6
REMARK    4  A    between atoms: C_6  and  C_7
REMARK    5  A    between atoms: C_10  and  C_14
REMARK    6  A    between atoms: C_14  and  O_15
REMARK    7  A    between atoms: C_14  and  C_16
REMARK    8  A    between atoms: C_14  and  C_17
REMARK                            x       y       z     vdW  Elec       q    Type
REMARK                         _______ _______ _______ _____ _____    ______ ____
ROOT
ATOM      1  C   LIG A   1      -7.497  -1.879 124.029  0.00  0.00    -0.008 C 
ATOM      2  C   LIG A   1      -8.517  -0.695 124.275  0.00  0.00    +0.024 C 
ATOM      3  C   LIG A   1      -9.125  -0.766 125.708  0.00  0.00    +0.015 C 
ATOM      4  C   LIG A   1      -8.172  -1.021 126.908  0.00  0.00    +0.021 C 
ATOM      5  C   LIG A   1      -7.133  -2.101 126.551  0.00  0.00    +0.007 C 
ATOM      6  C   LIG A   1      -6.472  -1.921 125.187  0.00  0.00    +0.012 C 
ATOM      7  C   LIG A   1      -6.765  -1.750 122.675  0.00  0.00    +0.016 C 
ENDROOT
BRANCH   2   8
ATOM      8  C   LIG A   1      -8.172   0.749 123.859  0.00  0.00    -0.076 C 
ATOM      9  C   LIG A   1      -9.305   1.516 123.212  0.00  0.00    +0.038 C 
ATOM     10  C   LIG A   1      -6.981   1.360 123.978  0.00  0.00    +0.007 C 
ENDBRANCH   2   8
BRANCH   4  11
ATOM     11  C   LIG A   1      -7.588   0.252 127.606  0.00  0.00    +0.063 C 
ATOM     12  C   LIG A   1      -8.497   1.473 127.380  0.00  0.00    +0.041 C 
ATOM     13  C   LIG A   1      -7.419   0.061 129.122  0.00  0.00    +0.041 C 
BRANCH  11  14
ATOM     14  O   LIG A   1      -6.297   0.547 127.095  0.00  0.00    -0.389 OA
ATOM     15  H   LIG A   1      -6.377   0.759 126.150  0.00  0.00    +0.210 HD
ENDBRANCH  11  14
ENDBRANCH   4  11
BRANCH   1  17
ATOM     16  C   LIG A   1      -9.529  -3.371 123.404  0.00  0.00    +0.004 C 
ATOM     17  C   LIG A   1      -8.292  -3.201 123.902  0.00  0.00    -0.027 C 
ENDBRANCH   1  17
TORSDOF 4
ENDMDL
MODEL 8
REMARK VINA RESULT:      -5.2      1.421      3.660
REMARK  Name = NuBBE_1331
REMARK  8 active torsions:
REMARK  status: ('A' for Active; 'I' for Inactive)
REMARK    1  A    between atoms: C_2  and  C_3
REMARK    2  A    between atoms: C_3  and  C_18
REMARK    3  A    between atoms: C_4  and  C_6
REMARK    4  A    between atoms: C_6  and  C_7
REMARK    5  A    between atoms: C_10  and  C_14
REMARK    6  A    between atoms: C_14  and  O_15
REMARK    7  A    between atoms: C_14  and  C_16
REMARK    8  A    between atoms: C_14  and  C_17
REMARK                            x       y       z     vdW  Elec       q    Type
REMARK                         _______ _______ _______ _____ _____    ______ ____
ROOT
ATOM      1  C   LIG A   1      -6.970  -1.592 127.604  0.00  0.00    -0.008 C 
ATOM      2  C   LIG A   1      -7.630  -2.305 126.356  0.00  0.00    +0.024 C 
ATOM      3  C   LIG A   1      -8.974  -1.621 125.964  0.00  0.00    +0.015 C 
ATOM      4  C   LIG A   1      -9.025  -0.070 125.889  0.00  0.00    +0.021 C 
ATOM      5  C   LIG A   1      -8.260   0.552 127.072  0.00  0.00    +0.007 C 
ATOM      6  C   LIG A   1      -6.892  -0.069 127.342  0.00  0.00    +0.012 C 
ATOM      7  C   LIG A   1      -5.565  -2.149 127.922  0.00  0.00    +0.016 C 
ENDROOT
BRANCH   2   8
ATOM      8  C   LIG A   1      -6.788  -2.684 125.121  0.00  0.00    -0.076 C 
ATOM      9  C   LIG A   1      -7.336  -3.832 124.302  0.00  0.00    +0.038 C 
ATOM     10  C   LIG A   1      -5.624  -2.132 124.738  0.00  0.00    +0.007 C 
ENDBRANCH   2   8
BRANCH   4  11
ATOM     11  C   LIG A   1      -8.709   0.562 124.493  0.00  0.00    +0.063 C 
ATOM     12  C   LIG A   1      -9.083  -0.400 123.352  0.00  0.00    +0.041 C 
ATOM     13  C   LIG A   1      -9.464   1.883 124.266  0.00  0.00    +0.041 C 
BRANCH  11  14
ATOM     14  O   LIG A   1      -7.327   0.871 124.392  0.00  0.00    -0.389 OA
ATOM     15  H   LIG A   1      -6.814   0.109 124.711  0.00  0.00    +0.210 HD
ENDBRANCH  11  14
ENDBRANCH   4  11
BRANCH   1  17
ATOM     16  C   LIG A   1      -8.115  -3.144 129.343  0.00  0.00    +0.004 C 
ATOM     17  C   LIG A   1      -7.802  -1.927 128.866  0.00  0.00    -0.027 C 
ENDBRANCH   1  17
TORSDOF 4
ENDMDL
MODEL 9
REMARK VINA RESULT:      -5.2      1.854      3.831
REMARK  Name = NuBBE_1331
REMARK  8 active torsions:
REMARK  status: ('A' for Active; 'I' for Inactive)
REMARK    1  A    between atoms: C_2  and  C_3
REMARK    2  A    between atoms: C_3  and  C_18
REMARK    3  A    between atoms: C_4  and  C_6
REMARK    4  A    between atoms: C_6  and  C_7
REMARK    5  A    between atoms: C_10  and  C_14
REMARK    6  A    between atoms: C_14  and  O_15
REMARK    7  A    between atoms: C_14  and  C_16
REMARK    8  A    between atoms: C_14  and  C_17
REMARK                            x       y       z     vdW  Elec       q    Type
REMARK                         _______ _______ _______ _____ _____    ______ ____
ROOT
ATOM      1  C   LIG A   1      -6.548   0.460 125.486  0.00  0.00    -0.008 C 
ATOM      2  C   LIG A   1      -7.565  -0.110 126.555  0.00  0.00    +0.024 C 
ATOM      3  C   LIG A   1      -8.940  -0.443 125.901  0.00  0.00    +0.015 C 
ATOM      4  C   LIG A   1      -8.954  -1.221 124.556  0.00  0.00    +0.021 C 
ATOM      5  C   LIG A   1      -7.859  -0.689 123.613  0.00  0.00    +0.007 C 
ATOM      6  C   LIG A   1      -6.494  -0.495 124.269  0.00  0.00    +0.012 C 
ATOM      7  C   LIG A   1      -5.132   0.657 126.070  0.00  0.00    +0.016 C 
ENDROOT
BRANCH   2   8
ATOM      8  C   LIG A   1      -7.128  -1.183 127.571  0.00  0.00    -0.076 C 
ATOM      9  C   LIG A   1      -7.713  -1.025 128.958  0.00  0.00    +0.038 C 
ATOM     10  C   LIG A   1      -6.270  -2.195 127.358  0.00  0.00    +0.007 C 
ENDBRANCH   2   8
BRANCH   4  11
ATOM     11  C   LIG A   1      -9.032  -2.780 124.664  0.00  0.00    +0.063 C 
ATOM     12  C   LIG A   1      -7.665  -3.424 124.369  0.00  0.00    +0.041 C 
ATOM     13  C   LIG A   1      -9.486  -3.248 126.057  0.00  0.00    +0.041 C 
BRANCH  11  14
ATOM     14  O   LIG A   1      -9.982  -3.292 123.742  0.00  0.00    -0.389 OA
ATOM     15  H   LIG A   1      -9.915  -4.262 123.733  0.00  0.00    +0.210 HD
ENDBRANCH  11  14
ENDBRANCH   4  11
BRANCH   1  17
ATOM     16  C   LIG A   1      -6.384   2.731 124.235  0.00  0.00    +0.004 C 
ATOM     17  C   LIG A   1      -6.993   1.889 125.089  0.00  0.00    -0.027 C 
ENDBRANCH   1  17
TORSDOF 4
ENDMDL
