MODEL 1
REMARK VINA RESULT:      -6.7      0.000      0.000
REMARK  Name = NuBBE_1084
REMARK  18 active torsions:
REMARK  status: ('A' for Active; 'I' for Inactive)
REMARK    1  A    between atoms: C_1  and  C_2
REMARK    2  A    between atoms: C_2  and  C_3
REMARK    3  A    between atoms: C_2  and  C_9
REMARK    4  A    between atoms: C_3  and  C_4
REMARK    5  A    between atoms: C_4  and  C_5
REMARK    6  A    between atoms: C_5  and  C_6
REMARK    7  A    between atoms: C_6  and  C_7
REMARK    8  A    between atoms: C_6  and  C_8
REMARK    9  A    between atoms: C_9  and  C_10
REMARK   10  A    between atoms: C_10  and  C_11
REMARK   11  A    between atoms: C_12  and  O_13
REMARK   12  A    between atoms: C_14  and  C_15
REMARK   13  A    between atoms: C_15  and  C_16
REMARK   14  A    between atoms: C_16  and  C_17
REMARK   15  A    between atoms: C_17  and  C_18
REMARK   16  A    between atoms: C_17  and  C_19
REMARK   17  A    between atoms: C_21  and  C_22
REMARK   18  A    between atoms: C_22  and  O_23
REMARK                            x       y       z     vdW  Elec       q    Type
REMARK                         _______ _______ _______ _____ _____    ______ ____
ROOT
ATOM      1  C   LIG A   1      -7.270   1.191 125.553  0.00  0.00    -0.005 A 
ATOM      2  C   LIG A   1      -6.551   2.152 124.828  0.00  0.00    +0.123 A 
ATOM      3  C   LIG A   1      -7.060   2.722 123.650  0.00  0.00    -0.005 A 
ATOM      4  C   LIG A   1      -8.331   2.317 123.205  0.00  0.00    +0.022 A 
ATOM      5  C   LIG A   1      -9.078   1.390 123.940  0.00  0.00    +0.060 A 
ATOM      6  C   LIG A   1      -8.553   0.843 125.111  0.00  0.00    +0.022 A 
ENDROOT
BRANCH   2   7
ATOM      7  O   LIG A   1      -5.314   2.557 125.246  0.00  0.00    -0.506 OA
ATOM      8  H   LIG A   1      -4.944   3.124 124.549  0.00  0.00    +0.292 HD
ENDBRANCH   2   7
BRANCH   5   9
ATOM      9  C   LIG A   1     -10.428   1.001 123.446  0.00  0.00    +0.337 C 
ATOM     10  O   LIG A   1     -11.466   1.157 124.029  0.00  0.00    -0.245 OA
BRANCH   9  11
ATOM     11  O   LIG A   1     -10.382   0.422 122.223  0.00  0.00    -0.477 OA
ATOM     12  H   LIG A   1     -11.022   0.937 121.694  0.00  0.00    +0.295 HD
ENDBRANCH   9  11
ENDBRANCH   5   9
BRANCH   1  13
ATOM     13  C   LIG A   1      -6.707   0.459 126.747  0.00  0.00    +0.039 C 
BRANCH  13  14
ATOM     14  C   LIG A   1      -5.745  -0.675 126.376  0.00  0.00    +0.008 C 
BRANCH  14  16
ATOM     15  C   LIG A   1      -5.336  -2.462 128.142  0.00  0.00    +0.007 C 
ATOM     16  C   LIG A   1      -6.176  -2.059 126.918  0.00  0.00    -0.014 C 
BRANCH  16  17
ATOM     17  C   LIG A   1      -7.689  -2.160 127.232  0.00  0.00    +0.003 C 
BRANCH  17  18
ATOM     18  C   LIG A   1      -8.408  -3.265 126.436  0.00  0.00    +0.000 C 
BRANCH  18  19
ATOM     19  C   LIG A   1      -7.852  -3.439 125.017  0.00  0.00    +0.003 C 
BRANCH  19  20
ATOM     20  C   LIG A   1      -8.504  -2.498 123.976  0.00  0.00    -0.017 C 
ATOM     21  C   LIG A   1      -7.506  -1.968 122.945  0.00  0.00    +0.007 C 
ATOM     22  C   LIG A   1      -9.639  -3.217 123.239  0.00  0.00    +0.007 C 
ENDBRANCH  19  20
ENDBRANCH  18  19
ENDBRANCH  17  18
ENDBRANCH  16  17
ENDBRANCH  14  16
ENDBRANCH  13  14
ENDBRANCH   1  13
BRANCH   3  23
ATOM     23  C   LIG A   1      -6.287   3.769 122.874  0.00  0.00    +0.039 C 
BRANCH  23  24
ATOM     24  C   LIG A   1      -6.118   3.414 121.383  0.00  0.00    +0.008 C 
BRANCH  24  25
ATOM     25  C   LIG A   1      -5.015   4.232 120.673  0.00  0.00    -0.017 C 
ATOM     26  C   LIG A   1      -5.606   5.153 119.598  0.00  0.00    +0.007 C 
ATOM     27  C   LIG A   1      -4.196   5.081 121.648  0.00  0.00    +0.007 C 
ENDBRANCH  24  25
ENDBRANCH  23  24
ENDBRANCH   3  23
TORSDOF 13
ENDMDL
MODEL 2
REMARK VINA RESULT:      -6.6     10.208     12.379
REMARK  Name = NuBBE_1084
REMARK  18 active torsions:
REMARK  status: ('A' for Active; 'I' for Inactive)
REMARK    1  A    between atoms: C_1  and  C_2
REMARK    2  A    between atoms: C_2  and  C_3
REMARK    3  A    between atoms: C_2  and  C_9
REMARK    4  A    between atoms: C_3  and  C_4
REMARK    5  A    between atoms: C_4  and  C_5
REMARK    6  A    between atoms: C_5  and  C_6
REMARK    7  A    between atoms: C_6  and  C_7
REMARK    8  A    between atoms: C_6  and  C_8
REMARK    9  A    between atoms: C_9  and  C_10
REMARK   10  A    between atoms: C_10  and  C_11
REMARK   11  A    between atoms: C_12  and  O_13
REMARK   12  A    between atoms: C_14  and  C_15
REMARK   13  A    between atoms: C_15  and  C_16
REMARK   14  A    between atoms: C_16  and  C_17
REMARK   15  A    between atoms: C_17  and  C_18
REMARK   16  A    between atoms: C_17  and  C_19
REMARK   17  A    between atoms: C_21  and  C_22
REMARK   18  A    between atoms: C_22  and  O_23
REMARK                            x       y       z     vdW  Elec       q    Type
REMARK                         _______ _______ _______ _____ _____    ______ ____
ROOT
ATOM      1  C   LIG A   1      -8.192   5.488 133.204  0.00  0.00    -0.005 A 
ATOM      2  C   LIG A   1      -9.316   5.857 132.451  0.00  0.00    +0.123 A 
ATOM      3  C   LIG A   1      -9.199   6.600 131.265  0.00  0.00    -0.005 A 
ATOM      4  C   LIG A   1      -7.914   6.967 130.828  0.00  0.00    +0.022 A 
ATOM      5  C   LIG A   1      -6.780   6.571 131.547  0.00  0.00    +0.060 A 
ATOM      6  C   LIG A   1      -6.922   5.826 132.718  0.00  0.00    +0.022 A 
ENDROOT
BRANCH   2   7
ATOM      7  O   LIG A   1     -10.573   5.509 132.861  0.00  0.00    -0.506 OA
ATOM      8  H   LIG A   1     -10.496   4.670 133.346  0.00  0.00    +0.292 HD
ENDBRANCH   2   7
BRANCH   5   9
ATOM      9  C   LIG A   1      -5.435   6.962 131.040  0.00  0.00    +0.337 C 
ATOM     10  O   LIG A   1      -4.385   6.506 131.399  0.00  0.00    -0.245 OA
BRANCH   9  11
ATOM     11  O   LIG A   1      -5.503   7.931 130.097  0.00  0.00    -0.477 OA
ATOM     12  H   LIG A   1      -4.717   7.771 129.539  0.00  0.00    +0.295 HD
ENDBRANCH   9  11
ENDBRANCH   5   9
BRANCH   1  13
ATOM     13  C   LIG A   1      -8.279   4.805 134.547  0.00  0.00    +0.039 C 
BRANCH  13  14
ATOM     14  C   LIG A   1      -6.935   4.713 135.278  0.00  0.00    +0.008 C 
BRANCH  14  16
ATOM     15  C   LIG A   1      -5.403   6.335 136.505  0.00  0.00    +0.007 C 
ATOM     16  C   LIG A   1      -6.804   5.699 136.464  0.00  0.00    -0.014 C 
BRANCH  16  17
ATOM     17  C   LIG A   1      -7.903   6.791 136.489  0.00  0.00    +0.003 C 
BRANCH  17  18
ATOM     18  C   LIG A   1      -8.476   7.051 137.894  0.00  0.00    +0.000 C 
BRANCH  18  19
ATOM     19  C   LIG A   1      -8.078   8.421 138.460  0.00  0.00    +0.003 C 
BRANCH  19  20
ATOM     20  C   LIG A   1      -9.181   9.495 138.317  0.00  0.00    -0.017 C 
ATOM     21  C   LIG A   1     -10.510   8.923 137.819  0.00  0.00    +0.007 C 
ATOM     22  C   LIG A   1      -9.419  10.201 139.656  0.00  0.00    +0.007 C 
ENDBRANCH  19  20
ENDBRANCH  18  19
ENDBRANCH  17  18
ENDBRANCH  16  17
ENDBRANCH  14  16
ENDBRANCH  13  14
ENDBRANCH   1  13
BRANCH   3  23
ATOM     23  C   LIG A   1     -10.414   6.989 130.447  0.00  0.00    +0.039 C 
BRANCH  23  24
ATOM     24  C   LIG A   1     -10.156   6.954 128.927  0.00  0.00    +0.008 C 
BRANCH  24  25
ATOM     25  C   LIG A   1     -10.783   8.145 128.166  0.00  0.00    -0.017 C 
ATOM     26  C   LIG A   1     -11.079   7.781 126.705  0.00  0.00    +0.007 C 
ATOM     27  C   LIG A   1     -12.076   8.641 128.816  0.00  0.00    +0.007 C 
ENDBRANCH  24  25
ENDBRANCH  23  24
ENDBRANCH   3  23
TORSDOF 13
ENDMDL
MODEL 3
REMARK VINA RESULT:      -6.5      2.525      3.710
REMARK  Name = NuBBE_1084
REMARK  18 active torsions:
REMARK  status: ('A' for Active; 'I' for Inactive)
REMARK    1  A    between atoms: C_1  and  C_2
REMARK    2  A    between atoms: C_2  and  C_3
REMARK    3  A    between atoms: C_2  and  C_9
REMARK    4  A    between atoms: C_3  and  C_4
REMARK    5  A    between atoms: C_4  and  C_5
REMARK    6  A    between atoms: C_5  and  C_6
REMARK    7  A    between atoms: C_6  and  C_7
REMARK    8  A    between atoms: C_6  and  C_8
REMARK    9  A    between atoms: C_9  and  C_10
REMARK   10  A    between atoms: C_10  and  C_11
REMARK   11  A    between atoms: C_12  and  O_13
REMARK   12  A    between atoms: C_14  and  C_15
REMARK   13  A    between atoms: C_15  and  C_16
REMARK   14  A    between atoms: C_16  and  C_17
REMARK   15  A    between atoms: C_17  and  C_18
REMARK   16  A    between atoms: C_17  and  C_19
REMARK   17  A    between atoms: C_21  and  C_22
REMARK   18  A    between atoms: C_22  and  O_23
REMARK                            x       y       z     vdW  Elec       q    Type
REMARK                         _______ _______ _______ _____ _____    ______ ____
ROOT
ATOM      1  C   LIG A   1      -6.652   0.377 126.300  0.00  0.00    -0.005 A 
ATOM      2  C   LIG A   1      -5.560   1.255 126.356  0.00  0.00    +0.123 A 
ATOM      3  C   LIG A   1      -5.539   2.455 125.627  0.00  0.00    -0.005 A 
ATOM      4  C   LIG A   1      -6.654   2.777 124.833  0.00  0.00    +0.022 A 
ATOM      5  C   LIG A   1      -7.769   1.931 124.800  0.00  0.00    +0.060 A 
ATOM      6  C   LIG A   1      -7.769   0.747 125.539  0.00  0.00    +0.022 A 
ENDROOT
BRANCH   2   7
ATOM      7  O   LIG A   1      -4.467   0.957 127.122  0.00  0.00    -0.506 OA
ATOM      8  H   LIG A   1      -3.696   0.942 126.532  0.00  0.00    +0.292 HD
ENDBRANCH   2   7
BRANCH   5   9
ATOM      9  C   LIG A   1      -8.939   2.317 123.963  0.00  0.00    +0.337 C 
ATOM     10  O   LIG A   1      -8.900   2.703 122.827  0.00  0.00    -0.245 OA
BRANCH   9  11
ATOM     11  O   LIG A   1     -10.111   2.194 124.631  0.00  0.00    -0.477 OA
ATOM     12  H   LIG A   1      -9.839   2.001 125.550  0.00  0.00    +0.295 HD
ENDBRANCH   9  11
ENDBRANCH   5   9
BRANCH   1  13
ATOM     13  C   LIG A   1      -6.663  -0.979 126.961  0.00  0.00    +0.039 C 
BRANCH  13  14
ATOM     14  C   LIG A   1      -8.071  -1.500 127.274  0.00  0.00    +0.008 C 
BRANCH  14  16
ATOM     15  C   LIG A   1      -8.896  -3.846 127.816  0.00  0.00    +0.007 C 
ATOM     16  C   LIG A   1      -8.347  -2.918 126.719  0.00  0.00    -0.014 C 
BRANCH  16  17
ATOM     17  C   LIG A   1      -9.272  -2.930 125.476  0.00  0.00    +0.003 C 
BRANCH  17  18
ATOM     18  C   LIG A   1      -8.555  -3.361 124.183  0.00  0.00    +0.000 C 
BRANCH  18  19
ATOM     19  C   LIG A   1      -7.049  -3.583 124.378  0.00  0.00    +0.003 C 
BRANCH  19  20
ATOM     20  C   LIG A   1      -6.180  -2.946 123.269  0.00  0.00    -0.017 C 
ATOM     21  C   LIG A   1      -6.440  -1.448 123.094  0.00  0.00    +0.007 C 
ATOM     22  C   LIG A   1      -4.692  -3.156 123.567  0.00  0.00    +0.007 C 
ENDBRANCH  19  20
ENDBRANCH  18  19
ENDBRANCH  17  18
ENDBRANCH  16  17
ENDBRANCH  14  16
ENDBRANCH  13  14
ENDBRANCH   1  13
BRANCH   3  23
ATOM     23  C   LIG A   1      -4.362   3.408 125.697  0.00  0.00    +0.039 C 
BRANCH  23  24
ATOM     24  C   LIG A   1      -4.356   4.268 126.976  0.00  0.00    +0.008 C 
BRANCH  24  25
ATOM     25  C   LIG A   1      -3.049   4.155 127.793  0.00  0.00    -0.017 C 
ATOM     26  C   LIG A   1      -1.991   3.335 127.044  0.00  0.00    +0.007 C 
ATOM     27  C   LIG A   1      -2.453   5.522 128.138  0.00  0.00    +0.007 C 
ENDBRANCH  24  25
ENDBRANCH  23  24
ENDBRANCH   3  23
TORSDOF 13
ENDMDL
MODEL 4
REMARK VINA RESULT:      -6.5      1.497      3.513
REMARK  Name = NuBBE_1084
REMARK  18 active torsions:
REMARK  status: ('A' for Active; 'I' for Inactive)
REMARK    1  A    between atoms: C_1  and  C_2
REMARK    2  A    between atoms: C_2  and  C_3
REMARK    3  A    between atoms: C_2  and  C_9
REMARK    4  A    between atoms: C_3  and  C_4
REMARK    5  A    between atoms: C_4  and  C_5
REMARK    6  A    between atoms: C_5  and  C_6
REMARK    7  A    between atoms: C_6  and  C_7
REMARK    8  A    between atoms: C_6  and  C_8
REMARK    9  A    between atoms: C_9  and  C_10
REMARK   10  A    between atoms: C_10  and  C_11
REMARK   11  A    between atoms: C_12  and  O_13
REMARK   12  A    between atoms: C_14  and  C_15
REMARK   13  A    between atoms: C_15  and  C_16
REMARK   14  A    between atoms: C_16  and  C_17
REMARK   15  A    between atoms: C_17  and  C_18
REMARK   16  A    between atoms: C_17  and  C_19
REMARK   17  A    between atoms: C_21  and  C_22
REMARK   18  A    between atoms: C_22  and  O_23
REMARK                            x       y       z     vdW  Elec       q    Type
REMARK                         _______ _______ _______ _____ _____    ______ ____
ROOT
ATOM      1  C   LIG A   1      -8.076   0.860 125.040  0.00  0.00    -0.005 A 
ATOM      2  C   LIG A   1      -8.334   1.463 123.799  0.00  0.00    +0.123 A 
ATOM      3  C   LIG A   1      -7.516   2.485 123.292  0.00  0.00    -0.005 A 
ATOM      4  C   LIG A   1      -6.407   2.897 124.053  0.00  0.00    +0.022 A 
ATOM      5  C   LIG A   1      -6.114   2.277 125.273  0.00  0.00    +0.060 A 
ATOM      6  C   LIG A   1      -6.938   1.257 125.752  0.00  0.00    +0.022 A 
ENDROOT
BRANCH   2   7
ATOM      7  O   LIG A   1      -9.407   1.074 123.047  0.00  0.00    -0.506 OA
ATOM      8  H   LIG A   1      -9.757   0.259 123.443  0.00  0.00    +0.292 HD
ENDBRANCH   2   7
BRANCH   5   9
ATOM      9  C   LIG A   1      -4.920   2.727 126.039  0.00  0.00    +0.337 C 
ATOM     10  O   LIG A   1      -3.966   2.055 126.323  0.00  0.00    -0.245 OA
BRANCH   9  11
ATOM     11  O   LIG A   1      -5.009   4.026 126.414  0.00  0.00    -0.477 OA
ATOM     12  H   LIG A   1      -5.818   4.344 125.967  0.00  0.00    +0.295 HD
ENDBRANCH   9  11
ENDBRANCH   5   9
BRANCH   1  13
ATOM     13  C   LIG A   1      -8.999  -0.148 125.681  0.00  0.00    +0.039 C 
BRANCH  13  14
ATOM     14  C   LIG A   1      -8.327  -0.989 126.772  0.00  0.00    +0.008 C 
BRANCH  14  16
ATOM     15  C   LIG A   1      -8.659  -3.313 127.757  0.00  0.00    +0.007 C 
ATOM     16  C   LIG A   1      -8.342  -2.510 126.484  0.00  0.00    -0.014 C 
BRANCH  16  17
ATOM     17  C   LIG A   1      -9.292  -2.914 125.329  0.00  0.00    +0.003 C 
BRANCH  17  18
ATOM     18  C   LIG A   1      -8.557  -3.482 124.101  0.00  0.00    +0.000 C 
BRANCH  18  19
ATOM     19  C   LIG A   1      -7.056  -3.689 124.344  0.00  0.00    +0.003 C 
BRANCH  19  20
ATOM     20  C   LIG A   1      -6.160  -2.681 123.588  0.00  0.00    -0.017 C 
ATOM     21  C   LIG A   1      -6.954  -1.753 122.665  0.00  0.00    +0.007 C 
ATOM     22  C   LIG A   1      -5.361  -1.826 124.577  0.00  0.00    +0.007 C 
ENDBRANCH  19  20
ENDBRANCH  18  19
ENDBRANCH  17  18
ENDBRANCH  16  17
ENDBRANCH  14  16
ENDBRANCH  13  14
ENDBRANCH   1  13
BRANCH   3  23
ATOM     23  C   LIG A   1      -7.789   3.128 121.947  0.00  0.00    +0.039 C 
BRANCH  23  24
ATOM     24  C   LIG A   1      -6.506   3.420 121.145  0.00  0.00    +0.008 C 
BRANCH  24  25
ATOM     25  C   LIG A   1      -6.635   4.629 120.189  0.00  0.00    -0.017 C 
ATOM     26  C   LIG A   1      -5.258   5.178 119.794  0.00  0.00    +0.007 C 
ATOM     27  C   LIG A   1      -7.408   4.288 118.914  0.00  0.00    +0.007 C 
ENDBRANCH  24  25
ENDBRANCH  23  24
ENDBRANCH   3  23
TORSDOF 13
ENDMDL
MODEL 5
REMARK VINA RESULT:      -6.4      2.597      4.155
REMARK  Name = NuBBE_1084
REMARK  18 active torsions:
REMARK  status: ('A' for Active; 'I' for Inactive)
REMARK    1  A    between atoms: C_1  and  C_2
REMARK    2  A    between atoms: C_2  and  C_3
REMARK    3  A    between atoms: C_2  and  C_9
REMARK    4  A    between atoms: C_3  and  C_4
REMARK    5  A    between atoms: C_4  and  C_5
REMARK    6  A    between atoms: C_5  and  C_6
REMARK    7  A    between atoms: C_6  and  C_7
REMARK    8  A    between atoms: C_6  and  C_8
REMARK    9  A    between atoms: C_9  and  C_10
REMARK   10  A    between atoms: C_10  and  C_11
REMARK   11  A    between atoms: C_12  and  O_13
REMARK   12  A    between atoms: C_14  and  C_15
REMARK   13  A    between atoms: C_15  and  C_16
REMARK   14  A    between atoms: C_16  and  C_17
REMARK   15  A    between atoms: C_17  and  C_18
REMARK   16  A    between atoms: C_17  and  C_19
REMARK   17  A    between atoms: C_21  and  C_22
REMARK   18  A    between atoms: C_22  and  O_23
REMARK                            x       y       z     vdW  Elec       q    Type
REMARK                         _______ _______ _______ _____ _____    ______ ____
ROOT
ATOM      1  C   LIG A   1      -7.606   1.311 124.959  0.00  0.00    -0.005 A 
ATOM      2  C   LIG A   1      -6.805   2.080 125.817  0.00  0.00    +0.123 A 
ATOM      3  C   LIG A   1      -6.164   3.249 125.377  0.00  0.00    -0.005 A 
ATOM      4  C   LIG A   1      -6.348   3.654 124.043  0.00  0.00    +0.022 A 
ATOM      5  C   LIG A   1      -7.177   2.919 123.187  0.00  0.00    +0.060 A 
ATOM      6  C   LIG A   1      -7.810   1.764 123.650  0.00  0.00    +0.022 A 
ENDROOT
BRANCH   2   7
ATOM      7  O   LIG A   1      -6.616   1.701 127.117  0.00  0.00    -0.506 OA
ATOM      8  H   LIG A   1      -7.494   1.586 127.515  0.00  0.00    +0.292 HD
ENDBRANCH   2   7
BRANCH   5   9
ATOM      9  C   LIG A   1      -7.363   3.391 121.787  0.00  0.00    +0.337 C 
ATOM     10  O   LIG A   1      -6.525   3.405 120.928  0.00  0.00    -0.245 OA
BRANCH   9  11
ATOM     11  O   LIG A   1      -8.623   3.831 121.556  0.00  0.00    -0.477 OA
ATOM     12  H   LIG A   1      -9.182   3.238 122.095  0.00  0.00    +0.295 HD
ENDBRANCH   9  11
ENDBRANCH   5   9
BRANCH   1  13
ATOM     13  C   LIG A   1      -8.206  -0.017 125.352  0.00  0.00    +0.039 C 
BRANCH  13  14
ATOM     14  C   LIG A   1      -8.879  -0.755 124.189  0.00  0.00    +0.008 C 
BRANCH  14  16
ATOM     15  C   LIG A   1      -9.285  -3.081 123.235  0.00  0.00    +0.007 C 
ATOM     16  C   LIG A   1      -9.244  -2.224 124.512  0.00  0.00    -0.014 C 
BRANCH  16  17
ATOM     17  C   LIG A   1      -8.327  -2.873 125.580  0.00  0.00    +0.003 C 
BRANCH  17  18
ATOM     18  C   LIG A   1      -7.094  -3.575 124.983  0.00  0.00    +0.000 C 
BRANCH  18  19
ATOM     19  C   LIG A   1      -5.831  -2.705 125.025  0.00  0.00    +0.003 C 
BRANCH  19  20
ATOM     20  C   LIG A   1      -4.965  -2.806 123.748  0.00  0.00    -0.017 C 
ATOM     21  C   LIG A   1      -4.471  -4.229 123.474  0.00  0.00    +0.007 C 
ATOM     22  C   LIG A   1      -5.749  -2.314 122.527  0.00  0.00    +0.007 C 
ENDBRANCH  19  20
ENDBRANCH  18  19
ENDBRANCH  17  18
ENDBRANCH  16  17
ENDBRANCH  14  16
ENDBRANCH  13  14
ENDBRANCH   1  13
BRANCH   3  23
ATOM     23  C   LIG A   1      -5.308   4.085 126.308  0.00  0.00    +0.039 C 
BRANCH  23  24
ATOM     24  C   LIG A   1      -3.802   3.993 125.990  0.00  0.00    +0.008 C 
BRANCH  24  25
ATOM     25  C   LIG A   1      -3.082   2.844 126.733  0.00  0.00    -0.017 C 
ATOM     26  C   LIG A   1      -1.559   2.952 126.587  0.00  0.00    +0.007 C 
ATOM     27  C   LIG A   1      -3.427   2.802 128.223  0.00  0.00    +0.007 C 
ENDBRANCH  24  25
ENDBRANCH  23  24
ENDBRANCH   3  23
TORSDOF 13
ENDMDL
MODEL 6
REMARK VINA RESULT:      -6.3      2.593      4.716
REMARK  Name = NuBBE_1084
REMARK  18 active torsions:
REMARK  status: ('A' for Active; 'I' for Inactive)
REMARK    1  A    between atoms: C_1  and  C_2
REMARK    2  A    between atoms: C_2  and  C_3
REMARK    3  A    between atoms: C_2  and  C_9
REMARK    4  A    between atoms: C_3  and  C_4
REMARK    5  A    between atoms: C_4  and  C_5
REMARK    6  A    between atoms: C_5  and  C_6
REMARK    7  A    between atoms: C_6  and  C_7
REMARK    8  A    between atoms: C_6  and  C_8
REMARK    9  A    between atoms: C_9  and  C_10
REMARK   10  A    between atoms: C_10  and  C_11
REMARK   11  A    between atoms: C_12  and  O_13
REMARK   12  A    between atoms: C_14  and  C_15
REMARK   13  A    between atoms: C_15  and  C_16
REMARK   14  A    between atoms: C_16  and  C_17
REMARK   15  A    between atoms: C_17  and  C_18
REMARK   16  A    between atoms: C_17  and  C_19
REMARK   17  A    between atoms: C_21  and  C_22
REMARK   18  A    between atoms: C_22  and  O_23
REMARK                            x       y       z     vdW  Elec       q    Type
REMARK                         _______ _______ _______ _____ _____    ______ ____
ROOT
ATOM      1  C   LIG A   1      -7.924   2.628 123.956  0.00  0.00    -0.005 A 
ATOM      2  C   LIG A   1      -7.172   2.884 125.112  0.00  0.00    +0.123 A 
ATOM      3  C   LIG A   1      -5.930   3.536 125.055  0.00  0.00    -0.005 A 
ATOM      4  C   LIG A   1      -5.446   3.948 123.801  0.00  0.00    +0.022 A 
ATOM      5  C   LIG A   1      -6.204   3.737 122.644  0.00  0.00    +0.060 A 
ATOM      6  C   LIG A   1      -7.439   3.093 122.727  0.00  0.00    +0.022 A 
ENDROOT
BRANCH   2   7
ATOM      7  O   LIG A   1      -7.628   2.489 126.339  0.00  0.00    -0.506 OA
ATOM      8  H   LIG A   1      -7.012   2.842 127.003  0.00  0.00    +0.292 HD
ENDBRANCH   2   7
BRANCH   5   9
ATOM      9  C   LIG A   1      -5.666   4.206 121.337  0.00  0.00    +0.337 C 
ATOM     10  O   LIG A   1      -5.973   3.788 120.254  0.00  0.00    -0.245 OA
BRANCH   9  11
ATOM     11  O   LIG A   1      -4.749   5.192 121.482  0.00  0.00    -0.477 OA
ATOM     12  H   LIG A   1      -4.481   5.402 120.566  0.00  0.00    +0.295 HD
ENDBRANCH   9  11
ENDBRANCH   5   9
BRANCH   1  13
ATOM     13  C   LIG A   1      -9.198   1.818 123.955  0.00  0.00    +0.039 C 
BRANCH  13  14
ATOM     14  C   LIG A   1      -9.000   0.362 124.393  0.00  0.00    +0.008 C 
BRANCH  14  16
ATOM     15  C   LIG A   1      -6.903  -0.573 123.294  0.00  0.00    +0.007 C 
ATOM     16  C   LIG A   1      -8.441  -0.553 123.277  0.00  0.00    -0.014 C 
BRANCH  16  17
ATOM     17  C   LIG A   1      -9.009  -1.993 123.310  0.00  0.00    +0.003 C 
BRANCH  17  18
ATOM     18  C   LIG A   1      -7.990  -3.044 123.786  0.00  0.00    +0.000 C 
BRANCH  18  19
ATOM     19  C   LIG A   1      -8.459  -3.815 125.027  0.00  0.00    +0.003 C 
BRANCH  19  20
ATOM     20  C   LIG A   1      -8.491  -2.958 126.314  0.00  0.00    -0.017 C 
ATOM     21  C   LIG A   1      -8.892  -3.760 127.554  0.00  0.00    +0.007 C 
ATOM     22  C   LIG A   1      -7.124  -2.314 126.564  0.00  0.00    +0.007 C 
ENDBRANCH  19  20
ENDBRANCH  18  19
ENDBRANCH  17  18
ENDBRANCH  16  17
ENDBRANCH  14  16
ENDBRANCH  13  14
ENDBRANCH   1  13
BRANCH   3  23
ATOM     23  C   LIG A   1      -5.124   3.820 126.306  0.00  0.00    +0.039 C 
BRANCH  23  24
ATOM     24  C   LIG A   1      -4.085   2.725 126.619  0.00  0.00    +0.008 C 
BRANCH  24  25
ATOM     25  C   LIG A   1      -2.807   3.262 127.304  0.00  0.00    -0.017 C 
ATOM     26  C   LIG A   1      -1.559   2.986 126.456  0.00  0.00    +0.007 C 
ATOM     27  C   LIG A   1      -2.881   4.763 127.589  0.00  0.00    +0.007 C 
ENDBRANCH  24  25
ENDBRANCH  23  24
ENDBRANCH   3  23
TORSDOF 13
ENDMDL
MODEL 7
REMARK VINA RESULT:      -6.3      3.275      4.949
REMARK  Name = NuBBE_1084
REMARK  18 active torsions:
REMARK  status: ('A' for Active; 'I' for Inactive)
REMARK    1  A    between atoms: C_1  and  C_2
REMARK    2  A    between atoms: C_2  and  C_3
REMARK    3  A    between atoms: C_2  and  C_9
REMARK    4  A    between atoms: C_3  and  C_4
REMARK    5  A    between atoms: C_4  and  C_5
REMARK    6  A    between atoms: C_5  and  C_6
REMARK    7  A    between atoms: C_6  and  C_7
REMARK    8  A    between atoms: C_6  and  C_8
REMARK    9  A    between atoms: C_9  and  C_10
REMARK   10  A    between atoms: C_10  and  C_11
REMARK   11  A    between atoms: C_12  and  O_13
REMARK   12  A    between atoms: C_14  and  C_15
REMARK   13  A    between atoms: C_15  and  C_16
REMARK   14  A    between atoms: C_16  and  C_17
REMARK   15  A    between atoms: C_17  and  C_18
REMARK   16  A    between atoms: C_17  and  C_19
REMARK   17  A    between atoms: C_21  and  C_22
REMARK   18  A    between atoms: C_22  and  O_23
REMARK                            x       y       z     vdW  Elec       q    Type
REMARK                         _______ _______ _______ _____ _____    ______ ____
ROOT
ATOM      1  C   LIG A   1      -5.836   1.391 125.904  0.00  0.00    -0.005 A 
ATOM      2  C   LIG A   1      -4.860   1.657 126.876  0.00  0.00    +0.123 A 
ATOM      3  C   LIG A   1      -4.156   2.872 126.903  0.00  0.00    -0.005 A 
ATOM      4  C   LIG A   1      -4.456   3.842 125.930  0.00  0.00    +0.022 A 
ATOM      5  C   LIG A   1      -5.456   3.608 124.979  0.00  0.00    +0.060 A 
ATOM      6  C   LIG A   1      -6.147   2.395 124.978  0.00  0.00    +0.022 A 
ENDROOT
BRANCH   2   7
ATOM      7  O   LIG A   1      -4.556   0.725 127.829  0.00  0.00    -0.506 OA
ATOM      8  H   LIG A   1      -5.060   0.954 128.628  0.00  0.00    +0.292 HD
ENDBRANCH   2   7
BRANCH   5   9
ATOM      9  C   LIG A   1      -5.759   4.668 123.978  0.00  0.00    +0.337 C 
ATOM     10  O   LIG A   1      -5.555   4.605 122.797  0.00  0.00    -0.245 OA
BRANCH   9  11
ATOM     11  O   LIG A   1      -6.307   5.769 124.545  0.00  0.00    -0.477 OA
ATOM     12  H   LIG A   1      -6.568   5.468 125.438  0.00  0.00    +0.295 HD
ENDBRANCH   9  11
ENDBRANCH   5   9
BRANCH   1  13
ATOM     13  C   LIG A   1      -6.522   0.054 125.759  0.00  0.00    +0.039 C 
BRANCH  13  14
ATOM     14  C   LIG A   1      -6.028  -0.763 124.560  0.00  0.00    +0.008 C 
BRANCH  14  16
ATOM     15  C   LIG A   1      -5.525  -2.380 126.460  0.00  0.00    +0.007 C 
ATOM     16  C   LIG A   1      -5.533  -2.181 124.935  0.00  0.00    -0.014 C 
BRANCH  16  17
ATOM     17  C   LIG A   1      -6.318  -3.319 124.236  0.00  0.00    +0.003 C 
BRANCH  17  18
ATOM     18  C   LIG A   1      -7.782  -2.953 123.927  0.00  0.00    +0.000 C 
BRANCH  18  19
ATOM     19  C   LIG A   1      -8.790  -3.857 124.649  0.00  0.00    +0.003 C 
BRANCH  19  20
ATOM     20  C   LIG A   1      -9.475  -3.178 125.858  0.00  0.00    -0.017 C 
ATOM     21  C   LIG A   1      -8.894  -3.625 127.201  0.00  0.00    +0.007 C 
ATOM     22  C   LIG A   1      -9.361  -1.654 125.754  0.00  0.00    +0.007 C 
ENDBRANCH  19  20
ENDBRANCH  18  19
ENDBRANCH  17  18
ENDBRANCH  16  17
ENDBRANCH  14  16
ENDBRANCH  13  14
ENDBRANCH   1  13
BRANCH   3  23
ATOM     23  C   LIG A   1      -3.110   3.162 127.960  0.00  0.00    +0.039 C 
BRANCH  23  24
ATOM     24  C   LIG A   1      -2.312   4.451 127.683  0.00  0.00    +0.008 C 
BRANCH  24  25
ATOM     25  C   LIG A   1      -2.518   5.549 128.751  0.00  0.00    -0.017 C 
ATOM     26  C   LIG A   1      -3.421   6.674 128.230  0.00  0.00    +0.007 C 
ATOM     27  C   LIG A   1      -3.122   5.001 130.046  0.00  0.00    +0.007 C 
ENDBRANCH  24  25
ENDBRANCH  23  24
ENDBRANCH   3  23
TORSDOF 13
ENDMDL
MODEL 8
REMARK VINA RESULT:      -6.1      2.705      4.641
REMARK  Name = NuBBE_1084
REMARK  18 active torsions:
REMARK  status: ('A' for Active; 'I' for Inactive)
REMARK    1  A    between atoms: C_1  and  C_2
REMARK    2  A    between atoms: C_2  and  C_3
REMARK    3  A    between atoms: C_2  and  C_9
REMARK    4  A    between atoms: C_3  and  C_4
REMARK    5  A    between atoms: C_4  and  C_5
REMARK    6  A    between atoms: C_5  and  C_6
REMARK    7  A    between atoms: C_6  and  C_7
REMARK    8  A    between atoms: C_6  and  C_8
REMARK    9  A    between atoms: C_9  and  C_10
REMARK   10  A    between atoms: C_10  and  C_11
REMARK   11  A    between atoms: C_12  and  O_13
REMARK   12  A    between atoms: C_14  and  C_15
REMARK   13  A    between atoms: C_15  and  C_16
REMARK   14  A    between atoms: C_16  and  C_17
REMARK   15  A    between atoms: C_17  and  C_18
REMARK   16  A    between atoms: C_17  and  C_19
REMARK   17  A    between atoms: C_21  and  C_22
REMARK   18  A    between atoms: C_22  and  O_23
REMARK                            x       y       z     vdW  Elec       q    Type
REMARK                         _______ _______ _______ _____ _____    ______ ____
ROOT
ATOM      1  C   LIG A   1      -7.009   0.377 124.736  0.00  0.00    -0.005 A 
ATOM      2  C   LIG A   1      -6.213   0.998 125.710  0.00  0.00    +0.123 A 
ATOM      3  C   LIG A   1      -5.744   2.312 125.551  0.00  0.00    -0.005 A 
ATOM      4  C   LIG A   1      -6.101   3.015 124.387  0.00  0.00    +0.022 A 
ATOM      5  C   LIG A   1      -6.929   2.423 123.427  0.00  0.00    +0.060 A 
ATOM      6  C   LIG A   1      -7.388   1.118 123.610  0.00  0.00    +0.022 A 
ENDROOT
BRANCH   2   7
ATOM      7  O   LIG A   1      -5.856   0.328 126.847  0.00  0.00    -0.506 OA
ATOM      8  H   LIG A   1      -5.668  -0.591 126.594  0.00  0.00    +0.292 HD
ENDBRANCH   2   7
BRANCH   5   9
ATOM      9  C   LIG A   1      -7.302   3.208 122.217  0.00  0.00    +0.337 C 
ATOM     10  O   LIG A   1      -6.587   3.451 121.284  0.00  0.00    -0.245 OA
BRANCH   9  11
ATOM     11  O   LIG A   1      -8.580   3.652 122.265  0.00  0.00    -0.477 OA
ATOM     12  H   LIG A   1      -8.694   3.939 123.193  0.00  0.00    +0.295 HD
ENDBRANCH   9  11
ENDBRANCH   5   9
BRANCH   1  13
ATOM     13  C   LIG A   1      -7.425  -1.073 124.804  0.00  0.00    +0.039 C 
BRANCH  13  14
ATOM     14  C   LIG A   1      -8.680  -1.313 125.651  0.00  0.00    +0.008 C 
BRANCH  14  16
ATOM     15  C   LIG A   1      -8.618  -3.512 124.370  0.00  0.00    +0.007 C 
ATOM     16  C   LIG A   1      -9.213  -2.764 125.576  0.00  0.00    -0.014 C 
BRANCH  16  17
ATOM     17  C   LIG A   1      -9.003  -3.572 126.881  0.00  0.00    +0.003 C 
BRANCH  17  18
ATOM     18  C   LIG A   1      -8.302  -2.770 127.993  0.00  0.00    +0.000 C 
BRANCH  18  19
ATOM     19  C   LIG A   1      -7.858  -3.644 129.173  0.00  0.00    +0.003 C 
BRANCH  19  20
ATOM     20  C   LIG A   1      -6.488  -3.239 129.764  0.00  0.00    -0.017 C 
ATOM     21  C   LIG A   1      -5.765  -4.402 130.447  0.00  0.00    +0.007 C 
ATOM     22  C   LIG A   1      -5.579  -2.668 128.670  0.00  0.00    +0.007 C 
ENDBRANCH  19  20
ENDBRANCH  18  19
ENDBRANCH  17  18
ENDBRANCH  16  17
ENDBRANCH  14  16
ENDBRANCH  13  14
ENDBRANCH   1  13
BRANCH   3  23
ATOM     23  C   LIG A   1      -4.892   2.985 126.608  0.00  0.00    +0.039 C 
BRANCH  23  24
ATOM     24  C   LIG A   1      -3.806   3.903 126.015  0.00  0.00    +0.008 C 
BRANCH  24  25
ATOM     25  C   LIG A   1      -2.552   4.039 126.910  0.00  0.00    -0.017 C 
ATOM     26  C   LIG A   1      -2.923   4.020 128.398  0.00  0.00    +0.007 C 
ATOM     27  C   LIG A   1      -1.525   2.935 126.649  0.00  0.00    +0.007 C 
ENDBRANCH  24  25
ENDBRANCH  23  24
ENDBRANCH   3  23
TORSDOF 13
ENDMDL
MODEL 9
REMARK VINA RESULT:      -6.1      3.454      4.948
REMARK  Name = NuBBE_1084
REMARK  18 active torsions:
REMARK  status: ('A' for Active; 'I' for Inactive)
REMARK    1  A    between atoms: C_1  and  C_2
REMARK    2  A    between atoms: C_2  and  C_3
REMARK    3  A    between atoms: C_2  and  C_9
REMARK    4  A    between atoms: C_3  and  C_4
REMARK    5  A    between atoms: C_4  and  C_5
REMARK    6  A    between atoms: C_5  and  C_6
REMARK    7  A    between atoms: C_6  and  C_7
REMARK    8  A    between atoms: C_6  and  C_8
REMARK    9  A    between atoms: C_9  and  C_10
REMARK   10  A    between atoms: C_10  and  C_11
REMARK   11  A    between atoms: C_12  and  O_13
REMARK   12  A    between atoms: C_14  and  C_15
REMARK   13  A    between atoms: C_15  and  C_16
REMARK   14  A    between atoms: C_16  and  C_17
REMARK   15  A    between atoms: C_17  and  C_18
REMARK   16  A    between atoms: C_17  and  C_19
REMARK   17  A    between atoms: C_21  and  C_22
REMARK   18  A    between atoms: C_22  and  O_23
REMARK                            x       y       z     vdW  Elec       q    Type
REMARK                         _______ _______ _______ _____ _____    ______ ____
ROOT
ATOM      1  C   LIG A   1      -5.468   1.109 126.322  0.00  0.00    -0.005 A 
ATOM      2  C   LIG A   1      -4.659   1.682 127.314  0.00  0.00    +0.123 A 
ATOM      3  C   LIG A   1      -4.249   3.023 127.249  0.00  0.00    -0.005 A 
ATOM      4  C   LIG A   1      -4.679   3.804 126.161  0.00  0.00    +0.022 A 
ATOM      5  C   LIG A   1      -5.520   3.258 125.185  0.00  0.00    +0.060 A 
ATOM      6  C   LIG A   1      -5.920   1.923 125.276  0.00  0.00    +0.022 A 
ENDROOT
BRANCH   2   7
ATOM      7  O   LIG A   1      -4.232   0.937 128.379  0.00  0.00    -0.506 OA
ATOM      8  H   LIG A   1      -4.545   0.029 128.239  0.00  0.00    +0.292 HD
ENDBRANCH   2   7
BRANCH   5   9
ATOM      9  C   LIG A   1      -5.971   4.122 124.059  0.00  0.00    +0.337 C 
ATOM     10  O   LIG A   1      -6.029   3.804 122.903  0.00  0.00    -0.245 OA
BRANCH   9  11
ATOM     11  O   LIG A   1      -6.320   5.363 124.472  0.00  0.00    -0.477 OA
ATOM     12  H   LIG A   1      -5.581   5.635 125.051  0.00  0.00    +0.295 HD
ENDBRANCH   9  11
ENDBRANCH   5   9
BRANCH   1  13
ATOM     13  C   LIG A   1      -5.824  -0.357 126.284  0.00  0.00    +0.039 C 
BRANCH  13  14
ATOM     14  C   LIG A   1      -7.141  -0.689 126.994  0.00  0.00    +0.008 C 
BRANCH  14  16
ATOM     15  C   LIG A   1      -8.172  -2.795 127.986  0.00  0.00    +0.007 C 
ATOM     16  C   LIG A   1      -7.663  -2.116 126.702  0.00  0.00    -0.014 C 
BRANCH  16  17
ATOM     17  C   LIG A   1      -8.740  -2.169 125.590  0.00  0.00    +0.003 C 
BRANCH  17  18
ATOM     18  C   LIG A   1      -8.228  -2.773 124.269  0.00  0.00    +0.000 C 
BRANCH  18  19
ATOM     19  C   LIG A   1      -6.905  -3.534 124.432  0.00  0.00    +0.003 C 
BRANCH  19  20
ATOM     20  C   LIG A   1      -5.686  -2.792 123.838  0.00  0.00    -0.017 C 
ATOM     21  C   LIG A   1      -4.530  -3.730 123.485  0.00  0.00    +0.007 C 
ATOM     22  C   LIG A   1      -6.091  -2.015 122.581  0.00  0.00    +0.007 C 
ENDBRANCH  19  20
ENDBRANCH  18  19
ENDBRANCH  17  18
ENDBRANCH  16  17
ENDBRANCH  14  16
ENDBRANCH  13  14
ENDBRANCH   1  13
BRANCH   3  23
ATOM     23  C   LIG A   1      -3.383   3.644 128.327  0.00  0.00    +0.039 C 
BRANCH  23  24
ATOM     24  C   LIG A   1      -2.589   4.869 127.834  0.00  0.00    +0.008 C 
BRANCH  24  25
ATOM     25  C   LIG A   1      -2.381   5.950 128.920  0.00  0.00    -0.017 C 
ATOM     26  C   LIG A   1      -3.146   7.236 128.584  0.00  0.00    +0.007 C 
ATOM     27  C   LIG A   1      -2.812   5.475 130.309  0.00  0.00    +0.007 C 
ENDBRANCH  24  25
ENDBRANCH  23  24
ENDBRANCH   3  23
TORSDOF 13
ENDMDL
