MODEL 1
REMARK VINA RESULT:      -7.5      0.000      0.000
REMARK  Name = NuBBE_2316
REMARK  11 active torsions:
REMARK  status: ('A' for Active; 'I' for Inactive)
REMARK    1  A    between atoms: C_1  and  C_30
REMARK    2  A    between atoms: C_3  and  C_4
REMARK    3  A    between atoms: C_6  and  O_13
REMARK    4  A    between atoms: O_13  and  C_14
REMARK    5  A    between atoms: C_19  and  O_20
REMARK    6  A    between atoms: O_20  and  C_21
REMARK    7  A    between atoms: C_22  and  O_26
REMARK    8  A    between atoms: C_23  and  O_24
REMARK    9  A    between atoms: O_24  and  C_25
REMARK   10  A    between atoms: O_26  and  C_27
REMARK   11  A    between atoms: C_27  and  C_28
REMARK                            x       y       z     vdW  Elec       q    Type
REMARK                         _______ _______ _______ _____ _____    ______ ____
ROOT
ATOM      1  C   LIG A   1      -9.943   0.926 123.985  0.00  0.00    +0.065 C 
ATOM      2  C   LIG A   1      -9.365   2.278 124.462  0.00  0.00    +0.211 C 
ATOM      3  O   LIG A   1      -8.955   2.037 125.839  0.00  0.00    -0.479 OA
ATOM      4  C   LIG A   1      -8.508   0.731 125.830  0.00  0.00    +0.170 A 
ATOM      5  C   LIG A   1      -8.998   0.052 124.729  0.00  0.00    +0.008 A 
ATOM      6  C   LIG A   1      -8.591  -1.227 124.441  0.00  0.00    +0.057 A 
ATOM      7  C   LIG A   1      -7.729  -1.896 125.317  0.00  0.00    +0.166 A 
ATOM      8  C   LIG A   1      -7.279  -1.229 126.496  0.00  0.00    +0.208 A 
ATOM      9  C   LIG A   1      -7.646   0.131 126.735  0.00  0.00    +0.208 A 
ATOM     10  C   LIG A   1     -10.085   0.631 122.500  0.00  0.00    +0.016 C 
ENDROOT
BRANCH   2  11
ATOM     11  C   LIG A   1      -8.214   2.876 123.655  0.00  0.00    +0.000 A 
ATOM     12  C   LIG A   1      -7.025   3.220 124.321  0.00  0.00    +0.057 A 
ATOM     13  C   LIG A   1      -5.928   3.797 123.674  0.00  0.00    +0.166 A 
ATOM     14  C   LIG A   1      -6.034   3.994 122.311  0.00  0.00    +0.207 A 
ATOM     15  C   LIG A   1      -7.170   3.623 121.633  0.00  0.00    +0.170 A 
ATOM     16  C   LIG A   1      -8.261   3.070 122.271  0.00  0.00    +0.057 A 
ATOM     17  O   LIG A   1      -7.090   3.842 120.294  0.00  0.00    -0.453 OA
ATOM     18  C   LIG A   1      -5.762   4.389 120.196  0.00  0.00    +0.467 C 
ATOM     19  O   LIG A   1      -5.092   4.501 121.469  0.00  0.00    -0.449 OA
BRANCH  13  20
ATOM     20  O   LIG A   1      -4.791   4.180 124.328  0.00  0.00    -0.491 OA
ATOM     21  C   LIG A   1      -4.711   3.746 125.687  0.00  0.00    +0.277 C 
ENDBRANCH  13  20
ENDBRANCH   2  11
BRANCH   7  22
ATOM     22  O   LIG A   1      -7.290  -3.166 125.038  0.00  0.00    -0.491 OA
ATOM     23  C   LIG A   1      -6.100  -3.340 124.268  0.00  0.00    +0.277 C 
ENDBRANCH   7  22
BRANCH   9  24
ATOM     24  O   LIG A   1      -7.153   0.738 127.864  0.00  0.00    -0.488 OA
ATOM     25  C   LIG A   1      -8.042   0.907 128.964  0.00  0.00    +0.277 C 
ENDBRANCH   9  24
BRANCH   8  26
ATOM     26  O   LIG A   1      -6.390  -1.728 127.421  0.00  0.00    -0.481 OA
BRANCH  26  27
ATOM     27  C   LIG A   1      -6.734  -2.781 128.313  0.00  0.00    +0.256 C 
BRANCH  27  28
ATOM     28  C   LIG A   1      -8.215  -2.866 128.524  0.00  0.00    +0.006 C 
ATOM     29  C   LIG A   1      -8.978  -3.950 128.223  0.00  0.00    +0.007 C 
ENDBRANCH  27  28
ENDBRANCH  26  27
ENDBRANCH   8  26
TORSDOF 7
ENDMDL
MODEL 2
REMARK VINA RESULT:      -7.2      0.945      2.248
REMARK  Name = NuBBE_2316
REMARK  11 active torsions:
REMARK  status: ('A' for Active; 'I' for Inactive)
REMARK    1  A    between atoms: C_1  and  C_30
REMARK    2  A    between atoms: C_3  and  C_4
REMARK    3  A    between atoms: C_6  and  O_13
REMARK    4  A    between atoms: O_13  and  C_14
REMARK    5  A    between atoms: C_19  and  O_20
REMARK    6  A    between atoms: O_20  and  C_21
REMARK    7  A    between atoms: C_22  and  O_26
REMARK    8  A    between atoms: C_23  and  O_24
REMARK    9  A    between atoms: O_24  and  C_25
REMARK   10  A    between atoms: O_26  and  C_27
REMARK   11  A    between atoms: C_27  and  C_28
REMARK                            x       y       z     vdW  Elec       q    Type
REMARK                         _______ _______ _______ _____ _____    ______ ____
ROOT
ATOM      1  C   LIG A   1      -9.933   0.842 123.657  0.00  0.00    +0.065 C 
ATOM      2  C   LIG A   1      -9.468   2.273 124.012  0.00  0.00    +0.211 C 
ATOM      3  O   LIG A   1      -9.015   2.180 125.395  0.00  0.00    -0.479 OA
ATOM      4  C   LIG A   1      -8.455   0.922 125.478  0.00  0.00    +0.170 A 
ATOM      5  C   LIG A   1      -8.902   0.116 124.446  0.00  0.00    +0.008 A 
ATOM      6  C   LIG A   1      -8.388  -1.142 124.251  0.00  0.00    +0.057 A 
ATOM      7  C   LIG A   1      -7.455  -1.661 125.156  0.00  0.00    +0.166 A 
ATOM      8  C   LIG A   1      -7.046  -0.864 126.267  0.00  0.00    +0.208 A 
ATOM      9  C   LIG A   1      -7.528   0.474 126.406  0.00  0.00    +0.208 A 
ATOM     10  C   LIG A   1     -10.073   0.417 122.205  0.00  0.00    +0.016 C 
ENDROOT
BRANCH   2  11
ATOM     11  C   LIG A   1      -8.388   2.902 123.133  0.00  0.00    +0.000 A 
ATOM     12  C   LIG A   1      -8.691   3.194 121.792  0.00  0.00    +0.057 A 
ATOM     13  C   LIG A   1      -7.762   3.745 120.904  0.00  0.00    +0.166 A 
ATOM     14  C   LIG A   1      -6.509   4.036 121.405  0.00  0.00    +0.207 A 
ATOM     15  C   LIG A   1      -6.207   3.801 122.725  0.00  0.00    +0.170 A 
ATOM     16  C   LIG A   1      -7.115   3.241 123.599  0.00  0.00    +0.057 A 
ATOM     17  O   LIG A   1      -4.948   4.189 123.063  0.00  0.00    -0.453 OA
ATOM     18  C   LIG A   1      -4.486   4.710 121.803  0.00  0.00    +0.467 C 
ATOM     19  O   LIG A   1      -5.462   4.605 120.745  0.00  0.00    -0.449 OA
BRANCH  13  20
ATOM     20  O   LIG A   1      -8.038   3.981 119.587  0.00  0.00    -0.491 OA
ATOM     21  C   LIG A   1      -9.415   4.238 119.302  0.00  0.00    +0.277 C 
ENDBRANCH  13  20
ENDBRANCH   2  11
BRANCH   7  22
ATOM     22  O   LIG A   1      -6.911  -2.906 124.968  0.00  0.00    -0.491 OA
ATOM     23  C   LIG A   1      -5.818  -3.060 124.061  0.00  0.00    +0.277 C 
ENDBRANCH   7  22
BRANCH   9  24
ATOM     24  O   LIG A   1      -7.072   1.210 127.472  0.00  0.00    -0.488 OA
ATOM     25  C   LIG A   1      -7.962   1.411 128.566  0.00  0.00    +0.277 C 
ENDBRANCH   9  24
BRANCH   8  26
ATOM     26  O   LIG A   1      -6.102  -1.208 127.207  0.00  0.00    -0.481 OA
BRANCH  26  27
ATOM     27  C   LIG A   1      -6.307  -2.260 128.141  0.00  0.00    +0.256 C 
BRANCH  27  28
ATOM     28  C   LIG A   1      -7.722  -2.293 128.635  0.00  0.00    +0.006 C 
ATOM     29  C   LIG A   1      -8.303  -3.358 129.247  0.00  0.00    +0.007 C 
ENDBRANCH  27  28
ENDBRANCH  26  27
ENDBRANCH   8  26
TORSDOF 7
ENDMDL
MODEL 3
REMARK VINA RESULT:      -7.1      4.770      7.714
REMARK  Name = NuBBE_2316
REMARK  11 active torsions:
REMARK  status: ('A' for Active; 'I' for Inactive)
REMARK    1  A    between atoms: C_1  and  C_30
REMARK    2  A    between atoms: C_3  and  C_4
REMARK    3  A    between atoms: C_6  and  O_13
REMARK    4  A    between atoms: O_13  and  C_14
REMARK    5  A    between atoms: C_19  and  O_20
REMARK    6  A    between atoms: O_20  and  C_21
REMARK    7  A    between atoms: C_22  and  O_26
REMARK    8  A    between atoms: C_23  and  O_24
REMARK    9  A    between atoms: O_24  and  C_25
REMARK   10  A    between atoms: O_26  and  C_27
REMARK   11  A    between atoms: C_27  and  C_28
REMARK                            x       y       z     vdW  Elec       q    Type
REMARK                         _______ _______ _______ _____ _____    ______ ____
ROOT
ATOM      1  C   LIG A   1      -8.086   3.316 130.857  0.00  0.00    +0.065 C 
ATOM      2  C   LIG A   1      -7.851   4.839 130.742  0.00  0.00    +0.211 C 
ATOM      3  O   LIG A   1      -6.946   4.987 129.609  0.00  0.00    -0.479 OA
ATOM      4  C   LIG A   1      -7.336   3.989 128.739  0.00  0.00    +0.170 A 
ATOM      5  C   LIG A   1      -8.067   3.019 129.400  0.00  0.00    +0.008 A 
ATOM      6  C   LIG A   1      -8.666   1.989 128.717  0.00  0.00    +0.057 A 
ATOM      7  C   LIG A   1      -8.470   1.862 127.338  0.00  0.00    +0.166 A 
ATOM      8  C   LIG A   1      -7.655   2.818 126.660  0.00  0.00    +0.208 A 
ATOM      9  C   LIG A   1      -7.109   3.929 127.373  0.00  0.00    +0.208 A 
ATOM     10  C   LIG A   1      -9.282   2.777 131.625  0.00  0.00    +0.016 C 
ENDROOT
BRANCH   2  11
ATOM     11  C   LIG A   1      -9.080   5.730 130.569  0.00  0.00    +0.000 A 
ATOM     12  C   LIG A   1      -9.127   6.617 129.480  0.00  0.00    +0.057 A 
ATOM     13  C   LIG A   1     -10.195   7.490 129.254  0.00  0.00    +0.166 A 
ATOM     14  C   LIG A   1     -11.254   7.431 130.138  0.00  0.00    +0.207 A 
ATOM     15  C   LIG A   1     -11.248   6.539 131.183  0.00  0.00    +0.170 A 
ATOM     16  C   LIG A   1     -10.188   5.689 131.420  0.00  0.00    +0.057 A 
ATOM     17  O   LIG A   1     -12.386   6.579 131.927  0.00  0.00    -0.453 OA
ATOM     18  C   LIG A   1     -13.124   7.596 131.225  0.00  0.00    +0.467 C 
ATOM     19  O   LIG A   1     -12.410   8.151 130.100  0.00  0.00    -0.449 OA
BRANCH  13  20
ATOM     20  O   LIG A   1     -10.220   8.390 128.226  0.00  0.00    -0.491 OA
ATOM     21  C   LIG A   1     -10.912   7.942 127.058  0.00  0.00    +0.277 C 
ENDBRANCH  13  20
ENDBRANCH   2  11
BRANCH   7  22
ATOM     22  O   LIG A   1      -9.077   0.855 126.632  0.00  0.00    -0.491 OA
ATOM     23  C   LIG A   1      -8.336  -0.327 126.324  0.00  0.00    +0.277 C 
ENDBRANCH   7  22
BRANCH   9  24
ATOM     24  O   LIG A   1      -6.365   4.841 126.664  0.00  0.00    -0.488 OA
ATOM     25  C   LIG A   1      -4.947   4.711 126.707  0.00  0.00    +0.277 C 
ENDBRANCH   9  24
BRANCH   8  26
ATOM     26  O   LIG A   1      -7.414   2.862 125.306  0.00  0.00    -0.481 OA
BRANCH  26  27
ATOM     27  C   LIG A   1      -8.356   3.394 124.383  0.00  0.00    +0.256 C 
BRANCH  27  28
ATOM     28  C   LIG A   1      -8.639   2.436 123.267  0.00  0.00    +0.006 C 
ATOM     29  C   LIG A   1      -9.669   1.548 123.251  0.00  0.00    +0.007 C 
ENDBRANCH  27  28
ENDBRANCH  26  27
ENDBRANCH   8  26
TORSDOF 7
ENDMDL
MODEL 4
REMARK VINA RESULT:      -6.7      5.790      8.298
REMARK  Name = NuBBE_2316
REMARK  11 active torsions:
REMARK  status: ('A' for Active; 'I' for Inactive)
REMARK    1  A    between atoms: C_1  and  C_30
REMARK    2  A    between atoms: C_3  and  C_4
REMARK    3  A    between atoms: C_6  and  O_13
REMARK    4  A    between atoms: O_13  and  C_14
REMARK    5  A    between atoms: C_19  and  O_20
REMARK    6  A    between atoms: O_20  and  C_21
REMARK    7  A    between atoms: C_22  and  O_26
REMARK    8  A    between atoms: C_23  and  O_24
REMARK    9  A    between atoms: O_24  and  C_25
REMARK   10  A    between atoms: O_26  and  C_27
REMARK   11  A    between atoms: C_27  and  C_28
REMARK                            x       y       z     vdW  Elec       q    Type
REMARK                         _______ _______ _______ _____ _____    ______ ____
ROOT
ATOM      1  C   LIG A   1      -8.816   4.289 131.620  0.00  0.00    +0.065 C 
ATOM      2  C   LIG A   1      -9.061   5.815 131.614  0.00  0.00    +0.211 C 
ATOM      3  O   LIG A   1      -7.727   6.402 131.559  0.00  0.00    -0.479 OA
ATOM      4  C   LIG A   1      -7.010   5.523 130.773  0.00  0.00    +0.170 A 
ATOM      5  C   LIG A   1      -7.636   4.291 130.715  0.00  0.00    +0.008 A 
ATOM      6  C   LIG A   1      -7.172   3.294 129.893  0.00  0.00    +0.057 A 
ATOM      7  C   LIG A   1      -5.996   3.488 129.160  0.00  0.00    +0.166 A 
ATOM      8  C   LIG A   1      -5.302   4.730 129.273  0.00  0.00    +0.208 A 
ATOM      9  C   LIG A   1      -5.846   5.785 130.067  0.00  0.00    +0.208 A 
ATOM     10  C   LIG A   1      -9.933   3.329 131.246  0.00  0.00    +0.016 C 
ENDROOT
BRANCH   2  11
ATOM     11  C   LIG A   1      -9.944   6.383 130.504  0.00  0.00    +0.000 A 
ATOM     12  C   LIG A   1     -11.094   7.109 130.859  0.00  0.00    +0.057 A 
ATOM     13  C   LIG A   1     -11.978   7.644 129.916  0.00  0.00    +0.166 A 
ATOM     14  C   LIG A   1     -11.661   7.464 128.584  0.00  0.00    +0.207 A 
ATOM     15  C   LIG A   1     -10.517   6.797 128.217  0.00  0.00    +0.170 A 
ATOM     16  C   LIG A   1      -9.653   6.253 129.144  0.00  0.00    +0.057 A 
ATOM     17  O   LIG A   1     -10.333   6.751 126.870  0.00  0.00    -0.453 OA
ATOM     18  C   LIG A   1     -11.491   7.479 126.421  0.00  0.00    +0.467 C 
ATOM     19  O   LIG A   1     -12.344   7.922 127.498  0.00  0.00    -0.449 OA
BRANCH  13  20
ATOM     20  O   LIG A   1     -13.124   8.305 130.257  0.00  0.00    -0.491 OA
ATOM     21  C   LIG A   1     -13.023   9.731 130.221  0.00  0.00    +0.277 C 
ENDBRANCH  13  20
ENDBRANCH   2  11
BRANCH   7  22
ATOM     22  O   LIG A   1      -5.527   2.514 128.315  0.00  0.00    -0.491 OA
ATOM     23  C   LIG A   1      -4.965   1.322 128.867  0.00  0.00    +0.277 C 
ENDBRANCH   7  22
BRANCH   9  24
ATOM     24  O   LIG A   1      -5.158   6.974 130.109  0.00  0.00    -0.488 OA
ATOM     25  C   LIG A   1      -4.306   7.204 131.228  0.00  0.00    +0.277 C 
ENDBRANCH   9  24
BRANCH   8  26
ATOM     26  O   LIG A   1      -4.171   5.092 128.578  0.00  0.00    -0.481 OA
BRANCH  26  27
ATOM     27  C   LIG A   1      -2.945   4.381 128.698  0.00  0.00    +0.256 C 
BRANCH  27  28
ATOM     28  C   LIG A   1      -2.285   4.188 127.367  0.00  0.00    +0.006 C 
ATOM     29  C   LIG A   1      -1.853   2.993 126.883  0.00  0.00    +0.007 C 
ENDBRANCH  27  28
ENDBRANCH  26  27
ENDBRANCH   8  26
TORSDOF 7
ENDMDL
MODEL 5
REMARK VINA RESULT:      -6.7      4.189      7.666
REMARK  Name = NuBBE_2316
REMARK  11 active torsions:
REMARK  status: ('A' for Active; 'I' for Inactive)
REMARK    1  A    between atoms: C_1  and  C_30
REMARK    2  A    between atoms: C_3  and  C_4
REMARK    3  A    between atoms: C_6  and  O_13
REMARK    4  A    between atoms: O_13  and  C_14
REMARK    5  A    between atoms: C_19  and  O_20
REMARK    6  A    between atoms: O_20  and  C_21
REMARK    7  A    between atoms: C_22  and  O_26
REMARK    8  A    between atoms: C_23  and  O_24
REMARK    9  A    between atoms: O_24  and  C_25
REMARK   10  A    between atoms: O_26  and  C_27
REMARK   11  A    between atoms: C_27  and  C_28
REMARK                            x       y       z     vdW  Elec       q    Type
REMARK                         _______ _______ _______ _____ _____    ______ ____
ROOT
ATOM      1  C   LIG A   1      -6.894   2.554 129.487  0.00  0.00    +0.065 C 
ATOM      2  C   LIG A   1      -6.846   4.091 129.647  0.00  0.00    +0.211 C 
ATOM      3  O   LIG A   1      -6.562   4.592 128.308  0.00  0.00    -0.479 OA
ATOM      4  C   LIG A   1      -7.230   3.716 127.476  0.00  0.00    +0.170 A 
ATOM      5  C   LIG A   1      -7.513   2.533 128.135  0.00  0.00    +0.008 A 
ATOM      6  C   LIG A   1      -8.280   1.557 127.548  0.00  0.00    +0.057 A 
ATOM      7  C   LIG A   1      -8.719   1.716 126.229  0.00  0.00    +0.166 A 
ATOM      8  C   LIG A   1      -8.367   2.902 125.517  0.00  0.00    +0.208 A 
ATOM      9  C   LIG A   1      -7.639   3.942 126.172  0.00  0.00    +0.208 A 
ATOM     10  C   LIG A   1      -7.574   1.692 130.537  0.00  0.00    +0.016 C 
ENDROOT
BRANCH   2  11
ATOM     11  C   LIG A   1      -8.080   4.778 130.228  0.00  0.00    +0.000 A 
ATOM     12  C   LIG A   1      -8.031   5.254 131.550  0.00  0.00    +0.057 A 
ATOM     13  C   LIG A   1      -9.118   5.873 132.177  0.00  0.00    +0.166 A 
ATOM     14  C   LIG A   1     -10.265   6.040 131.427  0.00  0.00    +0.207 A 
ATOM     15  C   LIG A   1     -10.318   5.622 130.119  0.00  0.00    +0.170 A 
ATOM     16  C   LIG A   1      -9.255   4.996 129.503  0.00  0.00    +0.057 A 
ATOM     17  O   LIG A   1     -11.503   5.906 129.514  0.00  0.00    -0.453 OA
ATOM     18  C   LIG A   1     -12.197   6.564 130.590  0.00  0.00    +0.467 C 
ATOM     19  O   LIG A   1     -11.427   6.641 131.808  0.00  0.00    -0.449 OA
BRANCH  13  20
ATOM     20  O   LIG A   1      -9.091   6.290 133.478  0.00  0.00    -0.491 OA
ATOM     21  C   LIG A   1      -8.113   5.639 134.292  0.00  0.00    +0.277 C 
ENDBRANCH  13  20
ENDBRANCH   2  11
BRANCH   7  22
ATOM     22  O   LIG A   1      -9.506   0.765 125.631  0.00  0.00    -0.491 OA
ATOM     23  C   LIG A   1      -8.991  -0.556 125.451  0.00  0.00    +0.277 C 
ENDBRANCH   7  22
BRANCH   9  24
ATOM     24  O   LIG A   1      -7.361   5.079 125.452  0.00  0.00    -0.488 OA
ATOM     25  C   LIG A   1      -6.038   5.232 124.945  0.00  0.00    +0.277 C 
ENDBRANCH   9  24
BRANCH   8  26
ATOM     26  O   LIG A   1      -8.766   3.230 124.241  0.00  0.00    -0.481 OA
BRANCH  26  27
ATOM     27  C   LIG A   1      -8.312   2.518 123.096  0.00  0.00    +0.256 C 
BRANCH  27  28
ATOM     28  C   LIG A   1      -7.760   3.442 122.054  0.00  0.00    +0.006 C 
ATOM     29  C   LIG A   1      -6.483   3.409 121.588  0.00  0.00    +0.007 C 
ENDBRANCH  27  28
ENDBRANCH  26  27
ENDBRANCH   8  26
TORSDOF 7
ENDMDL
MODEL 6
REMARK VINA RESULT:      -6.7      3.428      6.713
REMARK  Name = NuBBE_2316
REMARK  11 active torsions:
REMARK  status: ('A' for Active; 'I' for Inactive)
REMARK    1  A    between atoms: C_1  and  C_30
REMARK    2  A    between atoms: C_3  and  C_4
REMARK    3  A    between atoms: C_6  and  O_13
REMARK    4  A    between atoms: O_13  and  C_14
REMARK    5  A    between atoms: C_19  and  O_20
REMARK    6  A    between atoms: O_20  and  C_21
REMARK    7  A    between atoms: C_22  and  O_26
REMARK    8  A    between atoms: C_23  and  O_24
REMARK    9  A    between atoms: O_24  and  C_25
REMARK   10  A    between atoms: O_26  and  C_27
REMARK   11  A    between atoms: C_27  and  C_28
REMARK                            x       y       z     vdW  Elec       q    Type
REMARK                         _______ _______ _______ _____ _____    ______ ____
ROOT
ATOM      1  C   LIG A   1      -7.229  -2.668 129.158  0.00  0.00    +0.065 C 
ATOM      2  C   LIG A   1      -6.384  -1.455 129.608  0.00  0.00    +0.211 C 
ATOM      3  O   LIG A   1      -5.585  -1.110 128.439  0.00  0.00    -0.479 OA
ATOM      4  C   LIG A   1      -6.420  -1.378 127.374  0.00  0.00    +0.170 A 
ATOM      5  C   LIG A   1      -7.443  -2.229 127.754  0.00  0.00    +0.008 A 
ATOM      6  C   LIG A   1      -8.467  -2.540 126.894  0.00  0.00    +0.057 A 
ATOM      7  C   LIG A   1      -8.443  -2.059 125.580  0.00  0.00    +0.166 A 
ATOM      8  C   LIG A   1      -7.352  -1.241 125.158  0.00  0.00    +0.208 A 
ATOM      9  C   LIG A   1      -6.339  -0.860 126.091  0.00  0.00    +0.208 A 
ATOM     10  C   LIG A   1      -8.483  -3.060 129.924  0.00  0.00    +0.016 C 
ENDROOT
BRANCH   2  11
ATOM     11  C   LIG A   1      -7.132  -0.230 130.131  0.00  0.00    +0.000 A 
ATOM     12  C   LIG A   1      -7.073   0.064 131.504  0.00  0.00    +0.057 A 
ATOM     13  C   LIG A   1      -7.745   1.148 132.080  0.00  0.00    +0.166 A 
ATOM     14  C   LIG A   1      -8.461   1.967 131.230  0.00  0.00    +0.207 A 
ATOM     15  C   LIG A   1      -8.493   1.723 129.878  0.00  0.00    +0.170 A 
ATOM     16  C   LIG A   1      -7.847   0.646 129.309  0.00  0.00    +0.057 A 
ATOM     17  O   LIG A   1      -9.203   2.652 129.183  0.00  0.00    -0.453 OA
ATOM     18  C   LIG A   1      -9.612   3.525 130.253  0.00  0.00    +0.467 C 
ATOM     19  O   LIG A   1      -9.159   3.092 131.553  0.00  0.00    -0.449 OA
BRANCH  13  20
ATOM     20  O   LIG A   1      -7.733   1.406 133.422  0.00  0.00    -0.491 OA
ATOM     21  C   LIG A   1      -6.591   2.134 133.879  0.00  0.00    +0.277 C 
ENDBRANCH  13  20
ENDBRANCH   2  11
BRANCH   7  22
ATOM     22  O   LIG A   1      -9.467  -2.338 124.711  0.00  0.00    -0.491 OA
ATOM     23  C   LIG A   1      -9.403  -3.521 123.912  0.00  0.00    +0.277 C 
ENDBRANCH   7  22
BRANCH   9  24
ATOM     24  O   LIG A   1      -5.333  -0.039 125.643  0.00  0.00    -0.488 OA
ATOM     25  C   LIG A   1      -5.358   1.324 126.060  0.00  0.00    +0.277 C 
ENDBRANCH   9  24
BRANCH   8  26
ATOM     26  O   LIG A   1      -7.213  -0.649 123.924  0.00  0.00    -0.481 OA
BRANCH  26  27
ATOM     27  C   LIG A   1      -6.472  -1.252 122.870  0.00  0.00    +0.256 C 
BRANCH  27  28
ATOM     28  C   LIG A   1      -6.038  -2.642 123.225  0.00  0.00    +0.006 C 
ATOM     29  C   LIG A   1      -4.747  -3.026 123.407  0.00  0.00    +0.007 C 
ENDBRANCH  27  28
ENDBRANCH  26  27
ENDBRANCH   8  26
TORSDOF 7
ENDMDL
MODEL 7
REMARK VINA RESULT:      -6.6      2.773      5.829
REMARK  Name = NuBBE_2316
REMARK  11 active torsions:
REMARK  status: ('A' for Active; 'I' for Inactive)
REMARK    1  A    between atoms: C_1  and  C_30
REMARK    2  A    between atoms: C_3  and  C_4
REMARK    3  A    between atoms: C_6  and  O_13
REMARK    4  A    between atoms: O_13  and  C_14
REMARK    5  A    between atoms: C_19  and  O_20
REMARK    6  A    between atoms: O_20  and  C_21
REMARK    7  A    between atoms: C_22  and  O_26
REMARK    8  A    between atoms: C_23  and  O_24
REMARK    9  A    between atoms: O_24  and  C_25
REMARK   10  A    between atoms: O_26  and  C_27
REMARK   11  A    between atoms: C_27  and  C_28
REMARK                            x       y       z     vdW  Elec       q    Type
REMARK                         _______ _______ _______ _____ _____    ______ ____
ROOT
ATOM      1  C   LIG A   1      -5.812   2.165 125.819  0.00  0.00    +0.065 C 
ATOM      2  C   LIG A   1      -7.158   2.782 126.261  0.00  0.00    +0.211 C 
ATOM      3  O   LIG A   1      -8.127   2.288 125.291  0.00  0.00    -0.479 OA
ATOM      4  C   LIG A   1      -7.685   1.014 124.999  0.00  0.00    +0.170 A 
ATOM      5  C   LIG A   1      -6.356   0.862 125.352  0.00  0.00    +0.008 A 
ATOM      6  C   LIG A   1      -5.732  -0.359 125.268  0.00  0.00    +0.057 A 
ATOM      7  C   LIG A   1      -6.419  -1.457 124.740  0.00  0.00    +0.166 A 
ATOM      8  C   LIG A   1      -7.768  -1.289 124.303  0.00  0.00    +0.208 A 
ATOM      9  C   LIG A   1      -8.427  -0.034 124.475  0.00  0.00    +0.208 A 
ATOM     10  C   LIG A   1      -4.647   2.083 126.790  0.00  0.00    +0.016 C 
ENDROOT
BRANCH   2  11
ATOM     11  C   LIG A   1      -7.630   2.497 127.686  0.00  0.00    +0.000 A 
ATOM     12  C   LIG A   1      -8.044   3.572 128.491  0.00  0.00    +0.057 A 
ATOM     13  C   LIG A   1      -8.467   3.414 129.815  0.00  0.00    +0.166 A 
ATOM     14  C   LIG A   1      -8.501   2.127 130.315  0.00  0.00    +0.207 A 
ATOM     15  C   LIG A   1      -8.144   1.058 129.529  0.00  0.00    +0.170 A 
ATOM     16  C   LIG A   1      -7.710   1.212 128.229  0.00  0.00    +0.057 A 
ATOM     17  O   LIG A   1      -8.281  -0.139 130.160  0.00  0.00    -0.453 OA
ATOM     18  C   LIG A   1      -8.779   0.294 131.440  0.00  0.00    +0.467 C 
ATOM     19  O   LIG A   1      -8.908   1.727 131.551  0.00  0.00    -0.449 OA
BRANCH  13  20
ATOM     20  O   LIG A   1      -8.820   4.463 130.616  0.00  0.00    -0.491 OA
ATOM     21  C   LIG A   1      -9.923   5.235 130.136  0.00  0.00    +0.277 C 
ENDBRANCH  13  20
ENDBRANCH   2  11
BRANCH   7  22
ATOM     22  O   LIG A   1      -5.824  -2.690 124.669  0.00  0.00    -0.491 OA
ATOM     23  C   LIG A   1      -5.099  -3.050 123.491  0.00  0.00    +0.277 C 
ENDBRANCH   7  22
BRANCH   9  24
ATOM     24  O   LIG A   1      -9.737   0.061 124.075  0.00  0.00    -0.488 OA
ATOM     25  C   LIG A   1     -10.004   0.726 122.843  0.00  0.00    +0.277 C 
ENDBRANCH   9  24
BRANCH   8  26
ATOM     26  O   LIG A   1      -8.591  -2.279 123.816  0.00  0.00    -0.481 OA
BRANCH  26  27
ATOM     27  C   LIG A   1      -8.945  -3.421 124.587  0.00  0.00    +0.256 C 
BRANCH  27  28
ATOM     28  C   LIG A   1      -9.371  -3.043 125.973  0.00  0.00    +0.006 C 
ATOM     29  C   LIG A   1      -8.931  -3.645 127.109  0.00  0.00    +0.007 C 
ENDBRANCH  27  28
ENDBRANCH  26  27
ENDBRANCH   8  26
TORSDOF 7
ENDMDL
MODEL 8
REMARK VINA RESULT:      -6.6      2.276      7.474
REMARK  Name = NuBBE_2316
REMARK  11 active torsions:
REMARK  status: ('A' for Active; 'I' for Inactive)
REMARK    1  A    between atoms: C_1  and  C_30
REMARK    2  A    between atoms: C_3  and  C_4
REMARK    3  A    between atoms: C_6  and  O_13
REMARK    4  A    between atoms: O_13  and  C_14
REMARK    5  A    between atoms: C_19  and  O_20
REMARK    6  A    between atoms: O_20  and  C_21
REMARK    7  A    between atoms: C_22  and  O_26
REMARK    8  A    between atoms: C_23  and  O_24
REMARK    9  A    between atoms: O_24  and  C_25
REMARK   10  A    between atoms: O_26  and  C_27
REMARK   11  A    between atoms: C_27  and  C_28
REMARK                            x       y       z     vdW  Elec       q    Type
REMARK                         _______ _______ _______ _____ _____    ______ ____
ROOT
ATOM      1  C   LIG A   1      -7.516  -2.662 126.258  0.00  0.00    +0.065 C 
ATOM      2  C   LIG A   1      -6.495  -2.170 127.308  0.00  0.00    +0.211 C 
ATOM      3  O   LIG A   1      -5.778  -1.088 126.645  0.00  0.00    -0.479 OA
ATOM      4  C   LIG A   1      -6.738  -0.485 125.858  0.00  0.00    +0.170 A 
ATOM      5  C   LIG A   1      -7.811  -1.335 125.656  0.00  0.00    +0.008 A 
ATOM      6  C   LIG A   1      -8.944  -0.910 125.006  0.00  0.00    +0.057 A 
ATOM      7  C   LIG A   1      -8.991   0.378 124.460  0.00  0.00    +0.166 A 
ATOM      8  C   LIG A   1      -7.858   1.234 124.599  0.00  0.00    +0.208 A 
ATOM      9  C   LIG A   1      -6.722   0.805 125.351  0.00  0.00    +0.208 A 
ATOM     10  C   LIG A   1      -8.726  -3.477 126.685  0.00  0.00    +0.016 C 
ENDROOT
BRANCH   2  11
ATOM     11  C   LIG A   1      -7.039  -1.707 128.658  0.00  0.00    +0.000 A 
ATOM     12  C   LIG A   1      -6.979  -2.589 129.751  0.00  0.00    +0.057 A 
ATOM     13  C   LIG A   1      -7.475  -2.265 131.018  0.00  0.00    +0.166 A 
ATOM     14  C   LIG A   1      -8.010  -1.003 131.181  0.00  0.00    +0.207 A 
ATOM     15  C   LIG A   1      -8.036  -0.110 130.137  0.00  0.00    +0.170 A 
ATOM     16  C   LIG A   1      -7.564  -0.431 128.882  0.00  0.00    +0.057 A 
ATOM     17  O   LIG A   1      -8.552   1.101 130.481  0.00  0.00    -0.453 OA
ATOM     18  C   LIG A   1      -8.842   0.877 131.873  0.00  0.00    +0.467 C 
ATOM     19  O   LIG A   1      -8.516  -0.455 132.321  0.00  0.00    -0.449 OA
BRANCH  13  20
ATOM     20  O   LIG A   1      -7.466  -3.139 132.069  0.00  0.00    -0.491 OA
ATOM     21  C   LIG A   1      -6.192  -3.308 132.693  0.00  0.00    +0.277 C 
ENDBRANCH  13  20
ENDBRANCH   2  11
BRANCH   7  22
ATOM     22  O   LIG A   1     -10.120   0.831 123.827  0.00  0.00    -0.491 OA
ATOM     23  C   LIG A   1     -10.352   0.467 122.465  0.00  0.00    +0.277 C 
ENDBRANCH   7  22
BRANCH   9  24
ATOM     24  O   LIG A   1      -5.675   1.683 125.486  0.00  0.00    -0.488 OA
ATOM     25  C   LIG A   1      -5.504   2.317 126.751  0.00  0.00    +0.277 C 
ENDBRANCH   9  24
BRANCH   8  26
ATOM     26  O   LIG A   1      -7.771   2.539 124.169  0.00  0.00    -0.481 OA
BRANCH  26  27
ATOM     27  C   LIG A   1      -7.645   2.880 122.794  0.00  0.00    +0.256 C 
BRANCH  27  28
ATOM     28  C   LIG A   1      -6.327   3.530 122.504  0.00  0.00    +0.006 C 
ATOM     29  C   LIG A   1      -5.654   3.423 121.328  0.00  0.00    +0.007 C 
ENDBRANCH  27  28
ENDBRANCH  26  27
ENDBRANCH   8  26
TORSDOF 7
ENDMDL
MODEL 9
REMARK VINA RESULT:      -6.6      6.054      8.564
REMARK  Name = NuBBE_2316
REMARK  11 active torsions:
REMARK  status: ('A' for Active; 'I' for Inactive)
REMARK    1  A    between atoms: C_1  and  C_30
REMARK    2  A    between atoms: C_3  and  C_4
REMARK    3  A    between atoms: C_6  and  O_13
REMARK    4  A    between atoms: O_13  and  C_14
REMARK    5  A    between atoms: C_19  and  O_20
REMARK    6  A    between atoms: O_20  and  C_21
REMARK    7  A    between atoms: C_22  and  O_26
REMARK    8  A    between atoms: C_23  and  O_24
REMARK    9  A    between atoms: O_24  and  C_25
REMARK   10  A    between atoms: O_26  and  C_27
REMARK   11  A    between atoms: C_27  and  C_28
REMARK                            x       y       z     vdW  Elec       q    Type
REMARK                         _______ _______ _______ _____ _____    ______ ____
ROOT
ATOM      1  C   LIG A   1      -6.927   5.708 132.526  0.00  0.00    +0.065 C 
ATOM      2  C   LIG A   1      -7.425   6.893 131.667  0.00  0.00    +0.211 C 
ATOM      3  O   LIG A   1      -6.288   7.239 130.823  0.00  0.00    -0.479 OA
ATOM      4  C   LIG A   1      -5.688   6.025 130.558  0.00  0.00    +0.170 A 
ATOM      5  C   LIG A   1      -6.080   5.072 131.482  0.00  0.00    +0.008 A 
ATOM      6  C   LIG A   1      -5.708   3.757 131.350  0.00  0.00    +0.057 A 
ATOM      7  C   LIG A   1      -4.848   3.378 130.313  0.00  0.00    +0.166 A 
ATOM      8  C   LIG A   1      -4.379   4.370 129.400  0.00  0.00    +0.208 A 
ATOM      9  C   LIG A   1      -4.844   5.716 129.504  0.00  0.00    +0.208 A 
ATOM     10  C   LIG A   1      -7.919   4.790 133.220  0.00  0.00    +0.016 C 
ENDROOT
BRANCH   2  11
ATOM     11  C   LIG A   1      -8.677   6.673 130.821  0.00  0.00    +0.000 A 
ATOM     12  C   LIG A   1      -9.340   5.436 130.901  0.00  0.00    +0.057 A 
ATOM     13  C   LIG A   1     -10.478   5.132 130.146  0.00  0.00    +0.166 A 
ATOM     14  C   LIG A   1     -10.968   6.123 129.320  0.00  0.00    +0.207 A 
ATOM     15  C   LIG A   1     -10.361   7.355 129.262  0.00  0.00    +0.170 A 
ATOM     16  C   LIG A   1      -9.229   7.652 129.991  0.00  0.00    +0.057 A 
ATOM     17  O   LIG A   1     -10.999   8.227 128.436  0.00  0.00    -0.453 OA
ATOM     18  C   LIG A   1     -12.093   7.409 127.982  0.00  0.00    +0.467 C 
ATOM     19  O   LIG A   1     -12.074   6.072 128.525  0.00  0.00    -0.449 OA
BRANCH  13  20
ATOM     20  O   LIG A   1     -11.094   3.912 130.182  0.00  0.00    -0.491 OA
ATOM     21  C   LIG A   1     -10.349   2.887 130.843  0.00  0.00    +0.277 C 
ENDBRANCH  13  20
ENDBRANCH   2  11
BRANCH   7  22
ATOM     22  O   LIG A   1      -4.483   2.066 130.148  0.00  0.00    -0.491 OA
ATOM     23  C   LIG A   1      -4.222   1.264 131.301  0.00  0.00    +0.277 C 
ENDBRANCH   7  22
BRANCH   9  24
ATOM     24  O   LIG A   1      -4.391   6.622 128.575  0.00  0.00    -0.488 OA
ATOM     25  C   LIG A   1      -3.418   7.572 128.999  0.00  0.00    +0.277 C 
ENDBRANCH   9  24
BRANCH   8  26
ATOM     26  O   LIG A   1      -3.580   4.147 128.303  0.00  0.00    -0.481 OA
BRANCH  26  27
ATOM     27  C   LIG A   1      -4.067   3.523 127.121  0.00  0.00    +0.256 C 
BRANCH  27  28
ATOM     28  C   LIG A   1      -2.987   2.768 126.408  0.00  0.00    +0.006 C 
ATOM     29  C   LIG A   1      -1.655   2.995 126.558  0.00  0.00    +0.007 C 
ENDBRANCH  27  28
ENDBRANCH  26  27
ENDBRANCH   8  26
TORSDOF 7
ENDMDL
