MODEL 1
REMARK VINA RESULT:      -6.8      0.000      0.000
REMARK  Name = NuBBE_1614
REMARK  10 active torsions:
REMARK  status: ('A' for Active; 'I' for Inactive)
REMARK    1  A    between atoms: O_1  and  C_2
REMARK    2  A    between atoms: O_1  and  C_3
REMARK    3  A    between atoms: C_14  and  O_18
REMARK    4  A    between atoms: C_15  and  O_16
REMARK    5  A    between atoms: O_16  and  C_17
REMARK    6  A    between atoms: O_18  and  C_19
REMARK    7  A    between atoms: C_21  and  O_25
REMARK    8  A    between atoms: C_22  and  O_23
REMARK    9  A    between atoms: O_23  and  C_24
REMARK   10  A    between atoms: O_25  and  C_26
REMARK                            x       y       z     vdW  Elec       q    Type
REMARK                         _______ _______ _______ _____ _____    ______ ____
ROOT
ATOM      1  C   LIG A   1      -7.173   5.457 132.884  0.00  0.00    +0.178 A 
ATOM      2  C   LIG A   1      -8.146   6.108 132.092  0.00  0.00    +0.091 A 
ATOM      3  C   LIG A   1      -7.742   6.888 130.999  0.00  0.00    +0.058 A 
ATOM      4  N   LIG A   1      -8.670   7.470 130.127  0.00  0.00    -0.351 N 
ATOM      5  H   LIG A   1      -8.357   7.772 129.209  0.00  0.00    +0.166 HD
ATOM      6  C   LIG A   1     -10.055   7.246 130.207  0.00  0.00    +0.097 A 
ATOM      7  C   LIG A   1     -10.567   6.580 131.323  0.00  0.00    +0.050 A 
ATOM      8  C   LIG A   1      -9.628   6.006 132.338  0.00  0.00    +0.201 A 
ATOM      9  O   LIG A   1     -10.096   5.507 133.340  0.00  0.00    -0.286 OA
ATOM     10  C   LIG A   1     -11.945   6.461 131.487  0.00  0.00    +0.017 A 
ATOM     11  C   LIG A   1     -12.812   7.049 130.559  0.00  0.00    +0.050 A 
ATOM     12  C   LIG A   1     -12.318   7.748 129.448  0.00  0.00    +0.164 A 
ATOM     13  C   LIG A   1     -10.928   7.792 129.237  0.00  0.00    +0.185 A 
ATOM     14  C   LIG A   1      -6.389   7.156 130.808  0.00  0.00    +0.076 A 
ATOM     15  C   LIG A   1      -5.400   6.495 131.541  0.00  0.00    +0.167 A 
ATOM     16  C   LIG A   1      -5.797   5.599 132.558  0.00  0.00    +0.204 A 
ENDROOT
BRANCH   1  17
ATOM     17  O   LIG A   1      -7.637   4.601 133.852  0.00  0.00    -0.491 OA
ATOM     18  C   LIG A   1      -7.457   4.934 135.225  0.00  0.00    +0.277 C 
ENDBRANCH   1  17
BRANCH  13  19
ATOM     19  O   LIG A   1     -10.287   8.385 128.169  0.00  0.00    -0.489 OA
ATOM     20  C   LIG A   1     -10.563   7.875 126.866  0.00  0.00    +0.277 C 
ENDBRANCH  13  19
BRANCH  12  21
ATOM     21  O   LIG A   1     -13.114   8.452 128.582  0.00  0.00    -0.491 OA
ATOM     22  C   LIG A   1     -13.375   9.819 128.879  0.00  0.00    +0.277 C 
ENDBRANCH  12  21
BRANCH  16  23
ATOM     23  O   LIG A   1      -4.956   4.686 133.151  0.00  0.00    -0.488 OA
ATOM     24  C   LIG A   1      -4.680   3.462 132.486  0.00  0.00    +0.277 C 
ENDBRANCH  16  23
BRANCH  15  25
ATOM     25  O   LIG A   1      -4.065   6.629 131.254  0.00  0.00    -0.491 OA
ATOM     26  C   LIG A   1      -3.597   7.881 130.755  0.00  0.00    +0.277 C 
ENDBRANCH  15  25
TORSDOF 5
ENDMDL
MODEL 2
REMARK VINA RESULT:      -6.4      7.886     10.585
REMARK  Name = NuBBE_1614
REMARK  10 active torsions:
REMARK  status: ('A' for Active; 'I' for Inactive)
REMARK    1  A    between atoms: O_1  and  C_2
REMARK    2  A    between atoms: O_1  and  C_3
REMARK    3  A    between atoms: C_14  and  O_18
REMARK    4  A    between atoms: C_15  and  O_16
REMARK    5  A    between atoms: O_16  and  C_17
REMARK    6  A    between atoms: O_18  and  C_19
REMARK    7  A    between atoms: C_21  and  O_25
REMARK    8  A    between atoms: C_22  and  O_23
REMARK    9  A    between atoms: O_23  and  C_24
REMARK   10  A    between atoms: O_25  and  C_26
REMARK                            x       y       z     vdW  Elec       q    Type
REMARK                         _______ _______ _______ _____ _____    ______ ____
ROOT
ATOM      1  C   LIG A   1      -8.721   0.961 124.211  0.00  0.00    +0.178 A 
ATOM      2  C   LIG A   1      -8.112   0.167 125.210  0.00  0.00    +0.091 A 
ATOM      3  C   LIG A   1      -6.894   0.574 125.772  0.00  0.00    +0.058 A 
ATOM      4  N   LIG A   1      -6.303  -0.125 126.832  0.00  0.00    -0.351 N 
ATOM      5  H   LIG A   1      -5.597   0.343 127.393  0.00  0.00    +0.166 HD
ATOM      6  C   LIG A   1      -6.914  -1.211 127.480  0.00  0.00    +0.097 A 
ATOM      7  C   LIG A   1      -8.071  -1.765 126.925  0.00  0.00    +0.050 A 
ATOM      8  C   LIG A   1      -8.706  -1.112 125.737  0.00  0.00    +0.201 A 
ATOM      9  O   LIG A   1      -9.660  -1.657 125.221  0.00  0.00    -0.286 OA
ATOM     10  C   LIG A   1      -8.618  -2.920 127.476  0.00  0.00    +0.017 A 
ATOM     11  C   LIG A   1      -7.984  -3.550 128.552  0.00  0.00    +0.050 A 
ATOM     12  C   LIG A   1      -6.805  -3.028 129.104  0.00  0.00    +0.164 A 
ATOM     13  C   LIG A   1      -6.301  -1.814 128.604  0.00  0.00    +0.185 A 
ATOM     14  C   LIG A   1      -6.211   1.656 125.224  0.00  0.00    +0.076 A 
ATOM     15  C   LIG A   1      -6.801   2.489 124.270  0.00  0.00    +0.167 A 
ATOM     16  C   LIG A   1      -8.091   2.164 123.794  0.00  0.00    +0.204 A 
ENDROOT
BRANCH   1  17
ATOM     17  O   LIG A   1      -9.976   0.582 123.801  0.00  0.00    -0.491 OA
ATOM     18  C   LIG A   1     -10.158   0.084 122.479  0.00  0.00    +0.277 C 
ENDBRANCH   1  17
BRANCH  13  19
ATOM     19  O   LIG A   1      -5.191  -1.141 129.071  0.00  0.00    -0.489 OA
ATOM     20  C   LIG A   1      -5.377  -0.234 130.156  0.00  0.00    +0.277 C 
ENDBRANCH  13  19
BRANCH  12  21
ATOM     21  O   LIG A   1      -6.072  -3.670 130.068  0.00  0.00    -0.491 OA
ATOM     22  C   LIG A   1      -6.485  -3.531 131.422  0.00  0.00    +0.277 C 
ENDBRANCH  12  21
BRANCH  16  23
ATOM     23  O   LIG A   1      -8.891   3.031 123.085  0.00  0.00    -0.488 OA
ATOM     24  C   LIG A   1      -8.643   3.228 121.701  0.00  0.00    +0.277 C 
ENDBRANCH  16  23
BRANCH  15  25
ATOM     25  O   LIG A   1      -6.204   3.647 123.841  0.00  0.00    -0.491 OA
ATOM     26  C   LIG A   1      -6.103   4.740 124.753  0.00  0.00    +0.277 C 
ENDBRANCH  15  25
TORSDOF 5
ENDMDL
MODEL 3
REMARK VINA RESULT:      -6.4      8.333     10.911
REMARK  Name = NuBBE_1614
REMARK  10 active torsions:
REMARK  status: ('A' for Active; 'I' for Inactive)
REMARK    1  A    between atoms: O_1  and  C_2
REMARK    2  A    between atoms: O_1  and  C_3
REMARK    3  A    between atoms: C_14  and  O_18
REMARK    4  A    between atoms: C_15  and  O_16
REMARK    5  A    between atoms: O_16  and  C_17
REMARK    6  A    between atoms: O_18  and  C_19
REMARK    7  A    between atoms: C_21  and  O_25
REMARK    8  A    between atoms: C_22  and  O_23
REMARK    9  A    between atoms: O_23  and  C_24
REMARK   10  A    between atoms: O_25  and  C_26
REMARK                            x       y       z     vdW  Elec       q    Type
REMARK                         _______ _______ _______ _____ _____    ______ ____
ROOT
ATOM      1  C   LIG A   1      -8.661  -1.495 124.654  0.00  0.00    +0.178 A 
ATOM      2  C   LIG A   1      -8.030  -1.525 125.918  0.00  0.00    +0.091 A 
ATOM      3  C   LIG A   1      -7.057  -0.564 126.231  0.00  0.00    +0.058 A 
ATOM      4  N   LIG A   1      -6.477  -0.491 127.502  0.00  0.00    -0.351 N 
ATOM      5  H   LIG A   1      -6.009   0.368 127.779  0.00  0.00    +0.166 HD
ATOM      6  C   LIG A   1      -6.880  -1.289 128.585  0.00  0.00    +0.097 A 
ATOM      7  C   LIG A   1      -7.757  -2.352 128.351  0.00  0.00    +0.050 A 
ATOM      8  C   LIG A   1      -8.349  -2.535 126.988  0.00  0.00    +0.201 A 
ATOM      9  O   LIG A   1      -9.041  -3.512 126.786  0.00  0.00    -0.286 OA
ATOM     10  C   LIG A   1      -8.068  -3.234 129.382  0.00  0.00    +0.017 A 
ATOM     11  C   LIG A   1      -7.467  -3.083 130.636  0.00  0.00    +0.050 A 
ATOM     12  C   LIG A   1      -6.560  -2.041 130.884  0.00  0.00    +0.164 A 
ATOM     13  C   LIG A   1      -6.314  -1.100 129.868  0.00  0.00    +0.185 A 
ATOM     14  C   LIG A   1      -6.599   0.298 125.238  0.00  0.00    +0.076 A 
ATOM     15  C   LIG A   1      -7.229   0.386 123.994  0.00  0.00    +0.167 A 
ATOM     16  C   LIG A   1      -8.304  -0.487 123.718  0.00  0.00    +0.204 A 
ENDROOT
BRANCH   1  17
ATOM     17  O   LIG A   1      -9.698  -2.374 124.461  0.00  0.00    -0.491 OA
ATOM     18  C   LIG A   1      -9.560  -3.418 123.501  0.00  0.00    +0.277 C 
ENDBRANCH   1  17
BRANCH  13  19
ATOM     19  O   LIG A   1      -5.499   0.008 129.968  0.00  0.00    -0.489 OA
ATOM     20  C   LIG A   1      -6.040   1.172 130.591  0.00  0.00    +0.277 C 
ENDBRANCH  13  19
BRANCH  12  21
ATOM     21  O   LIG A   1      -5.843  -1.922 132.047  0.00  0.00    -0.491 OA
ATOM     22  C   LIG A   1      -4.634  -2.662 132.163  0.00  0.00    +0.277 C 
ENDBRANCH  12  21
BRANCH  16  23
ATOM     23  O   LIG A   1      -9.181  -0.322 122.670  0.00  0.00    -0.488 OA
ATOM     24  C   LIG A   1     -10.172   0.692 122.748  0.00  0.00    +0.277 C 
ENDBRANCH  16  23
BRANCH  15  25
ATOM     25  O   LIG A   1      -6.891   1.341 123.069  0.00  0.00    -0.491 OA
ATOM     26  C   LIG A   1      -6.959   2.714 123.450  0.00  0.00    +0.277 C 
ENDBRANCH  15  25
TORSDOF 5
ENDMDL
MODEL 4
REMARK VINA RESULT:      -6.1      7.904     10.160
REMARK  Name = NuBBE_1614
REMARK  10 active torsions:
REMARK  status: ('A' for Active; 'I' for Inactive)
REMARK    1  A    between atoms: O_1  and  C_2
REMARK    2  A    between atoms: O_1  and  C_3
REMARK    3  A    between atoms: C_14  and  O_18
REMARK    4  A    between atoms: C_15  and  O_16
REMARK    5  A    between atoms: O_16  and  C_17
REMARK    6  A    between atoms: O_18  and  C_19
REMARK    7  A    between atoms: C_21  and  O_25
REMARK    8  A    between atoms: C_22  and  O_23
REMARK    9  A    between atoms: O_23  and  C_24
REMARK   10  A    between atoms: O_25  and  C_26
REMARK                            x       y       z     vdW  Elec       q    Type
REMARK                         _______ _______ _______ _____ _____    ______ ____
ROOT
ATOM      1  C   LIG A   1      -7.387   0.237 124.116  0.00  0.00    +0.178 A 
ATOM      2  C   LIG A   1      -6.566   1.060 124.920  0.00  0.00    +0.091 A 
ATOM      3  C   LIG A   1      -5.464   0.502 125.585  0.00  0.00    +0.058 A 
ATOM      4  N   LIG A   1      -4.565   1.293 126.311  0.00  0.00    -0.351 N 
ATOM      5  H   LIG A   1      -3.647   0.917 126.527  0.00  0.00    +0.166 HD
ATOM      6  C   LIG A   1      -4.627   2.696 126.355  0.00  0.00    +0.097 A 
ATOM      7  C   LIG A   1      -5.748   3.339 125.824  0.00  0.00    +0.050 A 
ATOM      8  C   LIG A   1      -6.790   2.537 125.107  0.00  0.00    +0.201 A 
ATOM      9  O   LIG A   1      -7.794   3.104 124.728  0.00  0.00    -0.286 OA
ATOM     10  C   LIG A   1      -5.892   4.715 125.972  0.00  0.00    +0.017 A 
ATOM     11  C   LIG A   1      -4.938   5.444 126.691  0.00  0.00    +0.050 A 
ATOM     12  C   LIG A   1      -3.821   4.813 127.258  0.00  0.00    +0.164 A 
ATOM     13  C   LIG A   1      -3.632   3.438 127.034  0.00  0.00    +0.185 A 
ATOM     14  C   LIG A   1      -5.289  -0.879 125.587  0.00  0.00    +0.076 A 
ATOM     15  C   LIG A   1      -6.052  -1.716 124.769  0.00  0.00    +0.167 A 
ATOM     16  C   LIG A   1      -7.080  -1.144 123.987  0.00  0.00    +0.204 A 
ENDROOT
BRANCH   1  17
ATOM     17  O   LIG A   1      -8.364   0.868 123.386  0.00  0.00    -0.491 OA
ATOM     18  C   LIG A   1      -9.723   0.762 123.800  0.00  0.00    +0.277 C 
ENDBRANCH   1  17
BRANCH  13  19
ATOM     19  O   LIG A   1      -2.563   2.683 127.470  0.00  0.00    -0.489 OA
ATOM     20  C   LIG A   1      -1.343   2.779 126.737  0.00  0.00    +0.277 C 
ENDBRANCH  13  19
BRANCH  12  21
ATOM     21  O   LIG A   1      -2.928   5.451 128.080  0.00  0.00    -0.491 OA
ATOM     22  C   LIG A   1      -2.926   6.873 128.085  0.00  0.00    +0.277 C 
ENDBRANCH  12  21
BRANCH  16  23
ATOM     23  O   LIG A   1      -7.706  -1.790 122.946  0.00  0.00    -0.488 OA
ATOM     24  C   LIG A   1      -8.785  -2.670 123.224  0.00  0.00    +0.277 C 
ENDBRANCH  16  23
BRANCH  15  25
ATOM     25  O   LIG A   1      -5.784  -3.055 124.641  0.00  0.00    -0.491 OA
ATOM     26  C   LIG A   1      -4.775  -3.464 123.718  0.00  0.00    +0.277 C 
ENDBRANCH  15  25
TORSDOF 5
ENDMDL
MODEL 5
REMARK VINA RESULT:      -5.9      7.686     10.225
REMARK  Name = NuBBE_1614
REMARK  10 active torsions:
REMARK  status: ('A' for Active; 'I' for Inactive)
REMARK    1  A    between atoms: O_1  and  C_2
REMARK    2  A    between atoms: O_1  and  C_3
REMARK    3  A    between atoms: C_14  and  O_18
REMARK    4  A    between atoms: C_15  and  O_16
REMARK    5  A    between atoms: O_16  and  C_17
REMARK    6  A    between atoms: O_18  and  C_19
REMARK    7  A    between atoms: C_21  and  O_25
REMARK    8  A    between atoms: C_22  and  O_23
REMARK    9  A    between atoms: O_23  and  C_24
REMARK   10  A    between atoms: O_25  and  C_26
REMARK                            x       y       z     vdW  Elec       q    Type
REMARK                         _______ _______ _______ _____ _____    ______ ____
ROOT
ATOM      1  C   LIG A   1      -8.394  -0.097 124.573  0.00  0.00    +0.178 A 
ATOM      2  C   LIG A   1      -7.472   0.608 125.381  0.00  0.00    +0.091 A 
ATOM      3  C   LIG A   1      -7.098   0.084 126.627  0.00  0.00    +0.058 A 
ATOM      4  N   LIG A   1      -6.116   0.693 127.416  0.00  0.00    -0.351 N 
ATOM      5  H   LIG A   1      -5.672   0.149 128.150  0.00  0.00    +0.166 HD
ATOM      6  C   LIG A   1      -5.361   1.800 126.997  0.00  0.00    +0.097 A 
ATOM      7  C   LIG A   1      -5.732   2.466 125.825  0.00  0.00    +0.050 A 
ATOM      8  C   LIG A   1      -6.834   1.911 124.977  0.00  0.00    +0.201 A 
ATOM      9  O   LIG A   1      -7.196   2.550 124.011  0.00  0.00    -0.286 OA
ATOM     10  C   LIG A   1      -5.081   3.641 125.460  0.00  0.00    +0.017 A 
ATOM     11  C   LIG A   1      -4.090   4.177 126.289  0.00  0.00    +0.050 A 
ATOM     12  C   LIG A   1      -3.723   3.541 127.485  0.00  0.00    +0.164 A 
ATOM     13  C   LIG A   1      -4.320   2.310 127.809  0.00  0.00    +0.185 A 
ATOM     14  C   LIG A   1      -7.765  -1.030 127.132  0.00  0.00    +0.076 A 
ATOM     15  C   LIG A   1      -8.646  -1.776 126.346  0.00  0.00    +0.167 A 
ATOM     16  C   LIG A   1      -8.926  -1.331 125.034  0.00  0.00    +0.204 A 
ENDROOT
BRANCH   1  17
ATOM     17  O   LIG A   1      -8.613   0.397 123.311  0.00  0.00    -0.491 OA
ATOM     18  C   LIG A   1      -9.898   0.911 122.975  0.00  0.00    +0.277 C 
ENDBRANCH   1  17
BRANCH  13  19
ATOM     19  O   LIG A   1      -4.032   1.532 128.911  0.00  0.00    -0.489 OA
ATOM     20  C   LIG A   1      -4.534   1.964 130.174  0.00  0.00    +0.277 C 
ENDBRANCH  13  19
BRANCH  12  21
ATOM     21  O   LIG A   1      -2.857   4.086 128.397  0.00  0.00    -0.491 OA
ATOM     22  C   LIG A   1      -2.512   5.458 128.250  0.00  0.00    +0.277 C 
ENDBRANCH  12  21
BRANCH  16  23
ATOM     23  O   LIG A   1      -9.536  -2.104 124.073  0.00  0.00    -0.488 OA
ATOM     24  C   LIG A   1      -8.758  -3.030 123.330  0.00  0.00    +0.277 C 
ENDBRANCH  16  23
BRANCH  15  25
ATOM     25  O   LIG A   1      -9.184  -2.962 126.776  0.00  0.00    -0.491 OA
ATOM     26  C   LIG A   1      -8.616  -3.592 127.923  0.00  0.00    +0.277 C 
ENDBRANCH  15  25
TORSDOF 5
ENDMDL
MODEL 6
REMARK VINA RESULT:      -5.7      7.403     10.163
REMARK  Name = NuBBE_1614
REMARK  10 active torsions:
REMARK  status: ('A' for Active; 'I' for Inactive)
REMARK    1  A    between atoms: O_1  and  C_2
REMARK    2  A    between atoms: O_1  and  C_3
REMARK    3  A    between atoms: C_14  and  O_18
REMARK    4  A    between atoms: C_15  and  O_16
REMARK    5  A    between atoms: O_16  and  C_17
REMARK    6  A    between atoms: O_18  and  C_19
REMARK    7  A    between atoms: C_21  and  O_25
REMARK    8  A    between atoms: C_22  and  O_23
REMARK    9  A    between atoms: O_23  and  C_24
REMARK   10  A    between atoms: O_25  and  C_26
REMARK                            x       y       z     vdW  Elec       q    Type
REMARK                         _______ _______ _______ _____ _____    ______ ____
ROOT
ATOM      1  C   LIG A   1      -8.931   0.948 125.500  0.00  0.00    +0.178 A 
ATOM      2  C   LIG A   1      -8.500   0.513 126.774  0.00  0.00    +0.091 A 
ATOM      3  C   LIG A   1      -8.031  -0.798 126.938  0.00  0.00    +0.058 A 
ATOM      4  N   LIG A   1      -7.502  -1.243 128.155  0.00  0.00    -0.351 N 
ATOM      5  H   LIG A   1      -6.919  -2.076 128.160  0.00  0.00    +0.166 HD
ATOM      6  C   LIG A   1      -7.304  -0.408 129.266  0.00  0.00    +0.097 A 
ATOM      7  C   LIG A   1      -7.842   0.882 129.245  0.00  0.00    +0.050 A 
ATOM      8  C   LIG A   1      -8.497   1.389 127.999  0.00  0.00    +0.201 A 
ATOM      9  O   LIG A   1      -9.031   2.479 128.030  0.00  0.00    -0.286 OA
ATOM     10  C   LIG A   1      -7.771   1.680 130.383  0.00  0.00    +0.017 A 
ATOM     11  C   LIG A   1      -7.205   1.174 131.558  0.00  0.00    +0.050 A 
ATOM     12  C   LIG A   1      -6.686  -0.128 131.610  0.00  0.00    +0.164 A 
ATOM     13  C   LIG A   1      -6.679  -0.903 130.436  0.00  0.00    +0.185 A 
ATOM     14  C   LIG A   1      -8.154  -1.708 125.891  0.00  0.00    +0.076 A 
ATOM     15  C   LIG A   1      -8.531  -1.304 124.608  0.00  0.00    +0.167 A 
ATOM     16  C   LIG A   1      -8.876   0.050 124.400  0.00  0.00    +0.204 A 
ENDROOT
BRANCH   1  17
ATOM     17  O   LIG A   1      -9.248   2.278 125.377  0.00  0.00    -0.491 OA
ATOM     18  C   LIG A   1      -8.300   3.172 124.802  0.00  0.00    +0.277 C 
ENDBRANCH   1  17
BRANCH  13  19
ATOM     19  O   LIG A   1      -6.158  -2.173 130.303  0.00  0.00    -0.489 OA
ATOM     20  C   LIG A   1      -6.914  -3.257 130.840  0.00  0.00    +0.277 C 
ENDBRANCH  13  19
BRANCH  12  21
ATOM     21  O   LIG A   1      -6.241  -0.721 132.763  0.00  0.00    -0.491 OA
ATOM     22  C   LIG A   1      -4.876  -0.539 133.121  0.00  0.00    +0.277 C 
ENDBRANCH  12  21
BRANCH  16  23
ATOM     23  O   LIG A   1      -8.987   0.635 123.159  0.00  0.00    -0.488 OA
ATOM     24  C   LIG A   1     -10.240   0.611 122.490  0.00  0.00    +0.277 C 
ENDBRANCH  16  23
BRANCH  15  25
ATOM     25  O   LIG A   1      -8.501  -2.156 123.534  0.00  0.00    -0.491 OA
ATOM     26  C   LIG A   1      -9.457  -3.215 123.478  0.00  0.00    +0.277 C 
ENDBRANCH  15  25
TORSDOF 5
ENDMDL
MODEL 7
REMARK VINA RESULT:      -5.6      7.213      9.018
REMARK  Name = NuBBE_1614
REMARK  10 active torsions:
REMARK  status: ('A' for Active; 'I' for Inactive)
REMARK    1  A    between atoms: O_1  and  C_2
REMARK    2  A    between atoms: O_1  and  C_3
REMARK    3  A    between atoms: C_14  and  O_18
REMARK    4  A    between atoms: C_15  and  O_16
REMARK    5  A    between atoms: O_16  and  C_17
REMARK    6  A    between atoms: O_18  and  C_19
REMARK    7  A    between atoms: C_21  and  O_25
REMARK    8  A    between atoms: C_22  and  O_23
REMARK    9  A    between atoms: O_23  and  C_24
REMARK   10  A    between atoms: O_25  and  C_26
REMARK                            x       y       z     vdW  Elec       q    Type
REMARK                         _______ _______ _______ _____ _____    ______ ____
ROOT
ATOM      1  C   LIG A   1      -7.631  -1.332 126.040  0.00  0.00    +0.178 A 
ATOM      2  C   LIG A   1      -7.734  -0.619 127.256  0.00  0.00    +0.091 A 
ATOM      3  C   LIG A   1      -8.016   0.754 127.235  0.00  0.00    +0.058 A 
ATOM      4  N   LIG A   1      -8.226   1.481 128.412  0.00  0.00    -0.351 N 
ATOM      5  H   LIG A   1      -8.702   2.377 128.356  0.00  0.00    +0.166 HD
ATOM      6  C   LIG A   1      -8.273   0.894 129.688  0.00  0.00    +0.097 A 
ATOM      7  C   LIG A   1      -7.892  -0.443 129.830  0.00  0.00    +0.050 A 
ATOM      8  C   LIG A   1      -7.572  -1.254 128.612  0.00  0.00    +0.201 A 
ATOM      9  O   LIG A   1      -7.163  -2.386 128.765  0.00  0.00    -0.286 OA
ATOM     10  C   LIG A   1      -7.805  -1.007 131.099  0.00  0.00    +0.017 A 
ATOM     11  C   LIG A   1      -8.054  -0.223 132.231  0.00  0.00    +0.050 A 
ATOM     12  C   LIG A   1      -8.408   1.129 132.112  0.00  0.00    +0.164 A 
ATOM     13  C   LIG A   1      -8.580   1.675 130.828  0.00  0.00    +0.185 A 
ATOM     14  C   LIG A   1      -8.021   1.436 126.020  0.00  0.00    +0.076 A 
ATOM     15  C   LIG A   1      -7.968   0.759 124.799  0.00  0.00    +0.167 A 
ATOM     16  C   LIG A   1      -7.821  -0.646 124.810  0.00  0.00    +0.204 A 
ENDROOT
BRANCH   1  17
ATOM     17  O   LIG A   1      -7.491  -2.694 126.133  0.00  0.00    -0.491 OA
ATOM     18  C   LIG A   1      -8.635  -3.527 125.973  0.00  0.00    +0.277 C 
ENDBRANCH   1  17
BRANCH  13  19
ATOM     19  O   LIG A   1      -8.979   2.963 130.539  0.00  0.00    -0.489 OA
ATOM     20  C   LIG A   1     -10.371   3.260 130.632  0.00  0.00    +0.277 C 
ENDBRANCH  13  19
BRANCH  12  21
ATOM     21  O   LIG A   1      -8.534   1.975 133.183  0.00  0.00    -0.491 OA
ATOM     22  C   LIG A   1      -7.359   2.612 133.670  0.00  0.00    +0.277 C 
ENDBRANCH  12  21
BRANCH  16  23
ATOM     23  O   LIG A   1      -8.038  -1.451 123.715  0.00  0.00    -0.488 OA
ATOM     24  C   LIG A   1      -6.953  -1.749 122.848  0.00  0.00    +0.277 C 
ENDBRANCH  16  23
BRANCH  15  25
ATOM     25  O   LIG A   1      -8.133   1.403 123.599  0.00  0.00    -0.491 OA
ATOM     26  C   LIG A   1      -8.633   2.739 123.605  0.00  0.00    +0.277 C 
ENDBRANCH  15  25
TORSDOF 5
ENDMDL
MODEL 8
REMARK VINA RESULT:      -5.6      7.654     10.150
REMARK  Name = NuBBE_1614
REMARK  10 active torsions:
REMARK  status: ('A' for Active; 'I' for Inactive)
REMARK    1  A    between atoms: O_1  and  C_2
REMARK    2  A    between atoms: O_1  and  C_3
REMARK    3  A    between atoms: C_14  and  O_18
REMARK    4  A    between atoms: C_15  and  O_16
REMARK    5  A    between atoms: O_16  and  C_17
REMARK    6  A    between atoms: O_18  and  C_19
REMARK    7  A    between atoms: C_21  and  O_25
REMARK    8  A    between atoms: C_22  and  O_23
REMARK    9  A    between atoms: O_23  and  C_24
REMARK   10  A    between atoms: O_25  and  C_26
REMARK                            x       y       z     vdW  Elec       q    Type
REMARK                         _______ _______ _______ _____ _____    ______ ____
ROOT
ATOM      1  C   LIG A   1      -8.634  -1.803 126.081  0.00  0.00    +0.178 A 
ATOM      2  C   LIG A   1      -8.255  -1.464 127.400  0.00  0.00    +0.091 A 
ATOM      3  C   LIG A   1      -8.159  -0.115 127.770  0.00  0.00    +0.058 A 
ATOM      4  N   LIG A   1      -7.884   0.269 129.087  0.00  0.00    -0.351 N 
ATOM      5  H   LIG A   1      -8.104   1.218 129.377  0.00  0.00    +0.166 HD
ATOM      6  C   LIG A   1      -7.784  -0.638 130.155  0.00  0.00    +0.097 A 
ATOM      7  C   LIG A   1      -7.751  -2.007 129.876  0.00  0.00    +0.050 A 
ATOM      8  C   LIG A   1      -7.954  -2.480 128.470  0.00  0.00    +0.201 A 
ATOM      9  O   LIG A   1      -7.837  -3.666 128.238  0.00  0.00    -0.286 OA
ATOM     10  C   LIG A   1      -7.521  -2.918 130.903  0.00  0.00    +0.017 A 
ATOM     11  C   LIG A   1      -7.279  -2.460 132.203  0.00  0.00    +0.050 A 
ATOM     12  C   LIG A   1      -7.278  -1.088 132.498  0.00  0.00    +0.164 A 
ATOM     13  C   LIG A   1      -7.596  -0.174 131.478  0.00  0.00    +0.185 A 
ATOM     14  C   LIG A   1      -8.266   0.874 126.795  0.00  0.00    +0.076 A 
ATOM     15  C   LIG A   1      -8.684   0.580 125.495  0.00  0.00    +0.167 A 
ATOM     16  C   LIG A   1      -8.918  -0.770 125.149  0.00  0.00    +0.204 A 
ENDROOT
BRANCH   1  17
ATOM     17  O   LIG A   1      -8.843  -3.135 125.823  0.00  0.00    -0.491 OA
ATOM     18  C   LIG A   1      -7.947  -3.829 124.959  0.00  0.00    +0.277 C 
ENDBRANCH   1  17
BRANCH  13  19
ATOM     19  O   LIG A   1      -7.694   1.195 131.616  0.00  0.00    -0.489 OA
ATOM     20  C   LIG A   1      -8.896   1.718 132.178  0.00  0.00    +0.277 C 
ENDBRANCH  13  19
BRANCH  12  21
ATOM     21  O   LIG A   1      -6.920  -0.577 133.719  0.00  0.00    -0.491 OA
ATOM     22  C   LIG A   1      -5.926  -1.270 134.465  0.00  0.00    +0.277 C 
ENDBRANCH  12  21
BRANCH  16  23
ATOM     23  O   LIG A   1      -9.592  -1.168 124.017  0.00  0.00    -0.488 OA
ATOM     24  C   LIG A   1      -8.880  -1.301 122.796  0.00  0.00    +0.277 C 
ENDBRANCH  16  23
BRANCH  15  25
ATOM     25  O   LIG A   1      -8.949   1.560 124.573  0.00  0.00    -0.491 OA
ATOM     26  C   LIG A   1      -8.542   2.897 124.863  0.00  0.00    +0.277 C 
ENDBRANCH  15  25
TORSDOF 5
ENDMDL
MODEL 9
REMARK VINA RESULT:      -5.5      7.159     10.571
REMARK  Name = NuBBE_1614
REMARK  10 active torsions:
REMARK  status: ('A' for Active; 'I' for Inactive)
REMARK    1  A    between atoms: O_1  and  C_2
REMARK    2  A    between atoms: O_1  and  C_3
REMARK    3  A    between atoms: C_14  and  O_18
REMARK    4  A    between atoms: C_15  and  O_16
REMARK    5  A    between atoms: O_16  and  C_17
REMARK    6  A    between atoms: O_18  and  C_19
REMARK    7  A    between atoms: C_21  and  O_25
REMARK    8  A    between atoms: C_22  and  O_23
REMARK    9  A    between atoms: O_23  and  C_24
REMARK   10  A    between atoms: O_25  and  C_26
REMARK                            x       y       z     vdW  Elec       q    Type
REMARK                         _______ _______ _______ _____ _____    ______ ____
ROOT
ATOM      1  C   LIG A   1      -7.676  -0.033 127.613  0.00  0.00    +0.178 A 
ATOM      2  C   LIG A   1      -7.288  -0.755 128.765  0.00  0.00    +0.091 A 
ATOM      3  C   LIG A   1      -7.615  -0.261 130.036  0.00  0.00    +0.058 A 
ATOM      4  N   LIG A   1      -7.341  -0.988 131.201  0.00  0.00    -0.351 N 
ATOM      5  H   LIG A   1      -7.837  -0.749 132.055  0.00  0.00    +0.166 HD
ATOM      6  C   LIG A   1      -6.818  -2.291 131.196  0.00  0.00    +0.097 A 
ATOM      7  C   LIG A   1      -6.353  -2.827 129.992  0.00  0.00    +0.050 A 
ATOM      8  C   LIG A   1      -6.540  -2.061 128.720  0.00  0.00    +0.201 A 
ATOM      9  O   LIG A   1      -6.054  -2.506 127.701  0.00  0.00    -0.286 OA
ATOM     10  C   LIG A   1      -5.713  -4.064 129.986  0.00  0.00    +0.017 A 
ATOM     11  C   LIG A   1      -5.496  -4.744 131.189  0.00  0.00    +0.050 A 
ATOM     12  C   LIG A   1      -5.928  -4.209 132.412  0.00  0.00    +0.164 A 
ATOM     13  C   LIG A   1      -6.651  -3.003 132.408  0.00  0.00    +0.185 A 
ATOM     14  C   LIG A   1      -8.163   1.013 130.159  0.00  0.00    +0.076 A 
ATOM     15  C   LIG A   1      -8.600   1.734 129.044  0.00  0.00    +0.167 A 
ATOM     16  C   LIG A   1      -8.398   1.182 127.760  0.00  0.00    +0.204 A 
ENDROOT
BRANCH   1  17
ATOM     17  O   LIG A   1      -7.448  -0.636 126.401  0.00  0.00    -0.491 OA
ATOM     18  C   LIG A   1      -8.512  -1.328 125.754  0.00  0.00    +0.277 C 
ENDBRANCH   1  17
BRANCH  13  19
ATOM     19  O   LIG A   1      -7.193  -2.377 133.510  0.00  0.00    -0.489 OA
ATOM     20  C   LIG A   1      -8.341  -2.972 134.111  0.00  0.00    +0.277 C 
ENDBRANCH  13  19
BRANCH  12  21
ATOM     21  O   LIG A   1      -5.629  -4.765 133.629  0.00  0.00    -0.491 OA
ATOM     22  C   LIG A   1      -4.393  -4.410 134.237  0.00  0.00    +0.277 C 
ENDBRANCH  12  21
BRANCH  16  23
ATOM     23  O   LIG A   1      -9.020   1.637 126.620  0.00  0.00    -0.488 OA
ATOM     24  C   LIG A   1      -8.327   2.534 125.763  0.00  0.00    +0.277 C 
ENDBRANCH  16  23
BRANCH  15  25
ATOM     25  O   LIG A   1      -9.285   2.917 129.161  0.00  0.00    -0.491 OA
ATOM     26  C   LIG A   1      -8.855   3.860 130.142  0.00  0.00    +0.277 C 
ENDBRANCH  15  25
TORSDOF 5
ENDMDL
