MODEL 1
REMARK VINA RESULT:      -7.0      0.000      0.000
REMARK  Name = NuBBE_1858
REMARK  11 active torsions:
REMARK  status: ('A' for Active; 'I' for Inactive)
REMARK    1  A    between atoms: O_1  and  C_2
REMARK    2  A    between atoms: C_7  and  C_8
REMARK    3  A    between atoms: C_8  and  C_9
REMARK    4  A    between atoms: C_9  and  C_10
REMARK    5  A    between atoms: C_10  and  C_11
REMARK    6  A    between atoms: C_11  and  C_12
REMARK    7  A    between atoms: C_12  and  O_14
REMARK    8  A    between atoms: C_12  and  C_15
REMARK    9  A    between atoms: C_15  and  C_16
REMARK   10  A    between atoms: C_16  and  C_17
REMARK   11  A    between atoms: C_20  and  O_21
REMARK                            x       y       z     vdW  Elec       q    Type
REMARK                         _______ _______ _______ _____ _____    ______ ____
ROOT
ATOM      1  C   LIG A   1      -8.790  -3.014 126.085  0.00  0.00    +0.115 C 
ENDROOT
BRANCH   1   2
ATOM      2  O   LIG A   1     -10.129  -2.881 125.608  0.00  0.00    -0.392 OA
ATOM      3  H   LIG A   1     -10.091  -2.332 124.806  0.00  0.00    +0.210 HD
ENDBRANCH   1   2
BRANCH   1   4
ATOM      4  C   LIG A   1      -7.922  -3.604 124.958  0.00  0.00    +0.031 C 
BRANCH   4   5
ATOM      5  C   LIG A   1      -6.560  -2.913 124.766  0.00  0.00    +0.003 C 
BRANCH   5   6
ATOM      6  C   LIG A   1      -6.413  -2.196 123.417  0.00  0.00    +0.005 C 
BRANCH   6   7
ATOM      7  C   LIG A   1      -7.736  -1.654 122.863  0.00  0.00    +0.035 C 
BRANCH   7  13
ATOM      8  C   LIG A   1      -8.760   2.251 124.362  0.00  0.00    +0.117 A 
ATOM      9  C   LIG A   1      -7.421   1.880 124.254  0.00  0.00    +0.045 A 
ATOM     10  C   LIG A   1      -7.105   0.613 123.754  0.00  0.00    +0.007 A 
ATOM     11  C   LIG A   1      -9.768   1.389 123.964  0.00  0.00    +0.045 A 
ATOM     12  C   LIG A   1      -9.453   0.122 123.470  0.00  0.00    +0.007 A 
ATOM     13  C   LIG A   1      -8.110  -0.280 123.364  0.00  0.00    -0.047 A 
BRANCH   8  14
ATOM     14  O   LIG A   1      -9.112   3.467 124.869  0.00  0.00    -0.507 OA
ATOM     15  H   LIG A   1      -9.837   3.826 124.336  0.00  0.00    +0.292 HD
ENDBRANCH   8  14
ENDBRANCH   7  13
ENDBRANCH   6   7
ENDBRANCH   5   6
ENDBRANCH   4   5
ENDBRANCH   1   4
BRANCH   1  16
ATOM     16  C   LIG A   1      -8.809  -3.872 127.360  0.00  0.00    +0.036 C 
BRANCH  16  17
ATOM     17  C   LIG A   1      -8.429  -3.184 128.681  0.00  0.00    +0.037 C 
BRANCH  17  18
ATOM     18  C   LIG A   1      -6.972  -3.158 129.091  0.00  0.00    -0.047 A 
ATOM     19  C   LIG A   1      -6.028  -2.399 128.378  0.00  0.00    +0.007 A 
ATOM     20  C   LIG A   1      -4.660  -2.518 128.617  0.00  0.00    +0.045 A 
ATOM     21  C   LIG A   1      -4.218  -3.427 129.555  0.00  0.00    +0.117 A 
ATOM     22  C   LIG A   1      -5.123  -4.158 130.316  0.00  0.00    +0.045 A 
ATOM     23  C   LIG A   1      -6.496  -4.024 130.084  0.00  0.00    +0.007 A 
BRANCH  21  24
ATOM     24  O   LIG A   1      -2.887  -3.672 129.718  0.00  0.00    -0.507 OA
ATOM     25  H   LIG A   1      -2.404  -2.987 129.220  0.00  0.00    +0.292 HD
ENDBRANCH  21  24
ENDBRANCH  17  18
ENDBRANCH  16  17
ENDBRANCH   1  16
TORSDOF 11
ENDMDL
MODEL 2
REMARK VINA RESULT:      -7.0      0.738      7.090
REMARK  Name = NuBBE_1858
REMARK  11 active torsions:
REMARK  status: ('A' for Active; 'I' for Inactive)
REMARK    1  A    between atoms: O_1  and  C_2
REMARK    2  A    between atoms: C_7  and  C_8
REMARK    3  A    between atoms: C_8  and  C_9
REMARK    4  A    between atoms: C_9  and  C_10
REMARK    5  A    between atoms: C_10  and  C_11
REMARK    6  A    between atoms: C_11  and  C_12
REMARK    7  A    between atoms: C_12  and  O_14
REMARK    8  A    between atoms: C_12  and  C_15
REMARK    9  A    between atoms: C_15  and  C_16
REMARK   10  A    between atoms: C_16  and  C_17
REMARK   11  A    between atoms: C_20  and  O_21
REMARK                            x       y       z     vdW  Elec       q    Type
REMARK                         _______ _______ _______ _____ _____    ______ ____
ROOT
ATOM      1  C   LIG A   1      -8.674  -3.296 123.766  0.00  0.00    +0.115 C 
ENDROOT
BRANCH   1   2
ATOM      2  O   LIG A   1     -10.089  -3.285 123.960  0.00  0.00    -0.392 OA
ATOM      3  H   LIG A   1     -10.275  -2.628 124.652  0.00  0.00    +0.210 HD
ENDBRANCH   1   2
BRANCH   1   4
ATOM      4  C   LIG A   1      -7.988  -3.144 125.136  0.00  0.00    +0.031 C 
BRANCH   4   5
ATOM      5  C   LIG A   1      -8.940  -2.821 126.301  0.00  0.00    +0.003 C 
BRANCH   5   6
ATOM      6  C   LIG A   1      -8.831  -3.798 127.480  0.00  0.00    +0.005 C 
BRANCH   6   7
ATOM      7  C   LIG A   1      -8.420  -3.129 128.796  0.00  0.00    +0.035 C 
BRANCH   7  13
ATOM      8  C   LIG A   1      -4.204  -3.416 129.624  0.00  0.00    +0.117 A 
ATOM      9  C   LIG A   1      -4.654  -2.573 128.610  0.00  0.00    +0.045 A 
ATOM     10  C   LIG A   1      -6.027  -2.481 128.362  0.00  0.00    +0.007 A 
ATOM     11  C   LIG A   1      -5.099  -4.143 130.390  0.00  0.00    +0.045 A 
ATOM     12  C   LIG A   1      -6.470  -4.056 130.139  0.00  0.00    +0.007 A 
ATOM     13  C   LIG A   1      -6.947  -3.222 129.114  0.00  0.00    -0.047 A 
BRANCH   8  14
ATOM     14  O   LIG A   1      -2.871  -3.555 129.881  0.00  0.00    -0.507 OA
ATOM     15  H   LIG A   1      -2.436  -2.704 129.724  0.00  0.00    +0.292 HD
ENDBRANCH   8  14
ENDBRANCH   7  13
ENDBRANCH   6   7
ENDBRANCH   5   6
ENDBRANCH   4   5
ENDBRANCH   1   4
BRANCH   1  16
ATOM     16  C   LIG A   1      -8.310  -2.185 122.768  0.00  0.00    +0.036 C 
BRANCH  16  17
ATOM     17  C   LIG A   1      -7.324  -1.105 123.243  0.00  0.00    +0.037 C 
BRANCH  17  18
ATOM     18  C   LIG A   1      -7.860   0.274 123.563  0.00  0.00    -0.047 A 
ATOM     19  C   LIG A   1      -7.053   1.417 123.438  0.00  0.00    +0.007 A 
ATOM     20  C   LIG A   1      -7.463   2.662 123.914  0.00  0.00    +0.045 A 
ATOM     21  C   LIG A   1      -8.681   2.768 124.553  0.00  0.00    +0.117 A 
ATOM     22  C   LIG A   1      -9.530   1.673 124.649  0.00  0.00    +0.045 A 
ATOM     23  C   LIG A   1      -9.121   0.429 124.157  0.00  0.00    +0.007 A 
BRANCH  21  24
ATOM     24  O   LIG A   1      -9.055   3.934 125.152  0.00  0.00    -0.507 OA
ATOM     25  H   LIG A   1      -8.340   4.579 125.001  0.00  0.00    +0.292 HD
ENDBRANCH  21  24
ENDBRANCH  17  18
ENDBRANCH  16  17
ENDBRANCH   1  16
TORSDOF 11
ENDMDL
MODEL 3
REMARK VINA RESULT:      -6.9      3.401      7.926
REMARK  Name = NuBBE_1858
REMARK  11 active torsions:
REMARK  status: ('A' for Active; 'I' for Inactive)
REMARK    1  A    between atoms: O_1  and  C_2
REMARK    2  A    between atoms: C_7  and  C_8
REMARK    3  A    between atoms: C_8  and  C_9
REMARK    4  A    between atoms: C_9  and  C_10
REMARK    5  A    between atoms: C_10  and  C_11
REMARK    6  A    between atoms: C_11  and  C_12
REMARK    7  A    between atoms: C_12  and  O_14
REMARK    8  A    between atoms: C_12  and  C_15
REMARK    9  A    between atoms: C_15  and  C_16
REMARK   10  A    between atoms: C_16  and  C_17
REMARK   11  A    between atoms: C_20  and  O_21
REMARK                            x       y       z     vdW  Elec       q    Type
REMARK                         _______ _______ _______ _____ _____    ______ ____
ROOT
ATOM      1  C   LIG A   1      -8.264   1.525 125.005  0.00  0.00    +0.115 C 
ENDROOT
BRANCH   1   2
ATOM      2  O   LIG A   1      -9.607   1.499 125.489  0.00  0.00    -0.392 OA
ATOM      3  H   LIG A   1     -10.173   1.237 124.742  0.00  0.00    +0.210 HD
ENDBRANCH   1   2
BRANCH   1   4
ATOM      4  C   LIG A   1      -7.306   1.383 126.202  0.00  0.00    +0.031 C 
BRANCH   4   5
ATOM      5  C   LIG A   1      -5.862   1.000 125.830  0.00  0.00    +0.003 C 
BRANCH   5   6
ATOM      6  C   LIG A   1      -5.515  -0.466 126.120  0.00  0.00    +0.005 C 
BRANCH   6   7
ATOM      7  C   LIG A   1      -5.420  -1.334 124.860  0.00  0.00    +0.035 C 
BRANCH   7  13
ATOM      8  C   LIG A   1      -9.156  -3.110 123.660  0.00  0.00    +0.117 A 
ATOM      9  C   LIG A   1      -8.454  -2.303 122.766  0.00  0.00    +0.045 A 
ATOM     10  C   LIG A   1      -7.237  -1.745 123.167  0.00  0.00    +0.007 A 
ATOM     11  C   LIG A   1      -8.652  -3.373 124.923  0.00  0.00    +0.045 A 
ATOM     12  C   LIG A   1      -7.439  -2.810 125.325  0.00  0.00    +0.007 A 
ATOM     13  C   LIG A   1      -6.719  -1.983 124.446  0.00  0.00    -0.047 A 
BRANCH   8  14
ATOM     14  O   LIG A   1     -10.359  -3.653 123.319  0.00  0.00    -0.507 OA
ATOM     15  H   LIG A   1     -10.977  -2.934 123.118  0.00  0.00    +0.292 HD
ENDBRANCH   8  14
ENDBRANCH   7  13
ENDBRANCH   6   7
ENDBRANCH   5   6
ENDBRANCH   4   5
ENDBRANCH   1   4
BRANCH   1  16
ATOM     16  C   LIG A   1      -8.060   2.821 124.204  0.00  0.00    +0.036 C 
BRANCH  16  17
ATOM     17  C   LIG A   1      -8.485   2.812 122.727  0.00  0.00    +0.037 C 
BRANCH  17  18
ATOM     18  C   LIG A   1      -7.524   3.361 121.693  0.00  0.00    -0.047 A 
ATOM     19  C   LIG A   1      -6.174   3.596 122.005  0.00  0.00    +0.007 A 
ATOM     20  C   LIG A   1      -5.328   4.281 121.134  0.00  0.00    +0.045 A 
ATOM     21  C   LIG A   1      -5.837   4.770 119.949  0.00  0.00    +0.117 A 
ATOM     22  C   LIG A   1      -7.152   4.514 119.582  0.00  0.00    +0.045 A 
ATOM     23  C   LIG A   1      -7.994   3.812 120.452  0.00  0.00    +0.007 A 
BRANCH  21  24
ATOM     24  O   LIG A   1      -5.080   5.562 119.139  0.00  0.00    -0.507 OA
ATOM     25  H   LIG A   1      -4.503   4.974 118.616  0.00  0.00    +0.292 HD
ENDBRANCH  21  24
ENDBRANCH  17  18
ENDBRANCH  16  17
ENDBRANCH   1  16
TORSDOF 11
ENDMDL
MODEL 4
REMARK VINA RESULT:      -6.9      2.490      5.700
REMARK  Name = NuBBE_1858
REMARK  11 active torsions:
REMARK  status: ('A' for Active; 'I' for Inactive)
REMARK    1  A    between atoms: O_1  and  C_2
REMARK    2  A    between atoms: C_7  and  C_8
REMARK    3  A    between atoms: C_8  and  C_9
REMARK    4  A    between atoms: C_9  and  C_10
REMARK    5  A    between atoms: C_10  and  C_11
REMARK    6  A    between atoms: C_11  and  C_12
REMARK    7  A    between atoms: C_12  and  O_14
REMARK    8  A    between atoms: C_12  and  C_15
REMARK    9  A    between atoms: C_15  and  C_16
REMARK   10  A    between atoms: C_16  and  C_17
REMARK   11  A    between atoms: C_20  and  O_21
REMARK                            x       y       z     vdW  Elec       q    Type
REMARK                         _______ _______ _______ _____ _____    ______ ____
ROOT
ATOM      1  C   LIG A   1      -8.796  -3.337 123.394  0.00  0.00    +0.115 C 
ENDROOT
BRANCH   1   2
ATOM      2  O   LIG A   1     -10.216  -3.343 123.538  0.00  0.00    -0.392 OA
ATOM      3  H   LIG A   1     -10.538  -2.482 123.217  0.00  0.00    +0.210 HD
ENDBRANCH   1   2
BRANCH   1   4
ATOM      4  C   LIG A   1      -8.159  -3.445 124.792  0.00  0.00    +0.031 C 
BRANCH   4   5
ATOM      5  C   LIG A   1      -9.119  -3.163 125.961  0.00  0.00    +0.003 C 
BRANCH   5   6
ATOM      6  C   LIG A   1      -8.409  -2.828 127.280  0.00  0.00    +0.005 C 
BRANCH   6   7
ATOM      7  C   LIG A   1      -6.964  -2.352 127.094  0.00  0.00    +0.035 C 
BRANCH   7  13
ATOM      8  C   LIG A   1      -6.311   1.855 127.745  0.00  0.00    +0.117 A 
ATOM      9  C   LIG A   1      -5.315   1.083 127.150  0.00  0.00    +0.045 A 
ATOM     10  C   LIG A   1      -5.547  -0.278 126.934  0.00  0.00    +0.007 A 
ATOM     11  C   LIG A   1      -7.524   1.291 128.104  0.00  0.00    +0.045 A 
ATOM     12  C   LIG A   1      -7.754  -0.070 127.894  0.00  0.00    +0.007 A 
ATOM     13  C   LIG A   1      -6.759  -0.871 127.307  0.00  0.00    -0.047 A 
BRANCH   8  14
ATOM     14  O   LIG A   1      -6.115   3.181 127.997  0.00  0.00    -0.507 OA
ATOM     15  H   LIG A   1      -5.170   3.331 128.145  0.00  0.00    +0.292 HD
ENDBRANCH   8  14
ENDBRANCH   7  13
ENDBRANCH   6   7
ENDBRANCH   5   6
ENDBRANCH   4   5
ENDBRANCH   1   4
BRANCH   1  16
ATOM     16  C   LIG A   1      -8.388  -2.069 122.628  0.00  0.00    +0.036 C 
BRANCH  16  17
ATOM     17  C   LIG A   1      -7.296  -1.186 123.254  0.00  0.00    +0.037 C 
BRANCH  17  18
ATOM     18  C   LIG A   1      -7.707   0.109 123.922  0.00  0.00    -0.047 A 
ATOM     19  C   LIG A   1      -8.990   0.272 124.470  0.00  0.00    +0.007 A 
ATOM     20  C   LIG A   1      -9.449   1.513 124.908  0.00  0.00    +0.045 A 
ATOM     21  C   LIG A   1      -8.635   2.617 124.771  0.00  0.00    +0.117 A 
ATOM     22  C   LIG A   1      -7.341   2.488 124.282  0.00  0.00    +0.045 A 
ATOM     23  C   LIG A   1      -6.878   1.238 123.858  0.00  0.00    +0.007 A 
BRANCH  21  24
ATOM     24  O   LIG A   1      -9.098   3.867 125.057  0.00  0.00    -0.507 OA
ATOM     25  H   LIG A   1      -8.638   4.489 124.464  0.00  0.00    +0.292 HD
ENDBRANCH  21  24
ENDBRANCH  17  18
ENDBRANCH  16  17
ENDBRANCH   1  16
TORSDOF 11
ENDMDL
MODEL 5
REMARK VINA RESULT:      -6.7      2.927      7.884
REMARK  Name = NuBBE_1858
REMARK  11 active torsions:
REMARK  status: ('A' for Active; 'I' for Inactive)
REMARK    1  A    between atoms: O_1  and  C_2
REMARK    2  A    between atoms: C_7  and  C_8
REMARK    3  A    between atoms: C_8  and  C_9
REMARK    4  A    between atoms: C_9  and  C_10
REMARK    5  A    between atoms: C_10  and  C_11
REMARK    6  A    between atoms: C_11  and  C_12
REMARK    7  A    between atoms: C_12  and  O_14
REMARK    8  A    between atoms: C_12  and  C_15
REMARK    9  A    between atoms: C_15  and  C_16
REMARK   10  A    between atoms: C_16  and  C_17
REMARK   11  A    between atoms: C_20  and  O_21
REMARK                            x       y       z     vdW  Elec       q    Type
REMARK                         _______ _______ _______ _____ _____    ______ ____
ROOT
ATOM      1  C   LIG A   1      -7.927  -0.467 123.698  0.00  0.00    +0.115 C 
ENDROOT
BRANCH   1   2
ATOM      2  O   LIG A   1      -6.724  -0.520 122.931  0.00  0.00    -0.392 OA
ATOM      3  H   LIG A   1      -6.607  -1.444 122.649  0.00  0.00    +0.210 HD
ENDBRANCH   1   2
BRANCH   1   4
ATOM      4  C   LIG A   1      -9.033  -1.216 122.931  0.00  0.00    +0.031 C 
BRANCH   4   5
ATOM      5  C   LIG A   1      -9.189  -2.699 123.311  0.00  0.00    +0.003 C 
BRANCH   5   6
ATOM      6  C   LIG A   1      -8.318  -3.130 124.499  0.00  0.00    +0.005 C 
BRANCH   6   7
ATOM      7  C   LIG A   1      -9.125  -3.517 125.743  0.00  0.00    +0.035 C 
BRANCH   7  13
ATOM      8  C   LIG A   1      -7.485  -1.956 129.406  0.00  0.00    +0.117 A 
ATOM      9  C   LIG A   1      -7.420  -1.196 128.240  0.00  0.00    +0.045 A 
ATOM     10  C   LIG A   1      -7.969  -1.712 127.062  0.00  0.00    +0.007 A 
ATOM     11  C   LIG A   1      -8.098  -3.198 129.410  0.00  0.00    +0.045 A 
ATOM     12  C   LIG A   1      -8.641  -3.715 128.232  0.00  0.00    +0.007 A 
ATOM     13  C   LIG A   1      -8.576  -2.973 127.040  0.00  0.00    -0.047 A 
BRANCH   8  14
ATOM     14  O   LIG A   1      -6.939  -1.502 130.571  0.00  0.00    -0.507 OA
ATOM     15  H   LIG A   1      -6.348  -0.762 130.367  0.00  0.00    +0.292 HD
ENDBRANCH   8  14
ENDBRANCH   7  13
ENDBRANCH   6   7
ENDBRANCH   5   6
ENDBRANCH   4   5
ENDBRANCH   1   4
BRANCH   1  16
ATOM     16  C   LIG A   1      -8.262   1.006 123.979  0.00  0.00    +0.036 C 
BRANCH  16  17
ATOM     17  C   LIG A   1      -7.167   2.046 123.693  0.00  0.00    +0.037 C 
BRANCH  17  18
ATOM     18  C   LIG A   1      -7.289   2.905 122.453  0.00  0.00    -0.047 A 
ATOM     19  C   LIG A   1      -8.542   3.191 121.884  0.00  0.00    +0.007 A 
ATOM     20  C   LIG A   1      -8.660   3.809 120.641  0.00  0.00    +0.045 A 
ATOM     21  C   LIG A   1      -7.518   4.120 119.933  0.00  0.00    +0.117 A 
ATOM     22  C   LIG A   1      -6.261   3.900 120.484  0.00  0.00    +0.045 A 
ATOM     23  C   LIG A   1      -6.146   3.294 121.740  0.00  0.00    +0.007 A 
BRANCH  21  24
ATOM     24  O   LIG A   1      -7.593   4.595 118.658  0.00  0.00    -0.507 OA
ATOM     25  H   LIG A   1      -6.682   4.659 118.319  0.00  0.00    +0.292 HD
ENDBRANCH  21  24
ENDBRANCH  17  18
ENDBRANCH  16  17
ENDBRANCH   1  16
TORSDOF 11
ENDMDL
MODEL 6
REMARK VINA RESULT:      -6.7      1.587      2.319
REMARK  Name = NuBBE_1858
REMARK  11 active torsions:
REMARK  status: ('A' for Active; 'I' for Inactive)
REMARK    1  A    between atoms: O_1  and  C_2
REMARK    2  A    between atoms: C_7  and  C_8
REMARK    3  A    between atoms: C_8  and  C_9
REMARK    4  A    between atoms: C_9  and  C_10
REMARK    5  A    between atoms: C_10  and  C_11
REMARK    6  A    between atoms: C_11  and  C_12
REMARK    7  A    between atoms: C_12  and  O_14
REMARK    8  A    between atoms: C_12  and  C_15
REMARK    9  A    between atoms: C_15  and  C_16
REMARK   10  A    between atoms: C_16  and  C_17
REMARK   11  A    between atoms: C_20  and  O_21
REMARK                            x       y       z     vdW  Elec       q    Type
REMARK                         _______ _______ _______ _____ _____    ______ ____
ROOT
ATOM      1  C   LIG A   1      -8.816  -2.757 124.301  0.00  0.00    +0.115 C 
ENDROOT
BRANCH   1   2
ATOM      2  O   LIG A   1     -10.007  -3.240 123.679  0.00  0.00    -0.392 OA
ATOM      3  H   LIG A   1     -10.028  -2.869 122.780  0.00  0.00    +0.210 HD
ENDBRANCH   1   2
BRANCH   1   4
ATOM      4  C   LIG A   1      -7.749  -3.866 124.249  0.00  0.00    +0.031 C 
BRANCH   4   5
ATOM      5  C   LIG A   1      -6.300  -3.374 124.418  0.00  0.00    +0.003 C 
BRANCH   5   6
ATOM      6  C   LIG A   1      -6.024  -2.018 123.755  0.00  0.00    +0.005 C 
BRANCH   6   7
ATOM      7  C   LIG A   1      -5.611  -0.924 124.746  0.00  0.00    +0.035 C 
BRANCH   7  13
ATOM      8  C   LIG A   1      -8.328   2.412 124.949  0.00  0.00    +0.117 A 
ATOM      9  C   LIG A   1      -8.236   1.664 123.776  0.00  0.00    +0.045 A 
ATOM     10  C   LIG A   1      -7.359   0.577 123.731  0.00  0.00    +0.007 A 
ATOM     11  C   LIG A   1      -7.577   2.077 126.063  0.00  0.00    +0.045 A 
ATOM     12  C   LIG A   1      -6.696   0.995 126.016  0.00  0.00    +0.007 A 
ATOM     13  C   LIG A   1      -6.577   0.234 124.841  0.00  0.00    -0.047 A 
BRANCH   8  14
ATOM     14  O   LIG A   1      -9.152   3.496 125.027  0.00  0.00    -0.507 OA
ATOM     15  H   LIG A   1      -8.613   4.282 125.198  0.00  0.00    +0.292 HD
ENDBRANCH   8  14
ENDBRANCH   7  13
ENDBRANCH   6   7
ENDBRANCH   5   6
ENDBRANCH   4   5
ENDBRANCH   1   4
BRANCH   1  16
ATOM     16  C   LIG A   1      -9.160  -2.302 125.727  0.00  0.00    +0.036 C 
BRANCH  16  17
ATOM     17  C   LIG A   1      -9.053  -3.348 126.849  0.00  0.00    +0.037 C 
BRANCH  17  18
ATOM     18  C   LIG A   1      -8.094  -3.090 127.991  0.00  0.00    -0.047 A 
ATOM     19  C   LIG A   1      -8.395  -3.496 129.302  0.00  0.00    +0.007 A 
ATOM     20  C   LIG A   1      -7.622  -3.095 130.391  0.00  0.00    +0.045 A 
ATOM     21  C   LIG A   1      -6.552  -2.251 130.180  0.00  0.00    +0.117 A 
ATOM     22  C   LIG A   1      -6.191  -1.870 128.894  0.00  0.00    +0.045 A 
ATOM     23  C   LIG A   1      -6.960  -2.287 127.802  0.00  0.00    +0.007 A 
BRANCH  21  24
ATOM     24  O   LIG A   1      -5.859  -1.727 131.231  0.00  0.00    -0.507 OA
ATOM     25  H   LIG A   1      -5.777  -0.768 131.073  0.00  0.00    +0.292 HD
ENDBRANCH  21  24
ENDBRANCH  17  18
ENDBRANCH  16  17
ENDBRANCH   1  16
TORSDOF 11
ENDMDL
MODEL 7
REMARK VINA RESULT:      -6.6      3.669      6.106
REMARK  Name = NuBBE_1858
REMARK  11 active torsions:
REMARK  status: ('A' for Active; 'I' for Inactive)
REMARK    1  A    between atoms: O_1  and  C_2
REMARK    2  A    between atoms: C_7  and  C_8
REMARK    3  A    between atoms: C_8  and  C_9
REMARK    4  A    between atoms: C_9  and  C_10
REMARK    5  A    between atoms: C_10  and  C_11
REMARK    6  A    between atoms: C_11  and  C_12
REMARK    7  A    between atoms: C_12  and  O_14
REMARK    8  A    between atoms: C_12  and  C_15
REMARK    9  A    between atoms: C_15  and  C_16
REMARK   10  A    between atoms: C_16  and  C_17
REMARK   11  A    between atoms: C_20  and  O_21
REMARK                            x       y       z     vdW  Elec       q    Type
REMARK                         _______ _______ _______ _____ _____    ______ ____
ROOT
ATOM      1  C   LIG A   1      -5.312   1.566 126.397  0.00  0.00    +0.115 C 
ENDROOT
BRANCH   1   2
ATOM      2  O   LIG A   1      -4.623   1.910 127.599  0.00  0.00    -0.392 OA
ATOM      3  H   LIG A   1      -4.866   1.245 128.266  0.00  0.00    +0.210 HD
ENDBRANCH   1   2
BRANCH   1   4
ATOM      4  C   LIG A   1      -6.525   2.502 126.240  0.00  0.00    +0.031 C 
BRANCH   4   5
ATOM      5  C   LIG A   1      -7.341   2.287 124.953  0.00  0.00    +0.003 C 
BRANCH   5   6
ATOM      6  C   LIG A   1      -6.986   3.264 123.823  0.00  0.00    +0.005 C 
BRANCH   6   7
ATOM      7  C   LIG A   1      -6.610   2.570 122.509  0.00  0.00    +0.035 C 
BRANCH   7  13
ATOM      8  C   LIG A   1      -5.915   5.309 119.259  0.00  0.00    +0.117 A 
ATOM      9  C   LIG A   1      -4.960   5.171 120.265  0.00  0.00    +0.045 A 
ATOM     10  C   LIG A   1      -5.196   4.269 121.306  0.00  0.00    +0.007 A 
ATOM     11  C   LIG A   1      -7.075   4.553 119.276  0.00  0.00    +0.045 A 
ATOM     12  C   LIG A   1      -7.313   3.656 120.319  0.00  0.00    +0.007 A 
ATOM     13  C   LIG A   1      -6.371   3.509 121.351  0.00  0.00    -0.047 A 
BRANCH   8  14
ATOM     14  O   LIG A   1      -5.738   6.198 118.240  0.00  0.00    -0.507 OA
ATOM     15  H   LIG A   1      -6.086   7.059 118.516  0.00  0.00    +0.292 HD
ENDBRANCH   8  14
ENDBRANCH   7  13
ENDBRANCH   6   7
ENDBRANCH   5   6
ENDBRANCH   4   5
ENDBRANCH   1   4
BRANCH   1  16
ATOM     16  C   LIG A   1      -5.688   0.077 126.459  0.00  0.00    +0.036 C 
BRANCH  16  17
ATOM     17  C   LIG A   1      -5.391  -0.779 125.218  0.00  0.00    +0.037 C 
BRANCH  17  18
ATOM     18  C   LIG A   1      -6.516  -1.593 124.613  0.00  0.00    -0.047 A 
ATOM     19  C   LIG A   1      -7.155  -1.187 123.429  0.00  0.00    +0.007 A 
ATOM     20  C   LIG A   1      -8.314  -1.811 122.970  0.00  0.00    +0.045 A 
ATOM     21  C   LIG A   1      -8.867  -2.833 123.713  0.00  0.00    +0.117 A 
ATOM     22  C   LIG A   1      -8.236  -3.296 124.861  0.00  0.00    +0.045 A 
ATOM     23  C   LIG A   1      -7.065  -2.678 125.311  0.00  0.00    +0.007 A 
BRANCH  21  24
ATOM     24  O   LIG A   1     -10.071  -3.372 123.371  0.00  0.00    -0.507 OA
ATOM     25  H   LIG A   1     -10.052  -3.534 122.410  0.00  0.00    +0.292 HD
ENDBRANCH  21  24
ENDBRANCH  17  18
ENDBRANCH  16  17
ENDBRANCH   1  16
TORSDOF 11
ENDMDL
MODEL 8
REMARK VINA RESULT:      -6.5      3.747      6.175
REMARK  Name = NuBBE_1858
REMARK  11 active torsions:
REMARK  status: ('A' for Active; 'I' for Inactive)
REMARK    1  A    between atoms: O_1  and  C_2
REMARK    2  A    between atoms: C_7  and  C_8
REMARK    3  A    between atoms: C_8  and  C_9
REMARK    4  A    between atoms: C_9  and  C_10
REMARK    5  A    between atoms: C_10  and  C_11
REMARK    6  A    between atoms: C_11  and  C_12
REMARK    7  A    between atoms: C_12  and  O_14
REMARK    8  A    between atoms: C_12  and  C_15
REMARK    9  A    between atoms: C_15  and  C_16
REMARK   10  A    between atoms: C_16  and  C_17
REMARK   11  A    between atoms: C_20  and  O_21
REMARK                            x       y       z     vdW  Elec       q    Type
REMARK                         _______ _______ _______ _____ _____    ______ ____
ROOT
ATOM      1  C   LIG A   1      -9.404   2.181 124.386  0.00  0.00    +0.115 C 
ENDROOT
BRANCH   1   2
ATOM      2  O   LIG A   1      -9.437   2.807 123.103  0.00  0.00    -0.392 OA
ATOM      3  H   LIG A   1      -8.977   2.213 122.485  0.00  0.00    +0.210 HD
ENDBRANCH   1   2
BRANCH   1   4
ATOM      4  C   LIG A   1      -7.964   2.240 124.926  0.00  0.00    +0.031 C 
BRANCH   4   5
ATOM      5  C   LIG A   1      -7.481   3.647 125.321  0.00  0.00    +0.003 C 
BRANCH   5   6
ATOM      6  C   LIG A   1      -6.410   4.221 124.383  0.00  0.00    +0.005 C 
BRANCH   6   7
ATOM      7  C   LIG A   1      -6.009   3.266 123.253  0.00  0.00    +0.035 C 
BRANCH   7  13
ATOM      8  C   LIG A   1      -5.776   5.172 119.398  0.00  0.00    +0.117 A 
ATOM      9  C   LIG A   1      -4.771   5.387 120.339  0.00  0.00    +0.045 A 
ATOM     10  C   LIG A   1      -4.855   4.751 121.581  0.00  0.00    +0.007 A 
ATOM     11  C   LIG A   1      -6.837   4.327 119.677  0.00  0.00    +0.045 A 
ATOM     12  C   LIG A   1      -6.925   3.696 120.919  0.00  0.00    +0.007 A 
ATOM     13  C   LIG A   1      -5.930   3.908 121.889  0.00  0.00    -0.047 A 
BRANCH   8  14
ATOM     14  O   LIG A   1      -5.746   5.793 118.185  0.00  0.00    -0.507 OA
ATOM     15  H   LIG A   1      -6.655   5.998 117.920  0.00  0.00    +0.292 HD
ENDBRANCH   8  14
ENDBRANCH   7  13
ENDBRANCH   6   7
ENDBRANCH   5   6
ENDBRANCH   4   5
ENDBRANCH   1   4
BRANCH   1  16
ATOM     16  C   LIG A   1      -9.951   0.751 124.245  0.00  0.00    +0.036 C 
BRANCH  16  17
ATOM     17  C   LIG A   1      -9.529  -0.047 123.001  0.00  0.00    +0.037 C 
BRANCH  17  18
ATOM     18  C   LIG A   1      -8.486  -1.133 123.156  0.00  0.00    -0.047 A 
ATOM     19  C   LIG A   1      -8.821  -2.398 123.668  0.00  0.00    +0.007 A 
ATOM     20  C   LIG A   1      -7.846  -3.337 124.002  0.00  0.00    +0.045 A 
ATOM     21  C   LIG A   1      -6.515  -3.004 123.857  0.00  0.00    +0.117 A 
ATOM     22  C   LIG A   1      -6.145  -1.784 123.306  0.00  0.00    +0.045 A 
ATOM     23  C   LIG A   1      -7.127  -0.850 122.957  0.00  0.00    +0.007 A 
BRANCH  21  24
ATOM     24  O   LIG A   1      -5.535  -3.840 124.302  0.00  0.00    -0.507 OA
ATOM     25  H   LIG A   1      -5.492  -4.591 123.682  0.00  0.00    +0.292 HD
ENDBRANCH  21  24
ENDBRANCH  17  18
ENDBRANCH  16  17
ENDBRANCH   1  16
TORSDOF 11
ENDMDL
MODEL 9
REMARK VINA RESULT:      -6.5      2.045      5.116
REMARK  Name = NuBBE_1858
REMARK  11 active torsions:
REMARK  status: ('A' for Active; 'I' for Inactive)
REMARK    1  A    between atoms: O_1  and  C_2
REMARK    2  A    between atoms: C_7  and  C_8
REMARK    3  A    between atoms: C_8  and  C_9
REMARK    4  A    between atoms: C_9  and  C_10
REMARK    5  A    between atoms: C_10  and  C_11
REMARK    6  A    between atoms: C_11  and  C_12
REMARK    7  A    between atoms: C_12  and  O_14
REMARK    8  A    between atoms: C_12  and  C_15
REMARK    9  A    between atoms: C_15  and  C_16
REMARK   10  A    between atoms: C_16  and  C_17
REMARK   11  A    between atoms: C_20  and  O_21
REMARK                            x       y       z     vdW  Elec       q    Type
REMARK                         _______ _______ _______ _____ _____    ______ ____
ROOT
ATOM      1  C   LIG A   1      -4.918  -1.077 128.852  0.00  0.00    +0.115 C 
ENDROOT
BRANCH   1   2
ATOM      2  O   LIG A   1      -3.895  -1.674 129.648  0.00  0.00    -0.392 OA
ATOM      3  H   LIG A   1      -3.783  -1.113 130.435  0.00  0.00    +0.210 HD
ENDBRANCH   1   2
BRANCH   1   4
ATOM      4  C   LIG A   1      -5.882  -0.315 129.779  0.00  0.00    +0.031 C 
BRANCH   4   5
ATOM      5  C   LIG A   1      -7.332  -0.228 129.270  0.00  0.00    +0.003 C 
BRANCH   5   6
ATOM      6  C   LIG A   1      -7.691   1.128 128.648  0.00  0.00    +0.005 C 
BRANCH   6   7
ATOM      7  C   LIG A   1      -6.983   1.399 127.315  0.00  0.00    +0.035 C 
BRANCH   7  13
ATOM      8  C   LIG A   1      -9.368   0.437 123.862  0.00  0.00    +0.117 A 
ATOM      9  C   LIG A   1      -9.978   0.576 125.108  0.00  0.00    +0.045 A 
ATOM     10  C   LIG A   1      -9.191   0.900 126.216  0.00  0.00    +0.007 A 
ATOM     11  C   LIG A   1      -8.006   0.634 123.714  0.00  0.00    +0.045 A 
ATOM     12  C   LIG A   1      -7.219   0.953 124.823  0.00  0.00    +0.007 A 
ATOM     13  C   LIG A   1      -7.809   1.085 126.091  0.00  0.00    -0.047 A 
BRANCH   8  14
ATOM     14  O   LIG A   1     -10.095   0.096 122.759  0.00  0.00    -0.507 OA
ATOM     15  H   LIG A   1     -10.701  -0.621 122.999  0.00  0.00    +0.292 HD
ENDBRANCH   8  14
ENDBRANCH   7  13
ENDBRANCH   6   7
ENDBRANCH   5   6
ENDBRANCH   4   5
ENDBRANCH   1   4
BRANCH   1  16
ATOM     16  C   LIG A   1      -5.600  -2.179 128.026  0.00  0.00    +0.036 C 
BRANCH  16  17
ATOM     17  C   LIG A   1      -5.651  -1.991 126.502  0.00  0.00    +0.037 C 
BRANCH  17  18
ATOM     18  C   LIG A   1      -6.834  -2.553 125.741  0.00  0.00    -0.047 A 
ATOM     19  C   LIG A   1      -6.754  -2.823 124.365  0.00  0.00    +0.007 A 
ATOM     20  C   LIG A   1      -7.882  -3.151 123.615  0.00  0.00    +0.045 A 
ATOM     21  C   LIG A   1      -9.115  -3.180 124.232  0.00  0.00    +0.117 A 
ATOM     22  C   LIG A   1      -9.227  -2.970 125.601  0.00  0.00    +0.045 A 
ATOM     23  C   LIG A   1      -8.090  -2.657 126.354  0.00  0.00    +0.007 A 
BRANCH  21  24
ATOM     24  O   LIG A   1     -10.255  -3.359 123.507  0.00  0.00    -0.507 OA
ATOM     25  H   LIG A   1     -10.259  -4.283 123.198  0.00  0.00    +0.292 HD
ENDBRANCH  21  24
ENDBRANCH  17  18
ENDBRANCH  16  17
ENDBRANCH   1  16
TORSDOF 11
ENDMDL
