MODEL 1
REMARK VINA RESULT:      -8.3      0.000      0.000
REMARK  Name = NuBBE_2281
REMARK  9 active torsions:
REMARK  status: ('A' for Active; 'I' for Inactive)
REMARK    1  A    between atoms: O_1  and  C_2
REMARK    2  A    between atoms: C_7  and  C_8
REMARK    3  A    between atoms: C_11  and  O_12
REMARK    4  A    between atoms: O_12  and  C_13
REMARK    5  A    between atoms: C_13  and  C_14
REMARK    6  A    between atoms: C_15  and  C_16
REMARK    7  A    between atoms: C_15  and  C_17
REMARK    8  A    between atoms: C_27  and  C_28
REMARK    9  A    between atoms: C_27  and  C_29
REMARK                            x       y       z     vdW  Elec       q    Type
REMARK                         _______ _______ _______ _____ _____    ______ ____
ROOT
ATOM      1  C   LIG A   1      -7.565   0.842 125.684  0.00  0.00    +0.142 A 
ATOM      2  C   LIG A   1      -7.710   1.032 127.067  0.00  0.00    +0.107 A 
ATOM      3  C   LIG A   1      -7.328   0.026 127.950  0.00  0.00    +0.145 A 
ATOM      4  O   LIG A   1      -7.459   0.137 129.312  0.00  0.00    -0.462 OA
ATOM      5  C   LIG A   1      -8.011   1.295 129.811  0.00  0.00    +0.208 A 
ATOM      6  C   LIG A   1      -8.412   2.360 129.103  0.00  0.00    +0.064 A 
ATOM      7  C   LIG A   1      -8.262   2.285 127.626  0.00  0.00    +0.204 A 
ATOM      8  O   LIG A   1      -8.578   3.198 126.877  0.00  0.00    -0.286 OA
ATOM      9  C   LIG A   1      -6.788  -1.164 127.464  0.00  0.00    +0.093 A 
ATOM     10  C   LIG A   1      -6.642  -1.355 126.088  0.00  0.00    +0.136 A 
ATOM     11  C   LIG A   1      -7.028  -0.358 125.185  0.00  0.00    +0.059 A 
ATOM     12  C   LIG A   1      -6.852  -0.591 123.757  0.00  0.00    +0.015 C 
ATOM     13  C   LIG A   1      -6.375  -1.774 123.359  0.00  0.00    +0.020 C 
ATOM     14  C   LIG A   1      -6.009  -2.882 124.317  0.00  0.00    +0.123 C 
ATOM     15  C   LIG A   1      -6.942  -4.077 124.092  0.00  0.00    +0.060 C 
ATOM     16  C   LIG A   1      -4.554  -3.300 124.070  0.00  0.00    +0.060 C 
ATOM     17  O   LIG A   1      -6.095  -2.553 125.718  0.00  0.00    -0.481 OA
ENDROOT
BRANCH   6  18
ATOM     18  C   LIG A   1      -8.994   3.532 129.772  0.00  0.00    -0.011 A 
ATOM     19  C   LIG A   1      -8.211   4.668 130.014  0.00  0.00    +0.012 A 
ATOM     20  C   LIG A   1      -8.746   5.779 130.679  0.00  0.00    +0.046 A 
ATOM     21  C   LIG A   1     -10.075   5.778 131.102  0.00  0.00    +0.121 A 
ATOM     22  C   LIG A   1     -10.869   4.662 130.829  0.00  0.00    +0.046 A 
ATOM     23  C   LIG A   1     -10.335   3.545 130.172  0.00  0.00    +0.012 A 
BRANCH  21  24
ATOM     24  O   LIG A   1     -10.706   6.786 131.782  0.00  0.00    -0.488 OA
BRANCH  24  25
ATOM     25  C   LIG A   1     -12.127   6.851 131.651  0.00  0.00    +0.256 C 
BRANCH  25  26
ATOM     26  C   LIG A   1     -12.464   7.986 130.726  0.00  0.00    +0.012 C 
ATOM     27  C   LIG A   1     -12.848   7.909 129.435  0.00  0.00    -0.076 C 
ATOM     28  C   LIG A   1     -13.033   6.630 128.665  0.00  0.00    +0.038 C 
ATOM     29  C   LIG A   1     -13.144   9.156 128.642  0.00  0.00    +0.038 C 
ENDBRANCH  25  26
ENDBRANCH  24  25
ENDBRANCH  21  24
ENDBRANCH   6  18
BRANCH   1  30
ATOM     30  O   LIG A   1      -7.942   1.808 124.780  0.00  0.00    -0.505 OA
ATOM     31  H   LIG A   1      -8.389   2.536 125.270  0.00  0.00    +0.292 HD
ENDBRANCH   1  30
TORSDOF 5
ENDMDL
MODEL 2
REMARK VINA RESULT:      -8.1      4.304      9.081
REMARK  Name = NuBBE_2281
REMARK  9 active torsions:
REMARK  status: ('A' for Active; 'I' for Inactive)
REMARK    1  A    between atoms: O_1  and  C_2
REMARK    2  A    between atoms: C_7  and  C_8
REMARK    3  A    between atoms: C_11  and  O_12
REMARK    4  A    between atoms: O_12  and  C_13
REMARK    5  A    between atoms: C_13  and  C_14
REMARK    6  A    between atoms: C_15  and  C_16
REMARK    7  A    between atoms: C_15  and  C_17
REMARK    8  A    between atoms: C_27  and  C_28
REMARK    9  A    between atoms: C_27  and  C_29
REMARK                            x       y       z     vdW  Elec       q    Type
REMARK                         _______ _______ _______ _____ _____    ______ ____
ROOT
ATOM      1  C   LIG A   1      -4.277   3.823 128.232  0.00  0.00    +0.142 A 
ATOM      2  C   LIG A   1      -5.314   2.978 128.657  0.00  0.00    +0.107 A 
ATOM      3  C   LIG A   1      -5.757   3.029 129.975  0.00  0.00    +0.145 A 
ATOM      4  O   LIG A   1      -6.753   2.220 130.462  0.00  0.00    -0.462 OA
ATOM      5  C   LIG A   1      -7.319   1.309 129.599  0.00  0.00    +0.208 A 
ATOM      6  C   LIG A   1      -7.022   1.145 128.302  0.00  0.00    +0.064 A 
ATOM      7  C   LIG A   1      -5.964   2.022 127.734  0.00  0.00    +0.204 A 
ATOM      8  O   LIG A   1      -5.618   1.976 126.563  0.00  0.00    -0.286 OA
ATOM      9  C   LIG A   1      -5.181   3.928 130.872  0.00  0.00    +0.093 A 
ATOM     10  C   LIG A   1      -4.149   4.771 130.452  0.00  0.00    +0.136 A 
ATOM     11  C   LIG A   1      -3.686   4.727 129.132  0.00  0.00    +0.059 A 
ATOM     12  C   LIG A   1      -2.613   5.629 128.730  0.00  0.00    +0.015 C 
ATOM     13  C   LIG A   1      -2.074   6.428 129.654  0.00  0.00    +0.020 C 
ATOM     14  C   LIG A   1      -2.522   6.446 131.096  0.00  0.00    +0.123 C 
ATOM     15  C   LIG A   1      -1.375   5.962 131.990  0.00  0.00    +0.060 C 
ATOM     16  C   LIG A   1      -2.919   7.876 131.481  0.00  0.00    +0.060 C 
ATOM     17  O   LIG A   1      -3.661   5.619 131.408  0.00  0.00    -0.481 OA
ENDROOT
BRANCH   6  18
ATOM     18  C   LIG A   1      -7.705   0.122 127.497  0.00  0.00    -0.011 A 
ATOM     19  C   LIG A   1      -8.490   0.495 126.400  0.00  0.00    +0.012 A 
ATOM     20  C   LIG A   1      -9.172  -0.469 125.645  0.00  0.00    +0.046 A 
ATOM     21  C   LIG A   1      -9.070  -1.822 125.968  0.00  0.00    +0.121 A 
ATOM     22  C   LIG A   1      -8.257  -2.201 127.038  0.00  0.00    +0.046 A 
ATOM     23  C   LIG A   1      -7.581  -1.239 127.801  0.00  0.00    +0.012 A 
BRANCH  21  24
ATOM     24  O   LIG A   1      -9.704  -2.854 125.328  0.00  0.00    -0.488 OA
BRANCH  24  25
ATOM     25  C   LIG A   1      -9.211  -3.200 124.033  0.00  0.00    +0.256 C 
BRANCH  25  26
ATOM     26  C   LIG A   1      -7.773  -3.614 124.170  0.00  0.00    +0.012 C 
ATOM     27  C   LIG A   1      -6.681  -2.953 123.732  0.00  0.00    -0.076 C 
ATOM     28  C   LIG A   1      -6.703  -1.629 123.018  0.00  0.00    +0.038 C 
ATOM     29  C   LIG A   1      -5.299  -3.516 123.949  0.00  0.00    +0.038 C 
ENDBRANCH  25  26
ENDBRANCH  24  25
ENDBRANCH  21  24
ENDBRANCH   6  18
BRANCH   1  30
ATOM     30  O   LIG A   1      -3.805   3.793 126.941  0.00  0.00    -0.505 OA
ATOM     31  H   LIG A   1      -2.866   3.498 126.958  0.00  0.00    +0.292 HD
ENDBRANCH   1  30
TORSDOF 5
ENDMDL
MODEL 3
REMARK VINA RESULT:      -7.9      6.174     10.106
REMARK  Name = NuBBE_2281
REMARK  9 active torsions:
REMARK  status: ('A' for Active; 'I' for Inactive)
REMARK    1  A    between atoms: O_1  and  C_2
REMARK    2  A    between atoms: C_7  and  C_8
REMARK    3  A    between atoms: C_11  and  O_12
REMARK    4  A    between atoms: O_12  and  C_13
REMARK    5  A    between atoms: C_13  and  C_14
REMARK    6  A    between atoms: C_15  and  C_16
REMARK    7  A    between atoms: C_15  and  C_17
REMARK    8  A    between atoms: C_27  and  C_28
REMARK    9  A    between atoms: C_27  and  C_29
REMARK                            x       y       z     vdW  Elec       q    Type
REMARK                         _______ _______ _______ _____ _____    ______ ____
ROOT
ATOM      1  C   LIG A   1      -6.512  -1.758 133.580  0.00  0.00    +0.142 A 
ATOM      2  C   LIG A   1      -6.428  -2.568 132.437  0.00  0.00    +0.107 A 
ATOM      3  C   LIG A   1      -5.600  -3.687 132.437  0.00  0.00    +0.145 A 
ATOM      4  O   LIG A   1      -5.456  -4.512 131.349  0.00  0.00    -0.462 OA
ATOM      5  C   LIG A   1      -6.156  -4.195 130.207  0.00  0.00    +0.208 A 
ATOM      6  C   LIG A   1      -7.004  -3.169 130.047  0.00  0.00    +0.064 A 
ATOM      7  C   LIG A   1      -7.203  -2.269 131.214  0.00  0.00    +0.204 A 
ATOM      8  O   LIG A   1      -7.962  -1.311 131.194  0.00  0.00    -0.286 OA
ATOM      9  C   LIG A   1      -4.864  -4.013 133.576  0.00  0.00    +0.093 A 
ATOM     10  C   LIG A   1      -4.947  -3.209 134.716  0.00  0.00    +0.136 A 
ATOM     11  C   LIG A   1      -5.768  -2.076 134.730  0.00  0.00    +0.059 A 
ATOM     12  C   LIG A   1      -5.834  -1.267 135.941  0.00  0.00    +0.015 C 
ATOM     13  C   LIG A   1      -5.064  -1.609 136.978  0.00  0.00    +0.020 C 
ATOM     14  C   LIG A   1      -4.129  -2.794 136.958  0.00  0.00    +0.123 C 
ATOM     15  C   LIG A   1      -2.681  -2.301 137.066  0.00  0.00    +0.060 C 
ATOM     16  C   LIG A   1      -4.458  -3.715 138.139  0.00  0.00    +0.060 C 
ATOM     17  O   LIG A   1      -4.192  -3.622 135.778  0.00  0.00    -0.481 OA
ENDROOT
BRANCH   6  18
ATOM     18  C   LIG A   1      -7.680  -2.945 128.762  0.00  0.00    -0.011 A 
ATOM     19  C   LIG A   1      -7.405  -1.796 128.011  0.00  0.00    +0.012 A 
ATOM     20  C   LIG A   1      -8.067  -1.555 126.799  0.00  0.00    +0.046 A 
ATOM     21  C   LIG A   1      -9.006  -2.466 126.313  0.00  0.00    +0.121 A 
ATOM     22  C   LIG A   1      -9.255  -3.631 127.041  0.00  0.00    +0.046 A 
ATOM     23  C   LIG A   1      -8.602  -3.871 128.258  0.00  0.00    +0.012 A 
BRANCH  21  24
ATOM     24  O   LIG A   1      -9.736  -2.334 125.162  0.00  0.00    -0.488 OA
BRANCH  24  25
ATOM     25  C   LIG A   1      -9.382  -3.197 124.080  0.00  0.00    +0.256 C 
BRANCH  25  26
ATOM     26  C   LIG A   1      -8.357  -2.497 123.234  0.00  0.00    +0.012 C 
ATOM     27  C   LIG A   1      -7.016  -2.628 123.288  0.00  0.00    -0.076 C 
ATOM     28  C   LIG A   1      -6.276  -3.543 124.225  0.00  0.00    +0.038 C 
ATOM     29  C   LIG A   1      -6.124  -1.839 122.362  0.00  0.00    +0.038 C 
ENDBRANCH  25  26
ENDBRANCH  24  25
ENDBRANCH  21  24
ENDBRANCH   6  18
BRANCH   1  30
ATOM     30  O   LIG A   1      -7.310  -0.639 133.613  0.00  0.00    -0.505 OA
ATOM     31  H   LIG A   1      -7.359  -0.263 132.704  0.00  0.00    +0.292 HD
ENDBRANCH   1  30
TORSDOF 5
ENDMDL
MODEL 4
REMARK VINA RESULT:      -7.9      2.498      3.343
REMARK  Name = NuBBE_2281
REMARK  9 active torsions:
REMARK  status: ('A' for Active; 'I' for Inactive)
REMARK    1  A    between atoms: O_1  and  C_2
REMARK    2  A    between atoms: C_7  and  C_8
REMARK    3  A    between atoms: C_11  and  O_12
REMARK    4  A    between atoms: O_12  and  C_13
REMARK    5  A    between atoms: C_13  and  C_14
REMARK    6  A    between atoms: C_15  and  C_16
REMARK    7  A    between atoms: C_15  and  C_17
REMARK    8  A    between atoms: C_27  and  C_28
REMARK    9  A    between atoms: C_27  and  C_29
REMARK                            x       y       z     vdW  Elec       q    Type
REMARK                         _______ _______ _______ _____ _____    ______ ____
ROOT
ATOM      1  C   LIG A   1      -8.692   0.775 126.354  0.00  0.00    +0.142 A 
ATOM      2  C   LIG A   1      -8.267   0.424 127.645  0.00  0.00    +0.107 A 
ATOM      3  C   LIG A   1      -7.736  -0.840 127.882  0.00  0.00    +0.145 A 
ATOM      4  O   LIG A   1      -7.319  -1.256 129.121  0.00  0.00    -0.462 OA
ATOM      5  C   LIG A   1      -7.454  -0.377 130.172  0.00  0.00    +0.208 A 
ATOM      6  C   LIG A   1      -7.926   0.876 130.111  0.00  0.00    +0.064 A 
ATOM      7  C   LIG A   1      -8.364   1.369 128.778  0.00  0.00    +0.204 A 
ATOM      8  O   LIG A   1      -8.798   2.497 128.595  0.00  0.00    -0.286 OA
ATOM      9  C   LIG A   1      -7.613  -1.755 126.836  0.00  0.00    +0.093 A 
ATOM     10  C   LIG A   1      -8.034  -1.407 125.550  0.00  0.00    +0.136 A 
ATOM     11  C   LIG A   1      -8.577  -0.143 125.295  0.00  0.00    +0.059 A 
ATOM     12  C   LIG A   1      -8.997   0.185 123.938  0.00  0.00    +0.015 C 
ATOM     13  C   LIG A   1      -8.896  -0.756 122.995  0.00  0.00    +0.020 C 
ATOM     14  C   LIG A   1      -8.367  -2.144 123.266  0.00  0.00    +0.123 C 
ATOM     15  C   LIG A   1      -9.487  -3.167 123.045  0.00  0.00    +0.060 C 
ATOM     16  C   LIG A   1      -7.199  -2.432 122.314  0.00  0.00    +0.060 C 
ATOM     17  O   LIG A   1      -7.860  -2.373 124.597  0.00  0.00    -0.481 OA
ENDROOT
BRANCH   6  18
ATOM     18  C   LIG A   1      -8.021   1.704 131.321  0.00  0.00    -0.011 A 
ATOM     19  C   LIG A   1      -9.254   1.879 131.961  0.00  0.00    +0.012 A 
ATOM     20  C   LIG A   1      -9.365   2.692 133.097  0.00  0.00    +0.046 A 
ATOM     21  C   LIG A   1      -8.240   3.333 133.619  0.00  0.00    +0.121 A 
ATOM     22  C   LIG A   1      -7.002   3.131 133.005  0.00  0.00    +0.046 A 
ATOM     23  C   LIG A   1      -6.891   2.326 131.864  0.00  0.00    +0.012 A 
BRANCH  21  24
ATOM     24  O   LIG A   1      -8.220   4.170 134.703  0.00  0.00    -0.488 OA
BRANCH  24  25
ATOM     25  C   LIG A   1      -7.948   5.547 134.440  0.00  0.00    +0.256 C 
BRANCH  25  26
ATOM     26  C   LIG A   1      -8.767   5.973 133.255  0.00  0.00    +0.012 C 
ATOM     27  C   LIG A   1      -8.320   6.396 132.055  0.00  0.00    -0.076 C 
ATOM     28  C   LIG A   1      -6.871   6.507 131.664  0.00  0.00    +0.038 C 
ATOM     29  C   LIG A   1      -9.285   6.795 130.967  0.00  0.00    +0.038 C 
ENDBRANCH  25  26
ENDBRANCH  24  25
ENDBRANCH  21  24
ENDBRANCH   6  18
BRANCH   1  30
ATOM     30  O   LIG A   1      -9.232   2.011 126.084  0.00  0.00    -0.505 OA
ATOM     31  H   LIG A   1      -9.946   1.900 125.415  0.00  0.00    +0.292 HD
ENDBRANCH   1  30
TORSDOF 5
ENDMDL
MODEL 5
REMARK VINA RESULT:      -7.9      7.411      8.935
REMARK  Name = NuBBE_2281
REMARK  9 active torsions:
REMARK  status: ('A' for Active; 'I' for Inactive)
REMARK    1  A    between atoms: O_1  and  C_2
REMARK    2  A    between atoms: C_7  and  C_8
REMARK    3  A    between atoms: C_11  and  O_12
REMARK    4  A    between atoms: O_12  and  C_13
REMARK    5  A    between atoms: C_13  and  C_14
REMARK    6  A    between atoms: C_15  and  C_16
REMARK    7  A    between atoms: C_15  and  C_17
REMARK    8  A    between atoms: C_27  and  C_28
REMARK    9  A    between atoms: C_27  and  C_29
REMARK                            x       y       z     vdW  Elec       q    Type
REMARK                         _______ _______ _______ _____ _____    ______ ____
ROOT
ATOM      1  C   LIG A   1      -3.089   4.437 128.503  0.00  0.00    +0.142 A 
ATOM      2  C   LIG A   1      -3.160   4.789 129.860  0.00  0.00    +0.107 A 
ATOM      3  C   LIG A   1      -4.046   4.126 130.704  0.00  0.00    +0.145 A 
ATOM      4  O   LIG A   1      -4.180   4.431 132.036  0.00  0.00    -0.462 OA
ATOM      5  C   LIG A   1      -3.409   5.453 132.541  0.00  0.00    +0.208 A 
ATOM      6  C   LIG A   1      -2.500   6.175 131.871  0.00  0.00    +0.064 A 
ATOM      7  C   LIG A   1      -2.310   5.855 130.432  0.00  0.00    +0.204 A 
ATOM      8  O   LIG A   1      -1.500   6.434 129.722  0.00  0.00    -0.286 OA
ATOM      9  C   LIG A   1      -4.853   3.103 130.207  0.00  0.00    +0.093 A 
ATOM     10  C   LIG A   1      -4.784   2.750 128.857  0.00  0.00    +0.136 A 
ATOM     11  C   LIG A   1      -3.904   3.411 127.992  0.00  0.00    +0.059 A 
ATOM     12  C   LIG A   1      -3.855   3.009 126.592  0.00  0.00    +0.015 C 
ATOM     13  C   LIG A   1      -4.692   2.056 126.173  0.00  0.00    +0.020 C 
ATOM     14  C   LIG A   1      -5.688   1.373 127.081  0.00  0.00    +0.123 C 
ATOM     15  C   LIG A   1      -7.110   1.714 126.622  0.00  0.00    +0.060 C 
ATOM     16  C   LIG A   1      -5.466  -0.143 127.019  0.00  0.00    +0.060 C 
ATOM     17  O   LIG A   1      -5.611   1.731 128.476  0.00  0.00    -0.481 OA
ENDROOT
BRANCH   6  18
ATOM     18  C   LIG A   1      -1.750   7.248 132.540  0.00  0.00    -0.011 A 
ATOM     19  C   LIG A   1      -2.348   8.494 132.761  0.00  0.00    +0.012 A 
ATOM     20  C   LIG A   1      -1.633   9.536 133.368  0.00  0.00    +0.046 A 
ATOM     21  C   LIG A   1      -0.312   9.342 133.775  0.00  0.00    +0.121 A 
ATOM     22  C   LIG A   1       0.274   8.089 133.591  0.00  0.00    +0.046 A 
ATOM     23  C   LIG A   1      -0.435   7.048 132.975  0.00  0.00    +0.012 A 
BRANCH  21  24
ATOM     24  O   LIG A   1       0.498  10.283 134.354  0.00  0.00    -0.488 OA
BRANCH  24  25
ATOM     25  C   LIG A   1       0.160  11.650 134.116  0.00  0.00    +0.256 C 
BRANCH  25  26
ATOM     26  C   LIG A   1       0.820  12.084 132.839  0.00  0.00    +0.012 C 
ATOM     27  C   LIG A   1       0.227  12.578 131.733  0.00  0.00    -0.076 C 
ATOM     28  C   LIG A   1      -1.251  12.808 131.576  0.00  0.00    +0.038 C 
ATOM     29  C   LIG A   1       1.043  12.962 130.524  0.00  0.00    +0.038 C 
ENDBRANCH  25  26
ENDBRANCH  24  25
ENDBRANCH  21  24
ENDBRANCH   6  18
BRANCH   1  30
ATOM     30  O   LIG A   1      -2.234   5.077 127.636  0.00  0.00    -0.505 OA
ATOM     31  H   LIG A   1      -1.309   4.853 127.888  0.00  0.00    +0.292 HD
ENDBRANCH   1  30
TORSDOF 5
ENDMDL
MODEL 6
REMARK VINA RESULT:      -7.8      7.315      9.090
REMARK  Name = NuBBE_2281
REMARK  9 active torsions:
REMARK  status: ('A' for Active; 'I' for Inactive)
REMARK    1  A    between atoms: O_1  and  C_2
REMARK    2  A    between atoms: C_7  and  C_8
REMARK    3  A    between atoms: C_11  and  O_12
REMARK    4  A    between atoms: O_12  and  C_13
REMARK    5  A    between atoms: C_13  and  C_14
REMARK    6  A    between atoms: C_15  and  C_16
REMARK    7  A    between atoms: C_15  and  C_17
REMARK    8  A    between atoms: C_27  and  C_28
REMARK    9  A    between atoms: C_27  and  C_29
REMARK                            x       y       z     vdW  Elec       q    Type
REMARK                         _______ _______ _______ _____ _____    ______ ____
ROOT
ATOM      1  C   LIG A   1      -3.461   5.016 127.987  0.00  0.00    +0.142 A 
ATOM      2  C   LIG A   1      -3.678   5.520 129.278  0.00  0.00    +0.107 A 
ATOM      3  C   LIG A   1      -4.896   5.299 129.914  0.00  0.00    +0.145 A 
ATOM      4  O   LIG A   1      -5.184   5.778 131.168  0.00  0.00    -0.462 OA
ATOM      5  C   LIG A   1      -4.219   6.524 131.807  0.00  0.00    +0.208 A 
ATOM      6  C   LIG A   1      -2.994   6.812 131.344  0.00  0.00    +0.064 A 
ATOM      7  C   LIG A   1      -2.640   6.288 129.998  0.00  0.00    +0.204 A 
ATOM      8  O   LIG A   1      -1.549   6.472 129.478  0.00  0.00    -0.286 OA
ATOM      9  C   LIG A   1      -5.896   4.565 129.275  0.00  0.00    +0.093 A 
ATOM     10  C   LIG A   1      -5.682   4.062 127.990  0.00  0.00    +0.136 A 
ATOM     11  C   LIG A   1      -4.466   4.281 127.333  0.00  0.00    +0.059 A 
ATOM     12  C   LIG A   1      -4.277   3.732 125.996  0.00  0.00    +0.015 C 
ATOM     13  C   LIG A   1      -5.295   3.083 125.424  0.00  0.00    +0.020 C 
ATOM     14  C   LIG A   1      -6.633   2.888 126.097  0.00  0.00    +0.123 C 
ATOM     15  C   LIG A   1      -7.711   3.642 125.309  0.00  0.00    +0.060 C 
ATOM     16  C   LIG A   1      -6.962   1.391 126.135  0.00  0.00    +0.060 C 
ATOM     17  O   LIG A   1      -6.722   3.351 127.459  0.00  0.00    -0.481 OA
ENDROOT
BRANCH   6  18
ATOM     18  C   LIG A   1      -2.065   7.630 132.135  0.00  0.00    -0.011 A 
ATOM     19  C   LIG A   1      -2.460   8.887 132.610  0.00  0.00    +0.012 A 
ATOM     20  C   LIG A   1      -1.572   9.691 133.337  0.00  0.00    +0.046 A 
ATOM     21  C   LIG A   1      -0.279   9.246 133.611  0.00  0.00    +0.121 A 
ATOM     22  C   LIG A   1       0.106   7.978 133.172  0.00  0.00    +0.046 A 
ATOM     23  C   LIG A   1      -0.776   7.175 132.436  0.00  0.00    +0.012 A 
BRANCH  21  24
ATOM     24  O   LIG A   1       0.688   9.944 134.286  0.00  0.00    -0.488 OA
BRANCH  24  25
ATOM     25  C   LIG A   1       0.607  11.368 134.223  0.00  0.00    +0.256 C 
BRANCH  25  26
ATOM     26  C   LIG A   1       1.057  11.806 132.859  0.00  0.00    +0.012 C 
ATOM     27  C   LIG A   1       0.368  12.542 131.962  0.00  0.00    -0.076 C 
ATOM     28  C   LIG A   1      -1.015  13.092 132.178  0.00  0.00    +0.038 C 
ATOM     29  C   LIG A   1       0.970  12.891 130.624  0.00  0.00    +0.038 C 
ENDBRANCH  25  26
ENDBRANCH  24  25
ENDBRANCH  21  24
ENDBRANCH   6  18
BRANCH   1  30
ATOM     30  O   LIG A   1      -2.275   5.224 127.323  0.00  0.00    -0.505 OA
ATOM     31  H   LIG A   1      -2.357   6.045 126.785  0.00  0.00    +0.292 HD
ENDBRANCH   1  30
TORSDOF 5
ENDMDL
MODEL 7
REMARK VINA RESULT:      -7.8      4.596      9.152
REMARK  Name = NuBBE_2281
REMARK  9 active torsions:
REMARK  status: ('A' for Active; 'I' for Inactive)
REMARK    1  A    between atoms: O_1  and  C_2
REMARK    2  A    between atoms: C_7  and  C_8
REMARK    3  A    between atoms: C_11  and  O_12
REMARK    4  A    between atoms: O_12  and  C_13
REMARK    5  A    between atoms: C_13  and  C_14
REMARK    6  A    between atoms: C_15  and  C_16
REMARK    7  A    between atoms: C_15  and  C_17
REMARK    8  A    between atoms: C_27  and  C_28
REMARK    9  A    between atoms: C_27  and  C_29
REMARK                            x       y       z     vdW  Elec       q    Type
REMARK                         _______ _______ _______ _____ _____    ______ ____
ROOT
ATOM      1  C   LIG A   1      -4.299   3.058 130.152  0.00  0.00    +0.142 A 
ATOM      2  C   LIG A   1      -4.954   3.337 128.943  0.00  0.00    +0.107 A 
ATOM      3  C   LIG A   1      -4.891   4.615 128.396  0.00  0.00    +0.145 A 
ATOM      4  O   LIG A   1      -5.522   4.961 127.227  0.00  0.00    -0.462 OA
ATOM      5  C   LIG A   1      -6.263   3.994 126.587  0.00  0.00    +0.208 A 
ATOM      6  C   LIG A   1      -6.411   2.717 126.968  0.00  0.00    +0.064 A 
ATOM      7  C   LIG A   1      -5.720   2.300 128.218  0.00  0.00    +0.204 A 
ATOM      8  O   LIG A   1      -5.769   1.161 128.657  0.00  0.00    -0.286 OA
ATOM      9  C   LIG A   1      -4.165   5.617 129.041  0.00  0.00    +0.093 A 
ATOM     10  C   LIG A   1      -3.511   5.342 130.244  0.00  0.00    +0.136 A 
ATOM     11  C   LIG A   1      -3.571   4.064 130.812  0.00  0.00    +0.059 A 
ATOM     12  C   LIG A   1      -2.868   3.814 132.065  0.00  0.00    +0.015 C 
ATOM     13  C   LIG A   1      -2.235   4.833 132.654  0.00  0.00    +0.020 C 
ATOM     14  C   LIG A   1      -2.209   6.231 132.084  0.00  0.00    +0.123 C 
ATOM     15  C   LIG A   1      -2.947   7.180 133.034  0.00  0.00    +0.060 C 
ATOM     16  C   LIG A   1      -0.752   6.681 131.921  0.00  0.00    +0.060 C 
ATOM     17  O   LIG A   1      -2.822   6.390 130.788  0.00  0.00    -0.481 OA
ENDROOT
BRANCH   6  18
ATOM     18  C   LIG A   1      -7.243   1.791 126.188  0.00  0.00    -0.011 A 
ATOM     19  C   LIG A   1      -8.549   1.497 126.599  0.00  0.00    +0.012 A 
ATOM     20  C   LIG A   1      -9.341   0.591 125.882  0.00  0.00    +0.046 A 
ATOM     21  C   LIG A   1      -8.843  -0.028 124.734  0.00  0.00    +0.121 A 
ATOM     22  C   LIG A   1      -7.555   0.291 124.300  0.00  0.00    +0.046 A 
ATOM     23  C   LIG A   1      -6.757   1.190 125.021  0.00  0.00    +0.012 A 
BRANCH  21  24
ATOM     24  O   LIG A   1      -9.504  -0.947 123.963  0.00  0.00    -0.488 OA
BRANCH  24  25
ATOM     25  C   LIG A   1      -8.947  -2.261 123.920  0.00  0.00    +0.256 C 
BRANCH  25  26
ATOM     26  C   LIG A   1      -9.288  -2.960 125.206  0.00  0.00    +0.012 C 
ATOM     27  C   LIG A   1      -8.487  -3.156 126.273  0.00  0.00    -0.076 C 
ATOM     28  C   LIG A   1      -7.064  -2.681 126.382  0.00  0.00    +0.038 C 
ATOM     29  C   LIG A   1      -8.989  -3.890 127.491  0.00  0.00    +0.038 C 
ENDBRANCH  25  26
ENDBRANCH  24  25
ENDBRANCH  21  24
ENDBRANCH   6  18
BRANCH   1  30
ATOM     30  O   LIG A   1      -4.349   1.811 130.729  0.00  0.00    -0.505 OA
ATOM     31  H   LIG A   1      -3.495   1.353 130.556  0.00  0.00    +0.292 HD
ENDBRANCH   1  30
TORSDOF 5
ENDMDL
MODEL 8
REMARK VINA RESULT:      -7.8      5.196      9.760
REMARK  Name = NuBBE_2281
REMARK  9 active torsions:
REMARK  status: ('A' for Active; 'I' for Inactive)
REMARK    1  A    between atoms: O_1  and  C_2
REMARK    2  A    between atoms: C_7  and  C_8
REMARK    3  A    between atoms: C_11  and  O_12
REMARK    4  A    between atoms: O_12  and  C_13
REMARK    5  A    between atoms: C_13  and  C_14
REMARK    6  A    between atoms: C_15  and  C_16
REMARK    7  A    between atoms: C_15  and  C_17
REMARK    8  A    between atoms: C_27  and  C_28
REMARK    9  A    between atoms: C_27  and  C_29
REMARK                            x       y       z     vdW  Elec       q    Type
REMARK                         _______ _______ _______ _____ _____    ______ ____
ROOT
ATOM      1  C   LIG A   1      -3.834   4.007 130.705  0.00  0.00    +0.142 A 
ATOM      2  C   LIG A   1      -3.834   3.899 129.306  0.00  0.00    +0.107 A 
ATOM      3  C   LIG A   1      -3.110   4.807 128.539  0.00  0.00    +0.145 A 
ATOM      4  O   LIG A   1      -3.080   4.772 127.167  0.00  0.00    -0.462 OA
ATOM      5  C   LIG A   1      -3.820   3.799 126.534  0.00  0.00    +0.208 A 
ATOM      6  C   LIG A   1      -4.553   2.842 127.122  0.00  0.00    +0.064 A 
ATOM      7  C   LIG A   1      -4.588   2.835 128.608  0.00  0.00    +0.204 A 
ATOM      8  O   LIG A   1      -5.208   2.004 129.256  0.00  0.00    -0.286 OA
ATOM      9  C   LIG A   1      -2.373   5.816 129.160  0.00  0.00    +0.093 A 
ATOM     10  C   LIG A   1      -2.370   5.924 130.552  0.00  0.00    +0.136 A 
ATOM     11  C   LIG A   1      -3.099   5.024 131.338  0.00  0.00    +0.059 A 
ATOM     12  C   LIG A   1      -3.064   5.165 132.789  0.00  0.00    +0.015 C 
ATOM     13  C   LIG A   1      -2.378   6.184 133.314  0.00  0.00    +0.020 C 
ATOM     14  C   LIG A   1      -1.634   7.198 132.477  0.00  0.00    +0.123 C 
ATOM     15  C   LIG A   1      -2.279   8.577 132.658  0.00  0.00    +0.060 C 
ATOM     16  C   LIG A   1      -0.169   7.241 132.925  0.00  0.00    +0.060 C 
ATOM     17  O   LIG A   1      -1.609   6.941 131.058  0.00  0.00    -0.481 OA
ENDROOT
BRANCH   6  18
ATOM     18  C   LIG A   1      -5.302   1.868 126.317  0.00  0.00    -0.011 A 
ATOM     19  C   LIG A   1      -4.964   0.510 126.359  0.00  0.00    +0.012 A 
ATOM     20  C   LIG A   1      -5.650  -0.425 125.571  0.00  0.00    +0.046 A 
ATOM     21  C   LIG A   1      -6.693  -0.018 124.738  0.00  0.00    +0.121 A 
ATOM     22  C   LIG A   1      -7.057   1.330 124.723  0.00  0.00    +0.046 A 
ATOM     23  C   LIG A   1      -6.367   2.269 125.502  0.00  0.00    +0.012 A 
BRANCH  21  24
ATOM     24  O   LIG A   1      -7.421  -0.825 123.904  0.00  0.00    -0.488 OA
BRANCH  24  25
ATOM     25  C   LIG A   1      -8.810  -0.962 124.203  0.00  0.00    +0.256 C 
BRANCH  25  26
ATOM     26  C   LIG A   1      -8.943  -1.692 125.510  0.00  0.00    +0.012 C 
ATOM     27  C   LIG A   1      -8.701  -2.997 125.752  0.00  0.00    -0.076 C 
ATOM     28  C   LIG A   1      -8.223  -3.990 124.728  0.00  0.00    +0.038 C 
ATOM     29  C   LIG A   1      -8.892  -3.575 127.131  0.00  0.00    +0.038 C 
ENDBRANCH  25  26
ENDBRANCH  24  25
ENDBRANCH  21  24
ENDBRANCH   6  18
BRANCH   1  30
ATOM     30  O   LIG A   1      -4.546   3.135 131.495  0.00  0.00    -0.505 OA
ATOM     31  H   LIG A   1      -5.473   3.100 131.164  0.00  0.00    +0.292 HD
ENDBRANCH   1  30
TORSDOF 5
ENDMDL
MODEL 9
REMARK VINA RESULT:      -7.7      3.418      4.323
REMARK  Name = NuBBE_2281
REMARK  9 active torsions:
REMARK  status: ('A' for Active; 'I' for Inactive)
REMARK    1  A    between atoms: O_1  and  C_2
REMARK    2  A    between atoms: C_7  and  C_8
REMARK    3  A    between atoms: C_11  and  O_12
REMARK    4  A    between atoms: O_12  and  C_13
REMARK    5  A    between atoms: C_13  and  C_14
REMARK    6  A    between atoms: C_15  and  C_16
REMARK    7  A    between atoms: C_15  and  C_17
REMARK    8  A    between atoms: C_27  and  C_28
REMARK    9  A    between atoms: C_27  and  C_29
REMARK                            x       y       z     vdW  Elec       q    Type
REMARK                         _______ _______ _______ _____ _____    ______ ____
ROOT
ATOM      1  C   LIG A   1      -8.550   1.123 126.502  0.00  0.00    +0.142 A 
ATOM      2  C   LIG A   1      -8.191   0.819 127.824  0.00  0.00    +0.107 A 
ATOM      3  C   LIG A   1      -7.698  -0.444 128.138  0.00  0.00    +0.145 A 
ATOM      4  O   LIG A   1      -7.345  -0.815 129.411  0.00  0.00    -0.462 OA
ATOM      5  C   LIG A   1      -7.508   0.110 130.417  0.00  0.00    +0.208 A 
ATOM      6  C   LIG A   1      -7.950   1.368 130.283  0.00  0.00    +0.064 A 
ATOM      7  C   LIG A   1      -8.318   1.812 128.912  0.00  0.00    +0.204 A 
ATOM      8  O   LIG A   1      -8.719   2.940 128.663  0.00  0.00    -0.286 OA
ATOM      9  C   LIG A   1      -7.547  -1.404 127.137  0.00  0.00    +0.093 A 
ATOM     10  C   LIG A   1      -7.903  -1.104 125.820  0.00  0.00    +0.136 A 
ATOM     11  C   LIG A   1      -8.407   0.158 125.489  0.00  0.00    +0.059 A 
ATOM     12  C   LIG A   1      -8.760   0.437 124.102  0.00  0.00    +0.015 C 
ATOM     13  C   LIG A   1      -8.637  -0.545 123.204  0.00  0.00    +0.020 C 
ATOM     14  C   LIG A   1      -8.149  -1.930 123.556  0.00  0.00    +0.123 C 
ATOM     15  C   LIG A   1      -9.280  -2.940 123.327  0.00  0.00    +0.060 C 
ATOM     16  C   LIG A   1      -6.947  -2.280 122.671  0.00  0.00    +0.060 C 
ATOM     17  O   LIG A   1      -7.708  -2.112 124.917  0.00  0.00    -0.481 OA
ENDROOT
BRANCH   6  18
ATOM     18  C   LIG A   1      -8.082   2.248 131.452  0.00  0.00    -0.011 A 
ATOM     19  C   LIG A   1      -7.055   3.141 131.783  0.00  0.00    +0.012 A 
ATOM     20  C   LIG A   1      -7.155   3.962 132.914  0.00  0.00    +0.046 A 
ATOM     21  C   LIG A   1      -8.289   3.913 133.726  0.00  0.00    +0.121 A 
ATOM     22  C   LIG A   1      -9.331   3.051 133.377  0.00  0.00    +0.046 A 
ATOM     23  C   LIG A   1      -9.230   2.222 132.252  0.00  0.00    +0.012 A 
BRANCH  21  24
ATOM     24  O   LIG A   1      -8.496   4.641 134.867  0.00  0.00    -0.488 OA
BRANCH  24  25
ATOM     25  C   LIG A   1      -7.579   5.707 135.119  0.00  0.00    +0.256 C 
BRANCH  25  26
ATOM     26  C   LIG A   1      -7.320   5.767 136.597  0.00  0.00    +0.012 C 
ATOM     27  C   LIG A   1      -7.843   6.632 137.489  0.00  0.00    -0.076 C 
ATOM     28  C   LIG A   1      -8.829   7.720 137.160  0.00  0.00    +0.038 C 
ATOM     29  C   LIG A   1      -7.469   6.559 138.948  0.00  0.00    +0.038 C 
ENDBRANCH  25  26
ENDBRANCH  24  25
ENDBRANCH  21  24
ENDBRANCH   6  18
BRANCH   1  30
ATOM     30  O   LIG A   1      -9.051   2.356 126.157  0.00  0.00    -0.505 OA
ATOM     31  H   LIG A   1      -9.863   2.524 126.689  0.00  0.00    +0.292 HD
ENDBRANCH   1  30
TORSDOF 5
ENDMDL
