MODEL 1
REMARK VINA RESULT:      -7.1      0.000      0.000
REMARK  Name = NuBBE_1715
REMARK  3 active torsions:
REMARK  status: ('A' for Active; 'I' for Inactive)
REMARK    1  A    between atoms: C_1  and  O_2
REMARK    2  A    between atoms: O_2  and  C_3
REMARK    3  A    between atoms: C_4  and  O_5
REMARK                            x       y       z     vdW  Elec       q    Type
REMARK                         _______ _______ _______ _____ _____    ______ ____
ROOT
ATOM      1  C   LIG A   1      -8.626   5.655 132.747  0.00  0.00    +0.176 A 
ATOM      2  C   LIG A   1      -7.237   5.729 132.903  0.00  0.00    +0.159 A 
ATOM      3  C   LIG A   1      -6.442   6.393 131.980  0.00  0.00    +0.053 A 
ATOM      4  C   LIG A   1      -7.045   7.025 130.894  0.00  0.00    +0.051 A 
ATOM      5  C   LIG A   1      -8.438   6.996 130.746  0.00  0.00    +0.143 A 
ATOM      6  O   LIG A   1      -8.924   7.674 129.655  0.00  0.00    -0.455 OA
ATOM      7  C   LIG A   1     -10.280   7.727 129.472  0.00  0.00    +0.139 A 
ATOM      8  C   LIG A   1     -10.733   8.451 128.366  0.00  0.00    +0.047 A 
ATOM      9  C   LIG A   1     -12.101   8.552 128.107  0.00  0.00    +0.004 A 
ATOM     10  C   LIG A   1     -13.021   7.932 128.954  0.00  0.00    +0.001 A 
ATOM     11  C   LIG A   1     -12.571   7.208 130.059  0.00  0.00    +0.015 A 
ATOM     12  C   LIG A   1     -11.198   7.110 130.314  0.00  0.00    +0.065 A 
ATOM     13  C   LIG A   1      -9.237   6.317 131.674  0.00  0.00    +0.110 A 
ATOM     14  C   LIG A   1     -10.700   6.348 131.470  0.00  0.00    +0.204 A 
ATOM     15  O   LIG A   1     -11.492   5.769 132.202  0.00  0.00    -0.286 OA
ENDROOT
BRANCH   1  17
ATOM     16  C   LIG A   1      -9.241   3.575 133.519  0.00  0.00    +0.277 C 
ATOM     17  O   LIG A   1      -9.321   4.989 133.724  0.00  0.00    -0.491 OA
ENDBRANCH   1  17
BRANCH   2  18
ATOM     18  O   LIG A   1      -6.628   5.153 133.982  0.00  0.00    -0.503 OA
ATOM     19  H   LIG A   1      -5.677   5.363 133.893  0.00  0.00    +0.292 HD
ENDBRANCH   2  18
TORSDOF 2
ENDMDL
MODEL 2
REMARK VINA RESULT:      -6.9      9.048     10.144
REMARK  Name = NuBBE_1715
REMARK  3 active torsions:
REMARK  status: ('A' for Active; 'I' for Inactive)
REMARK    1  A    between atoms: C_1  and  O_2
REMARK    2  A    between atoms: O_2  and  C_3
REMARK    3  A    between atoms: C_4  and  O_5
REMARK                            x       y       z     vdW  Elec       q    Type
REMARK                         _______ _______ _______ _____ _____    ______ ____
ROOT
ATOM      1  C   LIG A   1      -8.897   2.133 123.775  0.00  0.00    +0.176 A 
ATOM      2  C   LIG A   1      -8.521   1.866 125.097  0.00  0.00    +0.159 A 
ATOM      3  C   LIG A   1      -7.257   2.192 125.567  0.00  0.00    +0.053 A 
ATOM      4  C   LIG A   1      -6.358   2.826 124.713  0.00  0.00    +0.051 A 
ATOM      5  C   LIG A   1      -6.732   3.139 123.400  0.00  0.00    +0.143 A 
ATOM      6  O   LIG A   1      -5.775   3.787 122.657  0.00  0.00    -0.455 OA
ATOM      7  C   LIG A   1      -6.089   4.164 121.378  0.00  0.00    +0.139 A 
ATOM      8  C   LIG A   1      -5.097   4.846 120.669  0.00  0.00    +0.047 A 
ATOM      9  C   LIG A   1      -5.336   5.264 119.358  0.00  0.00    +0.004 A 
ATOM     10  C   LIG A   1      -6.567   5.004 118.753  0.00  0.00    +0.001 A 
ATOM     11  C   LIG A   1      -7.558   4.322 119.461  0.00  0.00    +0.015 A 
ATOM     12  C   LIG A   1      -7.314   3.905 120.774  0.00  0.00    +0.065 A 
ATOM     13  C   LIG A   1      -8.005   2.800 122.925  0.00  0.00    +0.110 A 
ATOM     14  C   LIG A   1      -8.342   3.181 121.537  0.00  0.00    +0.204 A 
ATOM     15  O   LIG A   1      -9.414   2.914 121.010  0.00  0.00    -0.286 OA
ENDROOT
BRANCH   1  17
ATOM     16  C   LIG A   1     -10.196   0.469 122.856  0.00  0.00    +0.277 C 
ATOM     17  O   LIG A   1     -10.174   1.786 123.416  0.00  0.00    -0.491 OA
ENDBRANCH   1  17
BRANCH   2  18
ATOM     18  O   LIG A   1      -9.401   1.283 125.964  0.00  0.00    -0.503 OA
ATOM     19  H   LIG A   1      -9.028   1.427 126.857  0.00  0.00    +0.292 HD
ENDBRANCH   2  18
TORSDOF 2
ENDMDL
MODEL 3
REMARK VINA RESULT:      -6.8      1.904      5.848
REMARK  Name = NuBBE_1715
REMARK  3 active torsions:
REMARK  status: ('A' for Active; 'I' for Inactive)
REMARK    1  A    between atoms: C_1  and  O_2
REMARK    2  A    between atoms: O_2  and  C_3
REMARK    3  A    between atoms: C_4  and  O_5
REMARK                            x       y       z     vdW  Elec       q    Type
REMARK                         _______ _______ _______ _____ _____    ______ ____
ROOT
ATOM      1  C   LIG A   1     -11.746   6.734 128.813  0.00  0.00    +0.176 A 
ATOM      2  C   LIG A   1     -12.995   7.274 129.138  0.00  0.00    +0.159 A 
ATOM      3  C   LIG A   1     -13.360   7.505 130.456  0.00  0.00    +0.053 A 
ATOM      4  C   LIG A   1     -12.449   7.221 131.472  0.00  0.00    +0.051 A 
ATOM      5  C   LIG A   1     -11.179   6.720 131.161  0.00  0.00    +0.143 A 
ATOM      6  O   LIG A   1     -10.356   6.502 132.240  0.00  0.00    -0.455 OA
ATOM      7  C   LIG A   1      -9.082   6.055 132.007  0.00  0.00    +0.139 A 
ATOM      8  C   LIG A   1      -8.270   5.875 133.129  0.00  0.00    +0.047 A 
ATOM      9  C   LIG A   1      -6.958   5.420 132.979  0.00  0.00    +0.004 A 
ATOM     10  C   LIG A   1      -6.455   5.145 131.706  0.00  0.00    +0.001 A 
ATOM     11  C   LIG A   1      -7.265   5.324 130.584  0.00  0.00    +0.015 A 
ATOM     12  C   LIG A   1      -8.579   5.780 130.741  0.00  0.00    +0.065 A 
ATOM     13  C   LIG A   1     -10.817   6.478 129.830  0.00  0.00    +0.110 A 
ATOM     14  C   LIG A   1      -9.453   5.972 129.573  0.00  0.00    +0.204 A 
ATOM     15  O   LIG A   1      -9.038   5.703 128.453  0.00  0.00    -0.286 OA
ENDROOT
BRANCH   1  17
ATOM     16  C   LIG A   1     -11.071   7.797 126.885  0.00  0.00    +0.277 C 
ATOM     17  O   LIG A   1     -11.477   6.560 127.479  0.00  0.00    -0.491 OA
ENDBRANCH   1  17
BRANCH   2  18
ATOM     18  O   LIG A   1     -13.887   7.599 128.155  0.00  0.00    -0.503 OA
ATOM     19  H   LIG A   1     -14.027   8.564 128.233  0.00  0.00    +0.292 HD
ENDBRANCH   2  18
TORSDOF 2
ENDMDL
MODEL 4
REMARK VINA RESULT:      -6.7      1.920      3.062
REMARK  Name = NuBBE_1715
REMARK  3 active torsions:
REMARK  status: ('A' for Active; 'I' for Inactive)
REMARK    1  A    between atoms: C_1  and  O_2
REMARK    2  A    between atoms: O_2  and  C_3
REMARK    3  A    between atoms: C_4  and  O_5
REMARK                            x       y       z     vdW  Elec       q    Type
REMARK                         _______ _______ _______ _____ _____    ______ ____
ROOT
ATOM      1  C   LIG A   1      -8.239   4.876 130.931  0.00  0.00    +0.176 A 
ATOM      2  C   LIG A   1      -8.164   3.521 131.274  0.00  0.00    +0.159 A 
ATOM      3  C   LIG A   1      -9.267   2.688 131.165  0.00  0.00    +0.053 A 
ATOM      4  C   LIG A   1     -10.464   3.206 130.673  0.00  0.00    +0.051 A 
ATOM      5  C   LIG A   1     -10.544   4.549 130.285  0.00  0.00    +0.143 A 
ATOM      6  O   LIG A   1     -11.764   4.943 129.791  0.00  0.00    -0.455 OA
ATOM      7  C   LIG A   1     -11.902   6.233 129.349  0.00  0.00    +0.139 A 
ATOM      8  C   LIG A   1     -13.150   6.583 128.828  0.00  0.00    +0.047 A 
ATOM      9  C   LIG A   1     -13.373   7.879 128.358  0.00  0.00    +0.004 A 
ATOM     10  C   LIG A   1     -12.350   8.827 128.406  0.00  0.00    +0.001 A 
ATOM     11  C   LIG A   1     -11.104   8.479 128.927  0.00  0.00    +0.015 A 
ATOM     12  C   LIG A   1     -10.885   7.179 129.397  0.00  0.00    +0.065 A 
ATOM     13  C   LIG A   1      -9.432   5.391 130.406  0.00  0.00    +0.110 A 
ATOM     14  C   LIG A   1      -9.580   6.791 129.955  0.00  0.00    +0.204 A 
ATOM     15  O   LIG A   1      -8.683   7.620 130.037  0.00  0.00    -0.286 OA
ENDROOT
BRANCH   1  17
ATOM     16  C   LIG A   1      -6.914   6.033 132.416  0.00  0.00    +0.277 C 
ATOM     17  O   LIG A   1      -7.087   5.610 131.060  0.00  0.00    -0.491 OA
ENDBRANCH   1  17
BRANCH   2  18
ATOM     18  O   LIG A   1      -6.990   2.982 131.719  0.00  0.00    -0.503 OA
ATOM     19  H   LIG A   1      -6.691   2.378 131.011  0.00  0.00    +0.292 HD
ENDBRANCH   2  18
TORSDOF 2
ENDMDL
MODEL 5
REMARK VINA RESULT:      -6.7      8.613      9.712
REMARK  Name = NuBBE_1715
REMARK  3 active torsions:
REMARK  status: ('A' for Active; 'I' for Inactive)
REMARK    1  A    between atoms: C_1  and  O_2
REMARK    2  A    between atoms: O_2  and  C_3
REMARK    3  A    between atoms: C_4  and  O_5
REMARK                            x       y       z     vdW  Elec       q    Type
REMARK                         _______ _______ _______ _____ _____    ______ ____
ROOT
ATOM      1  C   LIG A   1      -7.488   2.351 125.165  0.00  0.00    +0.176 A 
ATOM      2  C   LIG A   1      -8.627   1.633 125.548  0.00  0.00    +0.159 A 
ATOM      3  C   LIG A   1      -9.687   1.444 124.674  0.00  0.00    +0.053 A 
ATOM      4  C   LIG A   1      -9.599   1.953 123.379  0.00  0.00    +0.051 A 
ATOM      5  C   LIG A   1      -8.449   2.637 122.967  0.00  0.00    +0.143 A 
ATOM      6  O   LIG A   1      -8.462   3.070 121.663  0.00  0.00    -0.455 OA
ATOM      7  C   LIG A   1      -7.350   3.707 121.177  0.00  0.00    +0.139 A 
ATOM      8  C   LIG A   1      -7.395   4.106 119.839  0.00  0.00    +0.047 A 
ATOM      9  C   LIG A   1      -6.304   4.763 119.267  0.00  0.00    +0.004 A 
ATOM     10  C   LIG A   1      -5.165   5.022 120.031  0.00  0.00    +0.001 A 
ATOM     11  C   LIG A   1      -5.119   4.625 121.368  0.00  0.00    +0.015 A 
ATOM     12  C   LIG A   1      -6.215   3.967 121.936  0.00  0.00    +0.065 A 
ATOM     13  C   LIG A   1      -7.384   2.835 123.854  0.00  0.00    +0.110 A 
ATOM     14  C   LIG A   1      -6.191   3.544 123.345  0.00  0.00    +0.204 A 
ATOM     15  O   LIG A   1      -5.213   3.795 124.038  0.00  0.00    -0.286 OA
ENDROOT
BRANCH   1  17
ATOM     16  C   LIG A   1      -5.682   1.286 126.116  0.00  0.00    +0.277 C 
ATOM     17  O   LIG A   1      -6.489   2.467 126.098  0.00  0.00    -0.491 OA
ENDBRANCH   1  17
BRANCH   2  18
ATOM     18  O   LIG A   1      -8.717   1.089 126.798  0.00  0.00    -0.503 OA
ATOM     19  H   LIG A   1      -9.348   1.654 127.287  0.00  0.00    +0.292 HD
ENDBRANCH   2  18
TORSDOF 2
ENDMDL
MODEL 6
REMARK VINA RESULT:      -6.6      8.486     10.081
REMARK  Name = NuBBE_1715
REMARK  3 active torsions:
REMARK  status: ('A' for Active; 'I' for Inactive)
REMARK    1  A    between atoms: C_1  and  O_2
REMARK    2  A    between atoms: O_2  and  C_3
REMARK    3  A    between atoms: C_4  and  O_5
REMARK                            x       y       z     vdW  Elec       q    Type
REMARK                         _______ _______ _______ _____ _____    ______ ____
ROOT
ATOM      1  C   LIG A   1      -7.891   2.070 124.900  0.00  0.00    +0.176 A 
ATOM      2  C   LIG A   1      -8.466   2.588 123.734  0.00  0.00    +0.159 A 
ATOM      3  C   LIG A   1      -9.286   1.812 122.928  0.00  0.00    +0.053 A 
ATOM      4  C   LIG A   1      -9.566   0.500 123.308  0.00  0.00    +0.051 A 
ATOM      5  C   LIG A   1      -9.033  -0.020 124.494  0.00  0.00    +0.143 A 
ATOM      6  O   LIG A   1      -9.398  -1.313 124.781  0.00  0.00    -0.455 OA
ATOM      7  C   LIG A   1      -8.951  -1.871 125.949  0.00  0.00    +0.139 A 
ATOM      8  C   LIG A   1      -9.368  -3.177 126.216  0.00  0.00    +0.047 A 
ATOM      9  C   LIG A   1      -8.955  -3.820 127.385  0.00  0.00    +0.004 A 
ATOM     10  C   LIG A   1      -8.125  -3.158 128.291  0.00  0.00    +0.001 A 
ATOM     11  C   LIG A   1      -7.707  -1.854 128.026  0.00  0.00    +0.015 A 
ATOM     12  C   LIG A   1      -8.123  -1.214 126.853  0.00  0.00    +0.065 A 
ATOM     13  C   LIG A   1      -8.198   0.763 125.300  0.00  0.00    +0.110 A 
ATOM     14  C   LIG A   1      -7.691   0.159 126.550  0.00  0.00    +0.204 A 
ATOM     15  O   LIG A   1      -6.934   0.741 127.317  0.00  0.00    -0.286 OA
ENDROOT
BRANCH   1  17
ATOM     16  C   LIG A   1      -5.774   2.948 125.119  0.00  0.00    +0.277 C 
ATOM     17  O   LIG A   1      -7.109   2.925 125.634  0.00  0.00    -0.491 OA
ENDBRANCH   1  17
BRANCH   2  18
ATOM     18  O   LIG A   1      -8.239   3.884 123.364  0.00  0.00    -0.503 OA
ATOM     19  H   LIG A   1      -8.130   3.867 122.393  0.00  0.00    +0.292 HD
ENDBRANCH   2  18
TORSDOF 2
ENDMDL
MODEL 7
REMARK VINA RESULT:      -6.5      9.406     10.492
REMARK  Name = NuBBE_1715
REMARK  3 active torsions:
REMARK  status: ('A' for Active; 'I' for Inactive)
REMARK    1  A    between atoms: C_1  and  O_2
REMARK    2  A    between atoms: O_2  and  C_3
REMARK    3  A    between atoms: C_4  and  O_5
REMARK                            x       y       z     vdW  Elec       q    Type
REMARK                         _______ _______ _______ _____ _____    ______ ____
ROOT
ATOM      1  C   LIG A   1      -7.727   2.676 123.861  0.00  0.00    +0.176 A 
ATOM      2  C   LIG A   1      -6.740   3.482 124.439  0.00  0.00    +0.159 A 
ATOM      3  C   LIG A   1      -5.796   2.954 125.307  0.00  0.00    +0.053 A 
ATOM      4  C   LIG A   1      -5.815   1.588 125.582  0.00  0.00    +0.051 A 
ATOM      5  C   LIG A   1      -6.770   0.760 124.979  0.00  0.00    +0.143 A 
ATOM      6  O   LIG A   1      -6.678  -0.572 125.302  0.00  0.00    -0.455 OA
ATOM      7  C   LIG A   1      -7.552  -1.447 124.713  0.00  0.00    +0.139 A 
ATOM      8  C   LIG A   1      -7.404  -2.795 125.048  0.00  0.00    +0.047 A 
ATOM      9  C   LIG A   1      -8.256  -3.752 124.492  0.00  0.00    +0.004 A 
ATOM     10  C   LIG A   1      -9.257  -3.364 123.599  0.00  0.00    +0.001 A 
ATOM     11  C   LIG A   1      -9.406  -2.017 123.265  0.00  0.00    +0.015 A 
ATOM     12  C   LIG A   1      -8.549  -1.062 123.825  0.00  0.00    +0.065 A 
ATOM     13  C   LIG A   1      -7.728   1.298 124.110  0.00  0.00    +0.110 A 
ATOM     14  C   LIG A   1      -8.691   0.363 123.490  0.00  0.00    +0.204 A 
ATOM     15  O   LIG A   1      -9.585   0.725 122.736  0.00  0.00    -0.286 OA
ENDROOT
BRANCH   1  17
ATOM     16  C   LIG A   1      -8.039   3.380 121.690  0.00  0.00    +0.277 C 
ATOM     17  O   LIG A   1      -8.602   3.293 123.003  0.00  0.00    -0.491 OA
ENDBRANCH   1  17
BRANCH   2  18
ATOM     18  O   LIG A   1      -6.676   4.816 124.150  0.00  0.00    -0.503 OA
ATOM     19  H   LIG A   1      -6.429   4.871 123.206  0.00  0.00    +0.292 HD
ENDBRANCH   2  18
TORSDOF 2
ENDMDL
MODEL 8
REMARK VINA RESULT:      -6.3      9.594     10.588
REMARK  Name = NuBBE_1715
REMARK  3 active torsions:
REMARK  status: ('A' for Active; 'I' for Inactive)
REMARK    1  A    between atoms: C_1  and  O_2
REMARK    2  A    between atoms: O_2  and  C_3
REMARK    3  A    between atoms: C_4  and  O_5
REMARK                            x       y       z     vdW  Elec       q    Type
REMARK                         _______ _______ _______ _____ _____    ______ ____
ROOT
ATOM      1  C   LIG A   1      -6.108  -1.949 128.805  0.00  0.00    +0.176 A 
ATOM      2  C   LIG A   1      -6.546  -2.479 130.023  0.00  0.00    +0.159 A 
ATOM      3  C   LIG A   1      -7.728  -3.199 130.113  0.00  0.00    +0.053 A 
ATOM      4  C   LIG A   1      -8.476  -3.423 128.958  0.00  0.00    +0.051 A 
ATOM      5  C   LIG A   1      -8.029  -2.937 127.723  0.00  0.00    +0.143 A 
ATOM      6  O   LIG A   1      -8.832  -3.241 126.650  0.00  0.00    -0.455 OA
ATOM      7  C   LIG A   1      -8.433  -2.835 125.404  0.00  0.00    +0.139 A 
ATOM      8  C   LIG A   1      -9.263  -3.190 124.338  0.00  0.00    +0.047 A 
ATOM      9  C   LIG A   1      -8.929  -2.815 123.035  0.00  0.00    +0.004 A 
ATOM     10  C   LIG A   1      -7.765  -2.084 122.794  0.00  0.00    +0.001 A 
ATOM     11  C   LIG A   1      -6.935  -1.728 123.858  0.00  0.00    +0.015 A 
ATOM     12  C   LIG A   1      -7.274  -2.107 125.162  0.00  0.00    +0.065 A 
ATOM     13  C   LIG A   1      -6.841  -2.202 127.637  0.00  0.00    +0.110 A 
ATOM     14  C   LIG A   1      -6.417  -1.739 126.299  0.00  0.00    +0.204 A 
ATOM     15  O   LIG A   1      -5.410  -1.069 126.109  0.00  0.00    -0.286 OA
ENDROOT
BRANCH   1  17
ATOM     16  C   LIG A   1      -5.126   0.093 129.215  0.00  0.00    +0.277 C 
ATOM     17  O   LIG A   1      -4.918  -1.267 128.821  0.00  0.00    -0.491 OA
ENDBRANCH   1  17
BRANCH   2  18
ATOM     18  O   LIG A   1      -5.808  -2.306 131.161  0.00  0.00    -0.503 OA
ATOM     19  H   LIG A   1      -6.446  -2.037 131.851  0.00  0.00    +0.292 HD
ENDBRANCH   2  18
TORSDOF 2
ENDMDL
MODEL 9
REMARK VINA RESULT:      -6.2      8.876     10.378
REMARK  Name = NuBBE_1715
REMARK  3 active torsions:
REMARK  status: ('A' for Active; 'I' for Inactive)
REMARK    1  A    between atoms: C_1  and  O_2
REMARK    2  A    between atoms: O_2  and  C_3
REMARK    3  A    between atoms: C_4  and  O_5
REMARK                            x       y       z     vdW  Elec       q    Type
REMARK                         _______ _______ _______ _____ _____    ______ ____
ROOT
ATOM      1  C   LIG A   1      -7.906   0.718 124.087  0.00  0.00    +0.176 A 
ATOM      2  C   LIG A   1      -7.072   1.839 124.007  0.00  0.00    +0.159 A 
ATOM      3  C   LIG A   1      -6.230   2.188 125.052  0.00  0.00    +0.053 A 
ATOM      4  C   LIG A   1      -6.192   1.385 126.190  0.00  0.00    +0.051 A 
ATOM      5  C   LIG A   1      -6.988   0.235 126.269  0.00  0.00    +0.143 A 
ATOM      6  O   LIG A   1      -6.848  -0.494 127.426  0.00  0.00    -0.455 OA
ATOM      7  C   LIG A   1      -7.563  -1.656 127.553  0.00  0.00    +0.139 A 
ATOM      8  C   LIG A   1      -7.370  -2.380 128.731  0.00  0.00    +0.047 A 
ATOM      9  C   LIG A   1      -8.062  -3.576 128.939  0.00  0.00    +0.004 A 
ATOM     10  C   LIG A   1      -8.947  -4.050 127.970  0.00  0.00    +0.001 A 
ATOM     11  C   LIG A   1      -9.141  -3.327 126.793  0.00  0.00    +0.015 A 
ATOM     12  C   LIG A   1      -8.446  -2.130 126.589  0.00  0.00    +0.065 A 
ATOM     13  C   LIG A   1      -7.845  -0.109 125.217  0.00  0.00    +0.110 A 
ATOM     14  C   LIG A   1      -8.638  -1.348 125.357  0.00  0.00    +0.204 A 
ATOM     15  O   LIG A   1      -9.437  -1.732 124.512  0.00  0.00    -0.286 OA
ENDROOT
BRANCH   1  17
ATOM     16  C   LIG A   1      -9.906   1.201 123.054  0.00  0.00    +0.277 C 
ATOM     17  O   LIG A   1      -8.688   0.451 122.993  0.00  0.00    -0.491 OA
ENDBRANCH   1  17
BRANCH   2  18
ATOM     18  O   LIG A   1      -7.062   2.617 122.883  0.00  0.00    -0.503 OA
ATOM     19  H   LIG A   1      -6.253   3.163 122.946  0.00  0.00    +0.292 HD
ENDBRANCH   2  18
TORSDOF 2
ENDMDL
