MODEL 1
REMARK VINA RESULT:      -5.5      0.000      0.000
REMARK  Name = NuBBE_55
REMARK  7 active torsions:
REMARK  status: ('A' for Active; 'I' for Inactive)
REMARK    1  A    between atoms: O_1  and  C_2
REMARK    2  A    between atoms: C_3  and  O_4
REMARK    3  A    between atoms: C_5  and  O_6
REMARK    4  A    between atoms: C_8  and  C_9
REMARK    5  A    between atoms: C_9  and  O_10
REMARK    6  A    between atoms: O_10  and  C_11
REMARK    7  A    between atoms: C_11  and  C_12
REMARK                            x       y       z     vdW  Elec       q    Type
REMARK                         _______ _______ _______ _____ _____    ______ ____
ROOT
ATOM      1  C   LIG A   1      -4.831   5.291 120.994  0.00  0.00    +0.163 A 
ATOM      2  C   LIG A   1      -5.605   5.187 119.845  0.00  0.00    +0.201 A 
ATOM      3  C   LIG A   1      -6.687   4.317 119.813  0.00  0.00    +0.163 A 
ATOM      4  C   LIG A   1      -6.985   3.524 120.911  0.00  0.00    +0.064 A 
ATOM      5  C   LIG A   1      -6.186   3.604 122.065  0.00  0.00    +0.066 A 
ATOM      6  C   LIG A   1      -5.100   4.493 122.102  0.00  0.00    +0.064 A 
ENDROOT
BRANCH   1   7
ATOM      7  O   LIG A   1      -3.813   6.197 121.060  0.00  0.00    -0.503 OA
ATOM      8  H   LIG A   1      -3.607   6.315 122.005  0.00  0.00    +0.292 HD
ENDBRANCH   1   7
BRANCH   2   9
ATOM      9  O   LIG A   1      -5.307   5.903 118.718  0.00  0.00    -0.501 OA
ATOM     10  H   LIG A   1      -6.166   6.167 118.335  0.00  0.00    +0.292 HD
ENDBRANCH   2   9
BRANCH   3  11
ATOM     11  O   LIG A   1      -7.463   4.217 118.696  0.00  0.00    -0.503 OA
ATOM     12  H   LIG A   1      -8.110   3.512 118.894  0.00  0.00    +0.292 HD
ENDBRANCH   3  11
BRANCH   5  13
ATOM     13  C   LIG A   1      -6.482   2.782 123.269  0.00  0.00    +0.339 C 
ATOM     14  O   LIG A   1      -6.222   3.127 124.412  0.00  0.00    -0.245 OA
BRANCH  13  15
ATOM     15  O   LIG A   1      -7.086   1.629 122.895  0.00  0.00    -0.461 OA
BRANCH  15  16
ATOM     16  C   LIG A   1      -8.198   1.194 123.688  0.00  0.00    +0.229 C 
ATOM     17  C   LIG A   1      -9.488   1.809 123.183  0.00  0.00    +0.048 C 
ENDBRANCH  15  16
ENDBRANCH  13  15
ENDBRANCH   5  13
TORSDOF 6
ENDMDL
MODEL 2
REMARK VINA RESULT:      -5.4      0.481      2.275
REMARK  Name = NuBBE_55
REMARK  7 active torsions:
REMARK  status: ('A' for Active; 'I' for Inactive)
REMARK    1  A    between atoms: O_1  and  C_2
REMARK    2  A    between atoms: C_3  and  O_4
REMARK    3  A    between atoms: C_5  and  O_6
REMARK    4  A    between atoms: C_8  and  C_9
REMARK    5  A    between atoms: C_9  and  O_10
REMARK    6  A    between atoms: O_10  and  C_11
REMARK    7  A    between atoms: C_11  and  C_12
REMARK                            x       y       z     vdW  Elec       q    Type
REMARK                         _______ _______ _______ _____ _____    ______ ____
ROOT
ATOM      1  C   LIG A   1      -6.733   4.343 119.724  0.00  0.00    +0.163 A 
ATOM      2  C   LIG A   1      -5.645   5.203 119.810  0.00  0.00    +0.201 A 
ATOM      3  C   LIG A   1      -4.888   5.249 120.973  0.00  0.00    +0.163 A 
ATOM      4  C   LIG A   1      -5.228   4.465 122.066  0.00  0.00    +0.064 A 
ATOM      5  C   LIG A   1      -6.346   3.617 121.993  0.00  0.00    +0.066 A 
ATOM      6  C   LIG A   1      -7.104   3.560 120.812  0.00  0.00    +0.064 A 
ENDROOT
BRANCH   1   7
ATOM      7  O   LIG A   1      -7.436   4.237 118.559  0.00  0.00    -0.503 OA
ATOM      8  H   LIG A   1      -7.098   3.445 118.102  0.00  0.00    +0.292 HD
ENDBRANCH   1   7
BRANCH   2   9
ATOM      9  O   LIG A   1      -5.314   6.039 118.780  0.00  0.00    -0.501 OA
ATOM     10  H   LIG A   1      -6.151   6.458 118.498  0.00  0.00    +0.292 HD
ENDBRANCH   2   9
BRANCH   3  11
ATOM     11  O   LIG A   1      -3.809   6.078 121.065  0.00  0.00    -0.503 OA
ATOM     12  H   LIG A   1      -3.113   5.655 120.524  0.00  0.00    +0.292 HD
ENDBRANCH   3  11
BRANCH   5  13
ATOM     13  C   LIG A   1      -6.735   2.749 123.137  0.00  0.00    +0.339 C 
ATOM     14  O   LIG A   1      -6.165   2.748 124.218  0.00  0.00    -0.245 OA
BRANCH  13  15
ATOM     15  O   LIG A   1      -7.806   1.995 122.793  0.00  0.00    -0.461 OA
BRANCH  15  16
ATOM     16  C   LIG A   1      -9.003   2.184 123.557  0.00  0.00    +0.229 C 
ATOM     17  C   LIG A   1     -10.047   1.151 123.180  0.00  0.00    +0.048 C 
ENDBRANCH  15  16
ENDBRANCH  13  15
ENDBRANCH   5  13
TORSDOF 6
ENDMDL
MODEL 3
REMARK VINA RESULT:      -5.4      8.792     10.921
REMARK  Name = NuBBE_55
REMARK  7 active torsions:
REMARK  status: ('A' for Active; 'I' for Inactive)
REMARK    1  A    between atoms: O_1  and  C_2
REMARK    2  A    between atoms: C_3  and  O_4
REMARK    3  A    between atoms: C_5  and  O_6
REMARK    4  A    between atoms: C_8  and  C_9
REMARK    5  A    between atoms: C_9  and  O_10
REMARK    6  A    between atoms: O_10  and  C_11
REMARK    7  A    between atoms: C_11  and  C_12
REMARK                            x       y       z     vdW  Elec       q    Type
REMARK                         _______ _______ _______ _____ _____    ______ ____
ROOT
ATOM      1  C   LIG A   1      -8.510   6.997 130.829  0.00  0.00    +0.163 A 
ATOM      2  C   LIG A   1      -8.727   6.192 131.941  0.00  0.00    +0.201 A 
ATOM      3  C   LIG A   1     -10.009   5.746 132.234  0.00  0.00    +0.163 A 
ATOM      4  C   LIG A   1     -11.084   6.123 131.443  0.00  0.00    +0.064 A 
ATOM      5  C   LIG A   1     -10.873   6.961 130.335  0.00  0.00    +0.066 A 
ATOM      6  C   LIG A   1      -9.575   7.402 130.030  0.00  0.00    +0.064 A 
ENDROOT
BRANCH   1   7
ATOM      7  O   LIG A   1      -7.243   7.378 130.491  0.00  0.00    -0.503 OA
ATOM      8  H   LIG A   1      -6.847   6.629 130.011  0.00  0.00    +0.292 HD
ENDBRANCH   1   7
BRANCH   2   9
ATOM      9  O   LIG A   1      -7.706   5.851 132.784  0.00  0.00    -0.501 OA
ATOM     10  H   LIG A   1      -8.075   5.907 133.687  0.00  0.00    +0.292 HD
ENDBRANCH   2   9
BRANCH   3  11
ATOM     11  O   LIG A   1     -10.233   4.943 133.314  0.00  0.00    -0.503 OA
ATOM     12  H   LIG A   1     -11.054   4.455 133.106  0.00  0.00    +0.292 HD
ENDBRANCH   3  11
BRANCH   5  13
ATOM     13  C   LIG A   1     -11.996   7.375 129.453  0.00  0.00    +0.339 C 
ATOM     14  O   LIG A   1     -12.706   8.348 129.661  0.00  0.00    -0.245 OA
BRANCH  13  15
ATOM     15  O   LIG A   1     -12.084   6.527 128.400  0.00  0.00    -0.461 OA
BRANCH  15  16
ATOM     16  C   LIG A   1     -12.339   7.112 127.117  0.00  0.00    +0.229 C 
ATOM     17  C   LIG A   1     -11.053   7.620 126.496  0.00  0.00    +0.048 C 
ENDBRANCH  15  16
ENDBRANCH  13  15
ENDBRANCH   5  13
TORSDOF 6
ENDMDL
MODEL 4
REMARK VINA RESULT:      -5.4      8.788     10.994
REMARK  Name = NuBBE_55
REMARK  7 active torsions:
REMARK  status: ('A' for Active; 'I' for Inactive)
REMARK    1  A    between atoms: O_1  and  C_2
REMARK    2  A    between atoms: C_3  and  O_4
REMARK    3  A    between atoms: C_5  and  O_6
REMARK    4  A    between atoms: C_8  and  C_9
REMARK    5  A    between atoms: C_9  and  O_10
REMARK    6  A    between atoms: O_10  and  C_11
REMARK    7  A    between atoms: C_11  and  C_12
REMARK                            x       y       z     vdW  Elec       q    Type
REMARK                         _______ _______ _______ _____ _____    ______ ____
ROOT
ATOM      1  C   LIG A   1     -10.000   5.750 132.229  0.00  0.00    +0.163 A 
ATOM      2  C   LIG A   1      -8.712   6.169 131.917  0.00  0.00    +0.201 A 
ATOM      3  C   LIG A   1      -8.497   6.989 130.818  0.00  0.00    +0.163 A 
ATOM      4  C   LIG A   1      -9.555   7.371 130.006  0.00  0.00    +0.064 A 
ATOM      5  C   LIG A   1     -10.854   6.925 130.301  0.00  0.00    +0.066 A 
ATOM      6  C   LIG A   1     -11.075   6.106 131.420  0.00  0.00    +0.064 A 
ENDROOT
BRANCH   1   7
ATOM      7  O   LIG A   1     -10.231   5.006 133.350  0.00  0.00    -0.503 OA
ATOM      8  H   LIG A   1     -10.471   5.634 134.055  0.00  0.00    +0.292 HD
ENDBRANCH   1   7
BRANCH   2   9
ATOM      9  O   LIG A   1      -7.634   5.763 132.653  0.00  0.00    -0.501 OA
ATOM     10  H   LIG A   1      -7.499   4.820 132.432  0.00  0.00    +0.292 HD
ENDBRANCH   2   9
BRANCH   3  11
ATOM     11  O   LIG A   1      -7.239   7.419 130.510  0.00  0.00    -0.503 OA
ATOM     12  H   LIG A   1      -7.191   7.393 129.534  0.00  0.00    +0.292 HD
ENDBRANCH   3  11
BRANCH   5  13
ATOM     13  C   LIG A   1     -12.017   7.324 129.464  0.00  0.00    +0.339 C 
ATOM     14  O   LIG A   1     -12.756   8.263 129.725  0.00  0.00    -0.245 OA
BRANCH  13  15
ATOM     15  O   LIG A   1     -12.106   6.508 128.387  0.00  0.00    -0.461 OA
BRANCH  15  16
ATOM     16  C   LIG A   1     -12.345   7.131 127.119  0.00  0.00    +0.229 C 
ATOM     17  C   LIG A   1     -11.052   7.656 126.529  0.00  0.00    +0.048 C 
ENDBRANCH  15  16
ENDBRANCH  13  15
ENDBRANCH   5  13
TORSDOF 6
ENDMDL
MODEL 5
REMARK VINA RESULT:      -5.4      9.500     11.511
REMARK  Name = NuBBE_55
REMARK  7 active torsions:
REMARK  status: ('A' for Active; 'I' for Inactive)
REMARK    1  A    between atoms: O_1  and  C_2
REMARK    2  A    between atoms: C_3  and  O_4
REMARK    3  A    between atoms: C_5  and  O_6
REMARK    4  A    between atoms: C_8  and  C_9
REMARK    5  A    between atoms: C_9  and  O_10
REMARK    6  A    between atoms: O_10  and  C_11
REMARK    7  A    between atoms: C_11  and  C_12
REMARK                            x       y       z     vdW  Elec       q    Type
REMARK                         _______ _______ _______ _____ _____    ______ ____
ROOT
ATOM      1  C   LIG A   1     -11.191   6.320 131.279  0.00  0.00    +0.163 A 
ATOM      2  C   LIG A   1     -10.209   5.809 130.440  0.00  0.00    +0.201 A 
ATOM      3  C   LIG A   1     -10.106   6.267 129.133  0.00  0.00    +0.163 A 
ATOM      4  C   LIG A   1     -10.998   7.210 128.644  0.00  0.00    +0.064 A 
ATOM      5  C   LIG A   1     -12.012   7.707 129.481  0.00  0.00    +0.066 A 
ATOM      6  C   LIG A   1     -12.108   7.255 130.807  0.00  0.00    +0.064 A 
ENDROOT
BRANCH   1   7
ATOM      7  O   LIG A   1     -11.252   5.932 132.586  0.00  0.00    -0.503 OA
ATOM      8  H   LIG A   1     -10.853   5.044 132.630  0.00  0.00    +0.292 HD
ENDBRANCH   1   7
BRANCH   2   9
ATOM      9  O   LIG A   1      -9.350   4.832 130.861  0.00  0.00    -0.501 OA
ATOM     10  H   LIG A   1      -8.577   4.881 130.266  0.00  0.00    +0.292 HD
ENDBRANCH   2   9
BRANCH   3  11
ATOM     11  O   LIG A   1      -9.137   5.783 128.304  0.00  0.00    -0.503 OA
ATOM     12  H   LIG A   1      -8.490   5.347 128.892  0.00  0.00    +0.292 HD
ENDBRANCH   3  11
BRANCH   5  13
ATOM     13  C   LIG A   1     -12.979   8.730 129.001  0.00  0.00    +0.339 C 
ATOM     14  O   LIG A   1     -13.658   8.609 127.992  0.00  0.00    -0.245 OA
BRANCH  13  15
ATOM     15  O   LIG A   1     -12.991   9.781 129.856  0.00  0.00    -0.461 OA
BRANCH  15  16
ATOM     16  C   LIG A   1     -13.875  10.864 129.539  0.00  0.00    +0.229 C 
ATOM     17  C   LIG A   1     -13.601  12.057 130.432  0.00  0.00    +0.048 C 
ENDBRANCH  15  16
ENDBRANCH  13  15
ENDBRANCH   5  13
TORSDOF 6
ENDMDL
MODEL 6
REMARK VINA RESULT:      -5.3      9.778     11.225
REMARK  Name = NuBBE_55
REMARK  7 active torsions:
REMARK  status: ('A' for Active; 'I' for Inactive)
REMARK    1  A    between atoms: O_1  and  C_2
REMARK    2  A    between atoms: C_3  and  O_4
REMARK    3  A    between atoms: C_5  and  O_6
REMARK    4  A    between atoms: C_8  and  C_9
REMARK    5  A    between atoms: C_9  and  O_10
REMARK    6  A    between atoms: O_10  and  C_11
REMARK    7  A    between atoms: C_11  and  C_12
REMARK                            x       y       z     vdW  Elec       q    Type
REMARK                         _______ _______ _______ _____ _____    ______ ____
ROOT
ATOM      1  C   LIG A   1     -10.711   7.917 129.267  0.00  0.00    +0.163 A 
ATOM      2  C   LIG A   1     -11.994   7.823 129.793  0.00  0.00    +0.201 A 
ATOM      3  C   LIG A   1     -12.200   7.181 131.007  0.00  0.00    +0.163 A 
ATOM      4  C   LIG A   1     -11.138   6.602 131.687  0.00  0.00    +0.064 A 
ATOM      5  C   LIG A   1      -9.844   6.669 131.143  0.00  0.00    +0.066 A 
ATOM      6  C   LIG A   1      -9.633   7.330 129.922  0.00  0.00    +0.064 A 
ENDROOT
BRANCH   1   7
ATOM      7  O   LIG A   1     -10.489   8.611 128.113  0.00  0.00    -0.503 OA
ATOM      8  H   LIG A   1      -9.549   8.481 127.888  0.00  0.00    +0.292 HD
ENDBRANCH   1   7
BRANCH   2   9
ATOM      9  O   LIG A   1     -13.076   8.322 129.124  0.00  0.00    -0.501 OA
ATOM     10  H   LIG A   1     -12.772   9.151 128.706  0.00  0.00    +0.292 HD
ENDBRANCH   2   9
BRANCH   3  11
ATOM     11  O   LIG A   1     -13.452   7.094 131.541  0.00  0.00    -0.503 OA
ATOM     12  H   LIG A   1     -14.051   7.442 130.851  0.00  0.00    +0.292 HD
ENDBRANCH   3  11
BRANCH   5  13
ATOM     13  C   LIG A   1      -8.678   6.075 131.848  0.00  0.00    +0.339 C 
ATOM     14  O   LIG A   1      -7.709   5.592 131.281  0.00  0.00    -0.245 OA
BRANCH  13  15
ATOM     15  O   LIG A   1      -8.856   6.174 133.188  0.00  0.00    -0.461 OA
BRANCH  15  16
ATOM     16  C   LIG A   1      -8.129   5.252 134.008  0.00  0.00    +0.229 C 
ATOM     17  C   LIG A   1      -8.868   3.932 134.114  0.00  0.00    +0.048 C 
ENDBRANCH  15  16
ENDBRANCH  13  15
ENDBRANCH   5  13
TORSDOF 6
ENDMDL
MODEL 7
REMARK VINA RESULT:      -5.2      9.718     11.229
REMARK  Name = NuBBE_55
REMARK  7 active torsions:
REMARK  status: ('A' for Active; 'I' for Inactive)
REMARK    1  A    between atoms: O_1  and  C_2
REMARK    2  A    between atoms: C_3  and  O_4
REMARK    3  A    between atoms: C_5  and  O_6
REMARK    4  A    between atoms: C_8  and  C_9
REMARK    5  A    between atoms: C_9  and  O_10
REMARK    6  A    between atoms: O_10  and  C_11
REMARK    7  A    between atoms: C_11  and  C_12
REMARK                            x       y       z     vdW  Elec       q    Type
REMARK                         _______ _______ _______ _____ _____    ______ ____
ROOT
ATOM      1  C   LIG A   1     -12.223   7.204 130.921  0.00  0.00    +0.163 A 
ATOM      2  C   LIG A   1     -12.034   7.856 129.708  0.00  0.00    +0.201 A 
ATOM      3  C   LIG A   1     -10.763   7.934 129.154  0.00  0.00    +0.163 A 
ATOM      4  C   LIG A   1      -9.671   7.392 129.816  0.00  0.00    +0.064 A 
ATOM      5  C   LIG A   1      -9.854   6.758 131.057  0.00  0.00    +0.066 A 
ATOM      6  C   LIG A   1     -11.141   6.667 131.612  0.00  0.00    +0.064 A 
ENDROOT
BRANCH   1   7
ATOM      7  O   LIG A   1     -13.478   7.057 131.436  0.00  0.00    -0.503 OA
ATOM      8  H   LIG A   1     -13.948   7.894 131.265  0.00  0.00    +0.292 HD
ENDBRANCH   1   7
BRANCH   2   9
ATOM      9  O   LIG A   1     -13.072   8.460 129.055  0.00  0.00    -0.501 OA
ATOM     10  H   LIG A   1     -12.712   8.752 128.195  0.00  0.00    +0.292 HD
ENDBRANCH   2   9
BRANCH   3  11
ATOM     11  O   LIG A   1     -10.567   8.559 127.957  0.00  0.00    -0.503 OA
ATOM     12  H   LIG A   1     -10.497   9.510 128.172  0.00  0.00    +0.292 HD
ENDBRANCH   3  11
BRANCH   5  13
ATOM     13  C   LIG A   1      -8.712   6.151 131.790  0.00  0.00    +0.339 C 
ATOM     14  O   LIG A   1      -7.702   5.725 131.251  0.00  0.00    -0.245 OA
BRANCH  13  15
ATOM     15  O   LIG A   1      -8.966   6.166 133.121  0.00  0.00    -0.461 OA
BRANCH  15  16
ATOM     16  C   LIG A   1      -8.189   5.283 133.939  0.00  0.00    +0.229 C 
ATOM     17  C   LIG A   1      -8.877   3.938 134.076  0.00  0.00    +0.048 C 
ENDBRANCH  15  16
ENDBRANCH  13  15
ENDBRANCH   5  13
TORSDOF 6
ENDMDL
MODEL 8
REMARK VINA RESULT:      -5.1      8.973     10.515
REMARK  Name = NuBBE_55
REMARK  7 active torsions:
REMARK  status: ('A' for Active; 'I' for Inactive)
REMARK    1  A    between atoms: O_1  and  C_2
REMARK    2  A    between atoms: C_3  and  O_4
REMARK    3  A    between atoms: C_5  and  O_6
REMARK    4  A    between atoms: C_8  and  C_9
REMARK    5  A    between atoms: C_9  and  O_10
REMARK    6  A    between atoms: O_10  and  C_11
REMARK    7  A    between atoms: C_11  and  C_12
REMARK                            x       y       z     vdW  Elec       q    Type
REMARK                         _______ _______ _______ _____ _____    ______ ____
ROOT
ATOM      1  C   LIG A   1     -12.220   7.202 130.725  0.00  0.00    +0.163 A 
ATOM      2  C   LIG A   1     -12.155   8.203 129.765  0.00  0.00    +0.201 A 
ATOM      3  C   LIG A   1     -11.189   8.148 128.769  0.00  0.00    +0.163 A 
ATOM      4  C   LIG A   1     -10.264   7.114 128.742  0.00  0.00    +0.064 A 
ATOM      5  C   LIG A   1     -10.307   6.116 129.730  0.00  0.00    +0.066 A 
ATOM      6  C   LIG A   1     -11.292   6.164 130.729  0.00  0.00    +0.064 A 
ENDROOT
BRANCH   1   7
ATOM      7  O   LIG A   1     -13.212   7.208 131.663  0.00  0.00    -0.503 OA
ATOM      8  H   LIG A   1     -13.170   6.347 132.117  0.00  0.00    +0.292 HD
ENDBRANCH   1   7
BRANCH   2   9
ATOM      9  O   LIG A   1     -13.006   9.273 129.793  0.00  0.00    -0.501 OA
ATOM     10  H   LIG A   1     -13.870   8.919 130.080  0.00  0.00    +0.292 HD
ENDBRANCH   2   9
BRANCH   3  11
ATOM     11  O   LIG A   1     -11.125   9.117 127.811  0.00  0.00    -0.503 OA
ATOM     12  H   LIG A   1     -12.049   9.400 127.669  0.00  0.00    +0.292 HD
ENDBRANCH   3  11
BRANCH   5  13
ATOM     13  C   LIG A   1      -9.344   4.983 129.727  0.00  0.00    +0.339 C 
ATOM     14  O   LIG A   1      -9.670   3.808 129.648  0.00  0.00    -0.245 OA
BRANCH  13  15
ATOM     15  O   LIG A   1      -8.078   5.461 129.808  0.00  0.00    -0.461 OA
BRANCH  15  16
ATOM     16  C   LIG A   1      -7.564   5.714 131.120  0.00  0.00    +0.229 C 
ATOM     17  C   LIG A   1      -6.694   6.956 131.124  0.00  0.00    +0.048 C 
ENDBRANCH  15  16
ENDBRANCH  13  15
ENDBRANCH   5  13
TORSDOF 6
ENDMDL
MODEL 9
REMARK VINA RESULT:      -5.1      9.035     10.606
REMARK  Name = NuBBE_55
REMARK  7 active torsions:
REMARK  status: ('A' for Active; 'I' for Inactive)
REMARK    1  A    between atoms: O_1  and  C_2
REMARK    2  A    between atoms: C_3  and  O_4
REMARK    3  A    between atoms: C_5  and  O_6
REMARK    4  A    between atoms: C_8  and  C_9
REMARK    5  A    between atoms: C_9  and  O_10
REMARK    6  A    between atoms: O_10  and  C_11
REMARK    7  A    between atoms: C_11  and  C_12
REMARK                            x       y       z     vdW  Elec       q    Type
REMARK                         _______ _______ _______ _____ _____    ______ ____
ROOT
ATOM      1  C   LIG A   1     -10.964   7.909 128.986  0.00  0.00    +0.163 A 
ATOM      2  C   LIG A   1     -12.039   8.092 129.846  0.00  0.00    +0.201 A 
ATOM      3  C   LIG A   1     -12.312   7.147 130.826  0.00  0.00    +0.163 A 
ATOM      4  C   LIG A   1     -11.537   6.001 130.936  0.00  0.00    +0.064 A 
ATOM      5  C   LIG A   1     -10.467   5.798 130.047  0.00  0.00    +0.066 A 
ATOM      6  C   LIG A   1     -10.182   6.760 129.064  0.00  0.00    +0.064 A 
ENDROOT
BRANCH   1   7
ATOM      7  O   LIG A   1     -10.643   8.868 128.069  0.00  0.00    -0.503 OA
ATOM      8  H   LIG A   1     -10.073   9.511 128.528  0.00  0.00    +0.292 HD
ENDBRANCH   1   7
BRANCH   2   9
ATOM      9  O   LIG A   1     -12.867   9.174 129.731  0.00  0.00    -0.501 OA
ATOM     10  H   LIG A   1     -13.504   9.103 130.468  0.00  0.00    +0.292 HD
ENDBRANCH   2   9
BRANCH   3  11
ATOM     11  O   LIG A   1     -13.356   7.322 131.686  0.00  0.00    -0.503 OA
ATOM     12  H   LIG A   1     -14.054   7.758 131.158  0.00  0.00    +0.292 HD
ENDBRANCH   3  11
BRANCH   5  13
ATOM     13  C   LIG A   1      -9.603   4.592 130.141  0.00  0.00    +0.339 C 
ATOM     14  O   LIG A   1      -9.285   3.903 129.183  0.00  0.00    -0.245 OA
BRANCH  13  15
ATOM     15  O   LIG A   1      -9.224   4.401 131.428  0.00  0.00    -0.461 OA
BRANCH  15  16
ATOM     16  C   LIG A   1      -9.250   3.055 131.918  0.00  0.00    +0.229 C 
ATOM     17  C   LIG A   1      -9.083   3.032 133.425  0.00  0.00    +0.048 C 
ENDBRANCH  15  16
ENDBRANCH  13  15
ENDBRANCH   5  13
TORSDOF 6
ENDMDL
