MODEL 1
REMARK VINA RESULT:      -9.2      0.000      0.000
REMARK  Name = NuBBE_1457
REMARK  6 active torsions:
REMARK  status: ('A' for Active; 'I' for Inactive)
REMARK    1  A    between atoms: C_10  and  C_11
REMARK    2  A    between atoms: C_10  and  C_13
REMARK    3  A    between atoms: C_20  and  O_21
REMARK    4  A    between atoms: O_21  and  C_22
REMARK    5  A    between atoms: C_23  and  O_28
REMARK    6  A    between atoms: O_28  and  C_29
REMARK                            x       y       z     vdW  Elec       q    Type
REMARK                         _______ _______ _______ _____ _____    ______ ____
ROOT
ATOM      1  O   LIG A   1      -8.088   5.283 133.895  0.00  0.00    -0.286 OA
ATOM      2  C   LIG A   1      -7.980   5.846 132.812  0.00  0.00    +0.201 A 
ATOM      3  C   LIG A   1      -9.190   6.186 132.043  0.00  0.00    +0.065 A 
ATOM      4  C   LIG A   1     -10.457   5.956 132.588  0.00  0.00    +0.019 A 
ATOM      5  C   LIG A   1     -11.593   6.340 131.878  0.00  0.00    +0.047 A 
ATOM      6  C   LIG A   1     -11.461   6.960 130.635  0.00  0.00    +0.132 A 
ATOM      7  C   LIG A   1     -10.197   7.159 130.065  0.00  0.00    +0.059 A 
ATOM      8  C   LIG A   1     -10.116   7.772 128.741  0.00  0.00    +0.015 C 
ATOM      9  C   LIG A   1     -11.225   8.318 128.233  0.00  0.00    +0.020 C 
ATOM     10  C   LIG A   1     -12.547   8.306 128.967  0.00  0.00    +0.123 C 
ATOM     11  C   LIG A   1     -13.672   7.959 127.986  0.00  0.00    +0.060 C 
ATOM     12  O   LIG A   1     -12.629   7.325 130.022  0.00  0.00    -0.481 OA
ATOM     13  C   LIG A   1     -12.814   9.685 129.585  0.00  0.00    +0.060 C 
ATOM     14  C   LIG A   1      -9.055   6.766 130.782  0.00  0.00    +0.150 A 
ATOM     15  O   LIG A   1      -7.824   6.979 130.216  0.00  0.00    -0.455 OA
ATOM     16  C   LIG A   1      -6.693   6.777 130.984  0.00  0.00    +0.154 A 
ATOM     17  C   LIG A   1      -6.676   6.252 132.222  0.00  0.00    +0.074 A 
ATOM     18  C   LIG A   1      -5.366   6.172 132.896  0.00  0.00    +0.035 A 
ATOM     19  C   LIG A   1      -5.137   5.439 134.069  0.00  0.00    +0.061 A 
ATOM     20  C   LIG A   1      -3.899   5.490 134.729  0.00  0.00    +0.162 A 
ATOM     21  C   LIG A   1      -2.857   6.267 134.199  0.00  0.00    +0.165 A 
ATOM     22  C   LIG A   1      -3.059   6.966 133.009  0.00  0.00    +0.095 A 
ATOM     23  C   LIG A   1      -4.296   6.909 132.366  0.00  0.00    +0.133 A 
ATOM     24  O   LIG A   1      -4.404   7.658 131.222  0.00  0.00    -0.484 OA
ATOM     25  C   LIG A   1      -5.424   7.223 130.318  0.00  0.00    +0.303 C 
ENDROOT
BRANCH  20  26
ATOM     26  O   LIG A   1      -3.626   4.804 135.887  0.00  0.00    -0.491 OA
ATOM     27  C   LIG A   1      -3.996   3.431 135.908  0.00  0.00    +0.277 C 
ENDBRANCH  20  26
BRANCH  21  28
ATOM     28  O   LIG A   1      -1.669   6.268 134.888  0.00  0.00    -0.491 OA
ATOM     29  C   LIG A   1      -0.595   6.964 134.265  0.00  0.00    +0.277 C 
ENDBRANCH  21  28
TORSDOF 2
ENDMDL
MODEL 2
REMARK VINA RESULT:      -8.2      7.017      8.727
REMARK  Name = NuBBE_1457
REMARK  6 active torsions:
REMARK  status: ('A' for Active; 'I' for Inactive)
REMARK    1  A    between atoms: C_10  and  C_11
REMARK    2  A    between atoms: C_10  and  C_13
REMARK    3  A    between atoms: C_20  and  O_21
REMARK    4  A    between atoms: O_21  and  C_22
REMARK    5  A    between atoms: C_23  and  O_28
REMARK    6  A    between atoms: O_28  and  C_29
REMARK                            x       y       z     vdW  Elec       q    Type
REMARK                         _______ _______ _______ _____ _____    ______ ____
ROOT
ATOM      1  O   LIG A   1      -8.132   0.424 130.765  0.00  0.00    -0.286 OA
ATOM      2  C   LIG A   1      -7.864   0.830 129.641  0.00  0.00    +0.201 A 
ATOM      3  C   LIG A   1      -7.467  -0.128 128.595  0.00  0.00    +0.065 A 
ATOM      4  C   LIG A   1      -7.489  -1.502 128.854  0.00  0.00    +0.019 A 
ATOM      5  C   LIG A   1      -7.172  -2.401 127.838  0.00  0.00    +0.047 A 
ATOM      6  C   LIG A   1      -6.846  -1.928 126.567  0.00  0.00    +0.132 A 
ATOM      7  C   LIG A   1      -6.784  -0.553 126.308  0.00  0.00    +0.059 A 
ATOM      8  C   LIG A   1      -6.393  -0.109 124.972  0.00  0.00    +0.015 C 
ATOM      9  C   LIG A   1      -6.333  -1.024 123.999  0.00  0.00    +0.020 C 
ATOM     10  C   LIG A   1      -6.635  -2.487 124.239  0.00  0.00    +0.123 C 
ATOM     11  C   LIG A   1      -5.595  -3.347 123.513  0.00  0.00    +0.060 C 
ATOM     12  O   LIG A   1      -6.574  -2.884 125.625  0.00  0.00    -0.481 OA
ATOM     13  C   LIG A   1      -8.036  -2.825 123.714  0.00  0.00    +0.060 C 
ATOM     14  C   LIG A   1      -7.099   0.350 127.337  0.00  0.00    +0.150 A 
ATOM     15  O   LIG A   1      -7.046   1.694 127.066  0.00  0.00    -0.455 OA
ATOM     16  C   LIG A   1      -7.536   2.582 128.002  0.00  0.00    +0.154 A 
ATOM     17  C   LIG A   1      -7.950   2.260 129.241  0.00  0.00    +0.074 A 
ATOM     18  C   LIG A   1      -8.492   3.354 130.070  0.00  0.00    +0.035 A 
ATOM     19  C   LIG A   1      -8.734   3.241 131.446  0.00  0.00    +0.061 A 
ATOM     20  C   LIG A   1      -9.357   4.275 132.162  0.00  0.00    +0.162 A 
ATOM     21  C   LIG A   1      -9.726   5.457 131.502  0.00  0.00    +0.165 A 
ATOM     22  C   LIG A   1      -9.452   5.599 130.142  0.00  0.00    +0.095 A 
ATOM     23  C   LIG A   1      -8.835   4.560 129.442  0.00  0.00    +0.133 A 
ATOM     24  O   LIG A   1      -8.640   4.784 128.103  0.00  0.00    -0.484 OA
ATOM     25  C   LIG A   1      -7.598   4.000 127.513  0.00  0.00    +0.303 C 
ENDROOT
BRANCH  20  26
ATOM     26  O   LIG A   1      -9.629   4.212 133.507  0.00  0.00    -0.491 OA
ATOM     27  C   LIG A   1      -8.505   4.144 134.375  0.00  0.00    +0.277 C 
ENDBRANCH  20  26
BRANCH  21  28
ATOM     28  O   LIG A   1     -10.324   6.433 132.261  0.00  0.00    -0.491 OA
ATOM     29  C   LIG A   1     -11.676   6.731 131.930  0.00  0.00    +0.277 C 
ENDBRANCH  21  28
TORSDOF 2
ENDMDL
MODEL 3
REMARK VINA RESULT:      -8.0      1.626      8.864
REMARK  Name = NuBBE_1457
REMARK  6 active torsions:
REMARK  status: ('A' for Active; 'I' for Inactive)
REMARK    1  A    between atoms: C_10  and  C_11
REMARK    2  A    between atoms: C_10  and  C_13
REMARK    3  A    between atoms: C_20  and  O_21
REMARK    4  A    between atoms: O_21  and  C_22
REMARK    5  A    between atoms: C_23  and  O_28
REMARK    6  A    between atoms: O_28  and  C_29
REMARK                            x       y       z     vdW  Elec       q    Type
REMARK                         _______ _______ _______ _____ _____    ______ ____
ROOT
ATOM      1  O   LIG A   1      -5.748   6.887 130.006  0.00  0.00    -0.286 OA
ATOM      2  C   LIG A   1      -5.637   6.670 131.207  0.00  0.00    +0.201 A 
ATOM      3  C   LIG A   1      -4.334   6.865 131.866  0.00  0.00    +0.065 A 
ATOM      4  C   LIG A   1      -3.255   7.390 131.148  0.00  0.00    +0.019 A 
ATOM      5  C   LIG A   1      -2.046   7.630 131.798  0.00  0.00    +0.047 A 
ATOM      6  C   LIG A   1      -1.922   7.357 133.160  0.00  0.00    +0.132 A 
ATOM      7  C   LIG A   1      -2.985   6.796 133.879  0.00  0.00    +0.059 A 
ATOM      8  C   LIG A   1      -2.788   6.487 135.293  0.00  0.00    +0.015 C 
ATOM      9  C   LIG A   1      -1.689   6.958 135.891  0.00  0.00    +0.020 C 
ATOM     10  C   LIG A   1      -0.649   7.773 135.156  0.00  0.00    +0.123 C 
ATOM     11  C   LIG A   1       0.751   7.297 135.561  0.00  0.00    +0.060 C 
ATOM     12  O   LIG A   1      -0.706   7.648 133.719  0.00  0.00    -0.481 OA
ATOM     13  C   LIG A   1      -0.806   9.259 135.505  0.00  0.00    +0.060 C 
ATOM     14  C   LIG A   1      -4.200   6.551 133.218  0.00  0.00    +0.150 A 
ATOM     15  O   LIG A   1      -5.237   6.013 133.937  0.00  0.00    -0.455 OA
ATOM     16  C   LIG A   1      -6.488   5.946 133.355  0.00  0.00    +0.154 A 
ATOM     17  C   LIG A   1      -6.768   6.243 132.074  0.00  0.00    +0.074 A 
ATOM     18  C   LIG A   1      -8.183   6.160 131.663  0.00  0.00    +0.035 A 
ATOM     19  C   LIG A   1      -8.609   6.196 130.328  0.00  0.00    +0.061 A 
ATOM     20  C   LIG A   1      -9.973   6.228 130.000  0.00  0.00    +0.162 A 
ATOM     21  C   LIG A   1     -10.937   6.199 131.020  0.00  0.00    +0.165 A 
ATOM     22  C   LIG A   1     -10.527   6.120 132.350  0.00  0.00    +0.095 A 
ATOM     23  C   LIG A   1      -9.166   6.093 132.662  0.00  0.00    +0.133 A 
ATOM     24  O   LIG A   1      -8.865   6.048 133.999  0.00  0.00    -0.484 OA
ATOM     25  C   LIG A   1      -7.571   5.517 134.302  0.00  0.00    +0.303 C 
ENDROOT
BRANCH  20  26
ATOM     26  O   LIG A   1     -10.445   6.277 128.711  0.00  0.00    -0.491 OA
ATOM     27  C   LIG A   1     -10.498   7.564 128.108  0.00  0.00    +0.277 C 
ENDBRANCH  20  26
BRANCH  21  28
ATOM     28  O   LIG A   1     -12.254   6.225 130.633  0.00  0.00    -0.491 OA
ATOM     29  C   LIG A   1     -12.993   7.374 131.031  0.00  0.00    +0.277 C 
ENDBRANCH  21  28
TORSDOF 2
ENDMDL
MODEL 4
REMARK VINA RESULT:      -8.0      6.354      9.757
REMARK  Name = NuBBE_1457
REMARK  6 active torsions:
REMARK  status: ('A' for Active; 'I' for Inactive)
REMARK    1  A    between atoms: C_10  and  C_11
REMARK    2  A    between atoms: C_10  and  C_13
REMARK    3  A    between atoms: C_20  and  O_21
REMARK    4  A    between atoms: O_21  and  C_22
REMARK    5  A    between atoms: C_23  and  O_28
REMARK    6  A    between atoms: O_28  and  C_29
REMARK                            x       y       z     vdW  Elec       q    Type
REMARK                         _______ _______ _______ _____ _____    ______ ____
ROOT
ATOM      1  O   LIG A   1      -4.083   2.184 126.036  0.00  0.00    -0.286 OA
ATOM      2  C   LIG A   1      -4.783   2.664 126.919  0.00  0.00    +0.201 A 
ATOM      3  C   LIG A   1      -4.233   3.710 127.799  0.00  0.00    +0.065 A 
ATOM      4  C   LIG A   1      -2.953   4.221 127.567  0.00  0.00    +0.019 A 
ATOM      5  C   LIG A   1      -2.468   5.255 128.366  0.00  0.00    +0.047 A 
ATOM      6  C   LIG A   1      -3.264   5.779 129.385  0.00  0.00    +0.132 A 
ATOM      7  C   LIG A   1      -4.533   5.247 129.648  0.00  0.00    +0.059 A 
ATOM      8  C   LIG A   1      -5.308   5.803 130.755  0.00  0.00    +0.015 C 
ATOM      9  C   LIG A   1      -4.875   6.934 131.319  0.00  0.00    +0.020 C 
ATOM     10  C   LIG A   1      -3.615   7.639 130.866  0.00  0.00    +0.123 C 
ATOM     11  C   LIG A   1      -2.819   8.097 132.093  0.00  0.00    +0.060 C 
ATOM     12  O   LIG A   1      -2.715   6.808 130.102  0.00  0.00    -0.481 OA
ATOM     13  C   LIG A   1      -3.977   8.856 130.005  0.00  0.00    +0.060 C 
ATOM     14  C   LIG A   1      -5.015   4.203 128.843  0.00  0.00    +0.150 A 
ATOM     15  O   LIG A   1      -6.265   3.700 129.105  0.00  0.00    -0.455 OA
ATOM     16  C   LIG A   1      -6.827   2.812 128.208  0.00  0.00    +0.154 A 
ATOM     17  C   LIG A   1      -6.202   2.277 127.145  0.00  0.00    +0.074 A 
ATOM     18  C   LIG A   1      -7.000   1.390 126.277  0.00  0.00    +0.035 A 
ATOM     19  C   LIG A   1      -6.447   0.569 125.285  0.00  0.00    +0.061 A 
ATOM     20  C   LIG A   1      -7.263  -0.169 124.414  0.00  0.00    +0.162 A 
ATOM     21  C   LIG A   1      -8.659  -0.109 124.545  0.00  0.00    +0.165 A 
ATOM     22  C   LIG A   1      -9.220   0.670 125.556  0.00  0.00    +0.095 A 
ATOM     23  C   LIG A   1      -8.396   1.402 126.414  0.00  0.00    +0.133 A 
ATOM     24  O   LIG A   1      -9.046   2.164 127.351  0.00  0.00    -0.484 OA
ATOM     25  C   LIG A   1      -8.262   2.484 128.505  0.00  0.00    +0.303 C 
ENDROOT
BRANCH  20  26
ATOM     26  O   LIG A   1      -6.776  -0.978 123.416  0.00  0.00    -0.491 OA
ATOM     27  C   LIG A   1      -6.097  -2.156 123.836  0.00  0.00    +0.277 C 
ENDBRANCH  20  26
BRANCH  21  28
ATOM     28  O   LIG A   1      -9.401  -0.860 123.667  0.00  0.00    -0.491 OA
ATOM     29  C   LIG A   1     -10.030  -0.138 122.615  0.00  0.00    +0.277 C 
ENDBRANCH  21  28
TORSDOF 2
ENDMDL
MODEL 5
REMARK VINA RESULT:      -7.8      3.965      5.403
REMARK  Name = NuBBE_1457
REMARK  6 active torsions:
REMARK  status: ('A' for Active; 'I' for Inactive)
REMARK    1  A    between atoms: C_10  and  C_11
REMARK    2  A    between atoms: C_10  and  C_13
REMARK    3  A    between atoms: C_20  and  O_21
REMARK    4  A    between atoms: O_21  and  C_22
REMARK    5  A    between atoms: C_23  and  O_28
REMARK    6  A    between atoms: O_28  and  C_29
REMARK                            x       y       z     vdW  Elec       q    Type
REMARK                         _______ _______ _______ _____ _____    ______ ____
ROOT
ATOM      1  O   LIG A   1      -6.306   4.102 132.615  0.00  0.00    -0.286 OA
ATOM      2  C   LIG A   1      -7.440   3.891 132.200  0.00  0.00    +0.201 A 
ATOM      3  C   LIG A   1      -8.196   4.979 131.557  0.00  0.00    +0.065 A 
ATOM      4  C   LIG A   1      -7.590   6.219 131.332  0.00  0.00    +0.019 A 
ATOM      5  C   LIG A   1      -8.294   7.220 130.666  0.00  0.00    +0.047 A 
ATOM      6  C   LIG A   1      -9.593   6.978 130.218  0.00  0.00    +0.132 A 
ATOM      7  C   LIG A   1     -10.221   5.752 130.473  0.00  0.00    +0.059 A 
ATOM      8  C   LIG A   1     -11.598   5.566 130.022  0.00  0.00    +0.015 C 
ATOM      9  C   LIG A   1     -12.117   6.478 129.195  0.00  0.00    +0.020 C 
ATOM     10  C   LIG A   1     -11.341   7.690 128.731  0.00  0.00    +0.123 C 
ATOM     11  C   LIG A   1     -12.247   8.926 128.782  0.00  0.00    +0.060 C 
ATOM     12  O   LIG A   1     -10.197   8.010 129.552  0.00  0.00    -0.481 OA
ATOM     13  C   LIG A   1     -10.845   7.477 127.295  0.00  0.00    +0.060 C 
ATOM     14  C   LIG A   1      -9.509   4.748 131.149  0.00  0.00    +0.150 A 
ATOM     15  O   LIG A   1     -10.134   3.548 131.380  0.00  0.00    -0.455 OA
ATOM     16  C   LIG A   1      -9.389   2.492 131.868  0.00  0.00    +0.154 A 
ATOM     17  C   LIG A   1      -8.108   2.564 132.274  0.00  0.00    +0.074 A 
ATOM     18  C   LIG A   1      -7.475   1.305 132.711  0.00  0.00    +0.035 A 
ATOM     19  C   LIG A   1      -6.247   1.244 133.384  0.00  0.00    +0.061 A 
ATOM     20  C   LIG A   1      -5.637   0.014 133.676  0.00  0.00    +0.162 A 
ATOM     21  C   LIG A   1      -6.271  -1.184 133.311  0.00  0.00    +0.165 A 
ATOM     22  C   LIG A   1      -7.514  -1.138 132.679  0.00  0.00    +0.095 A 
ATOM     23  C   LIG A   1      -8.107   0.093 132.392  0.00  0.00    +0.133 A 
ATOM     24  O   LIG A   1      -9.311   0.032 131.738  0.00  0.00    -0.484 OA
ATOM     25  C   LIG A   1     -10.136   1.191 131.899  0.00  0.00    +0.303 C 
ENDROOT
BRANCH  20  26
ATOM     26  O   LIG A   1      -4.430  -0.103 134.321  0.00  0.00    -0.491 OA
ATOM     27  C   LIG A   1      -3.279   0.278 133.577  0.00  0.00    +0.277 C 
ENDBRANCH  20  26
BRANCH  21  28
ATOM     28  O   LIG A   1      -5.627  -2.353 133.631  0.00  0.00    -0.491 OA
ATOM     29  C   LIG A   1      -5.138  -3.110 132.530  0.00  0.00    +0.277 C 
ENDBRANCH  21  28
TORSDOF 2
ENDMDL
MODEL 6
REMARK VINA RESULT:      -7.8      6.500     10.081
REMARK  Name = NuBBE_1457
REMARK  6 active torsions:
REMARK  status: ('A' for Active; 'I' for Inactive)
REMARK    1  A    between atoms: C_10  and  C_11
REMARK    2  A    between atoms: C_10  and  C_13
REMARK    3  A    between atoms: C_20  and  O_21
REMARK    4  A    between atoms: O_21  and  C_22
REMARK    5  A    between atoms: C_23  and  O_28
REMARK    6  A    between atoms: O_28  and  C_29
REMARK                            x       y       z     vdW  Elec       q    Type
REMARK                         _______ _______ _______ _____ _____    ______ ____
ROOT
ATOM      1  O   LIG A   1      -4.641   3.036 125.780  0.00  0.00    -0.286 OA
ATOM      2  C   LIG A   1      -4.615   2.852 126.992  0.00  0.00    +0.201 A 
ATOM      3  C   LIG A   1      -3.837   3.761 127.851  0.00  0.00    +0.065 A 
ATOM      4  C   LIG A   1      -3.211   4.885 127.301  0.00  0.00    +0.019 A 
ATOM      5  C   LIG A   1      -2.532   5.772 128.134  0.00  0.00    +0.047 A 
ATOM      6  C   LIG A   1      -2.488   5.541 129.509  0.00  0.00    +0.132 A 
ATOM      7  C   LIG A   1      -3.079   4.399 130.063  0.00  0.00    +0.059 A 
ATOM      8  C   LIG A   1      -2.965   4.181 131.504  0.00  0.00    +0.015 C 
ATOM      9  C   LIG A   1      -2.504   5.185 132.255  0.00  0.00    +0.020 C 
ATOM     10  C   LIG A   1      -2.086   6.515 131.669  0.00  0.00    +0.123 C 
ATOM     11  C   LIG A   1      -0.778   6.972 132.326  0.00  0.00    +0.060 C 
ATOM     12  O   LIG A   1      -1.820   6.478 130.251  0.00  0.00    -0.481 OA
ATOM     13  C   LIG A   1      -3.178   7.564 131.916  0.00  0.00    +0.060 C 
ATOM     14  C   LIG A   1      -3.758   3.505 129.219  0.00  0.00    +0.150 A 
ATOM     15  O   LIG A   1      -4.343   2.396 129.778  0.00  0.00    -0.455 OA
ATOM     16  C   LIG A   1      -5.173   1.616 128.997  0.00  0.00    +0.154 A 
ATOM     17  C   LIG A   1      -5.364   1.764 127.674  0.00  0.00    +0.074 A 
ATOM     18  C   LIG A   1      -6.338   0.858 127.035  0.00  0.00    +0.035 A 
ATOM     19  C   LIG A   1      -6.473   0.715 125.647  0.00  0.00    +0.061 A 
ATOM     20  C   LIG A   1      -7.492  -0.075 125.093  0.00  0.00    +0.162 A 
ATOM     21  C   LIG A   1      -8.383  -0.758 125.936  0.00  0.00    +0.165 A 
ATOM     22  C   LIG A   1      -8.232  -0.659 127.318  0.00  0.00    +0.095 A 
ATOM     23  C   LIG A   1      -7.216   0.134 127.856  0.00  0.00    +0.133 A 
ATOM     24  O   LIG A   1      -7.173   0.194 129.225  0.00  0.00    -0.484 OA
ATOM     25  C   LIG A   1      -5.897   0.549 129.767  0.00  0.00    +0.303 C 
ENDROOT
BRANCH  20  26
ATOM     26  O   LIG A   1      -7.678  -0.239 123.742  0.00  0.00    -0.491 OA
ATOM     27  C   LIG A   1      -6.715  -1.038 123.066  0.00  0.00    +0.277 C 
ENDBRANCH  20  26
BRANCH  21  28
ATOM     28  O   LIG A   1      -9.352  -1.520 125.331  0.00  0.00    -0.491 OA
ATOM     29  C   LIG A   1      -9.375  -2.895 125.699  0.00  0.00    +0.277 C 
ENDBRANCH  21  28
TORSDOF 2
ENDMDL
MODEL 7
REMARK VINA RESULT:      -7.6      7.208      8.402
REMARK  Name = NuBBE_1457
REMARK  6 active torsions:
REMARK  status: ('A' for Active; 'I' for Inactive)
REMARK    1  A    between atoms: C_10  and  C_11
REMARK    2  A    between atoms: C_10  and  C_13
REMARK    3  A    between atoms: C_20  and  O_21
REMARK    4  A    between atoms: O_21  and  C_22
REMARK    5  A    between atoms: C_23  and  O_28
REMARK    6  A    between atoms: O_28  and  C_29
REMARK                            x       y       z     vdW  Elec       q    Type
REMARK                         _______ _______ _______ _____ _____    ______ ____
ROOT
ATOM      1  O   LIG A   1      -5.551   3.777 125.804  0.00  0.00    -0.286 OA
ATOM      2  C   LIG A   1      -6.070   2.856 126.425  0.00  0.00    +0.201 A 
ATOM      3  C   LIG A   1      -6.686   1.738 125.691  0.00  0.00    +0.065 A 
ATOM      4  C   LIG A   1      -6.595   1.677 124.297  0.00  0.00    +0.019 A 
ATOM      5  C   LIG A   1      -7.126   0.582 123.618  0.00  0.00    +0.047 A 
ATOM      6  C   LIG A   1      -7.736  -0.450 124.332  0.00  0.00    +0.132 A 
ATOM      7  C   LIG A   1      -7.865  -0.380 125.725  0.00  0.00    +0.059 A 
ATOM      8  C   LIG A   1      -8.551  -1.466 126.420  0.00  0.00    +0.015 C 
ATOM      9  C   LIG A   1      -8.823  -2.579 125.731  0.00  0.00    +0.020 C 
ATOM     10  C   LIG A   1      -8.463  -2.740 124.271  0.00  0.00    +0.123 C 
ATOM     11  C   LIG A   1      -9.635  -3.392 123.527  0.00  0.00    +0.060 C 
ATOM     12  O   LIG A   1      -8.206  -1.497 123.584  0.00  0.00    -0.481 OA
ATOM     13  C   LIG A   1      -7.215  -3.621 124.133  0.00  0.00    +0.060 C 
ATOM     14  C   LIG A   1      -7.332   0.728 126.404  0.00  0.00    +0.150 A 
ATOM     15  O   LIG A   1      -7.456   0.778 127.769  0.00  0.00    -0.455 OA
ATOM     16  C   LIG A   1      -6.773   1.757 128.465  0.00  0.00    +0.154 A 
ATOM     17  C   LIG A   1      -6.088   2.773 127.910  0.00  0.00    +0.074 A 
ATOM     18  C   LIG A   1      -5.380   3.683 128.831  0.00  0.00    +0.035 A 
ATOM     19  C   LIG A   1      -4.832   4.913 128.442  0.00  0.00    +0.061 A 
ATOM     20  C   LIG A   1      -4.072   5.686 129.333  0.00  0.00    +0.162 A 
ATOM     21  C   LIG A   1      -3.870   5.238 130.648  0.00  0.00    +0.165 A 
ATOM     22  C   LIG A   1      -4.446   4.037 131.061  0.00  0.00    +0.095 A 
ATOM     23  C   LIG A   1      -5.198   3.277 130.162  0.00  0.00    +0.133 A 
ATOM     24  O   LIG A   1      -5.692   2.097 130.654  0.00  0.00    -0.484 OA
ATOM     25  C   LIG A   1      -6.835   1.592 129.955  0.00  0.00    +0.303 C 
ENDROOT
BRANCH  20  26
ATOM     26  O   LIG A   1      -3.501   6.890 129.001  0.00  0.00    -0.491 OA
ATOM     27  C   LIG A   1      -2.354   6.834 128.162  0.00  0.00    +0.277 C 
ENDBRANCH  20  26
BRANCH  21  28
ATOM     28  O   LIG A   1      -3.124   6.043 131.473  0.00  0.00    -0.491 OA
ATOM     29  C   LIG A   1      -1.858   5.523 131.864  0.00  0.00    +0.277 C 
ENDBRANCH  21  28
TORSDOF 2
ENDMDL
MODEL 8
REMARK VINA RESULT:      -7.6      5.587     10.072
REMARK  Name = NuBBE_1457
REMARK  6 active torsions:
REMARK  status: ('A' for Active; 'I' for Inactive)
REMARK    1  A    between atoms: C_10  and  C_11
REMARK    2  A    between atoms: C_10  and  C_13
REMARK    3  A    between atoms: C_20  and  O_21
REMARK    4  A    between atoms: O_21  and  C_22
REMARK    5  A    between atoms: C_23  and  O_28
REMARK    6  A    between atoms: O_28  and  C_29
REMARK                            x       y       z     vdW  Elec       q    Type
REMARK                         _______ _______ _______ _____ _____    ______ ____
ROOT
ATOM      1  O   LIG A   1      -5.427   5.325 125.636  0.00  0.00    -0.286 OA
ATOM      2  C   LIG A   1      -5.326   4.625 126.636  0.00  0.00    +0.201 A 
ATOM      3  C   LIG A   1      -4.455   5.056 127.743  0.00  0.00    +0.065 A 
ATOM      4  C   LIG A   1      -3.822   6.302 127.696  0.00  0.00    +0.019 A 
ATOM      5  C   LIG A   1      -3.052   6.726 128.777  0.00  0.00    +0.047 A 
ATOM      6  C   LIG A   1      -2.924   5.912 129.902  0.00  0.00    +0.132 A 
ATOM      7  C   LIG A   1      -3.523   4.646 129.943  0.00  0.00    +0.059 A 
ATOM      8  C   LIG A   1      -3.321   3.815 131.127  0.00  0.00    +0.015 C 
ATOM      9  C   LIG A   1      -2.769   4.380 132.205  0.00  0.00    +0.020 C 
ATOM     10  C   LIG A   1      -2.336   5.829 132.231  0.00  0.00    +0.123 C 
ATOM     11  C   LIG A   1      -0.970   5.940 132.917  0.00  0.00    +0.060 C 
ATOM     12  O   LIG A   1      -2.169   6.420 130.925  0.00  0.00    -0.481 OA
ATOM     13  C   LIG A   1      -3.365   6.669 133.000  0.00  0.00    +0.060 C 
ATOM     14  C   LIG A   1      -4.294   4.221 128.849  0.00  0.00    +0.150 A 
ATOM     15  O   LIG A   1      -4.885   2.985 128.908  0.00  0.00    -0.455 OA
ATOM     16  C   LIG A   1      -5.798   2.634 127.932  0.00  0.00    +0.154 A 
ATOM     17  C   LIG A   1      -6.072   3.353 126.828  0.00  0.00    +0.074 A 
ATOM     18  C   LIG A   1      -7.124   2.829 125.935  0.00  0.00    +0.035 A 
ATOM     19  C   LIG A   1      -7.359   3.315 124.641  0.00  0.00    +0.061 A 
ATOM     20  C   LIG A   1      -8.444   2.857 123.879  0.00  0.00    +0.162 A 
ATOM     21  C   LIG A   1      -9.303   1.879 124.403  0.00  0.00    +0.165 A 
ATOM     22  C   LIG A   1      -9.055   1.357 125.672  0.00  0.00    +0.095 A 
ATOM     23  C   LIG A   1      -7.973   1.824 126.421  0.00  0.00    +0.133 A 
ATOM     24  O   LIG A   1      -7.835   1.272 127.669  0.00  0.00    -0.484 OA
ATOM     25  C   LIG A   1      -6.512   1.343 128.209  0.00  0.00    +0.303 C 
ENDROOT
BRANCH  20  26
ATOM     26  O   LIG A   1      -8.728   3.307 122.612  0.00  0.00    -0.491 OA
ATOM     27  C   LIG A   1      -7.631   3.382 121.710  0.00  0.00    +0.277 C 
ENDBRANCH  20  26
BRANCH  21  28
ATOM     28  O   LIG A   1     -10.342   1.469 123.604  0.00  0.00    -0.491 OA
ATOM     29  C   LIG A   1     -10.064   0.368 122.746  0.00  0.00    +0.277 C 
ENDBRANCH  21  28
TORSDOF 2
ENDMDL
MODEL 9
REMARK VINA RESULT:      -7.5      8.189     11.475
REMARK  Name = NuBBE_1457
REMARK  6 active torsions:
REMARK  status: ('A' for Active; 'I' for Inactive)
REMARK    1  A    between atoms: C_10  and  C_11
REMARK    2  A    between atoms: C_10  and  C_13
REMARK    3  A    between atoms: C_20  and  O_21
REMARK    4  A    between atoms: O_21  and  C_22
REMARK    5  A    between atoms: C_23  and  O_28
REMARK    6  A    between atoms: O_28  and  C_29
REMARK                            x       y       z     vdW  Elec       q    Type
REMARK                         _______ _______ _______ _____ _____    ______ ____
ROOT
ATOM      1  O   LIG A   1      -4.798   1.829 128.294  0.00  0.00    -0.286 OA
ATOM      2  C   LIG A   1      -5.082   0.647 128.138  0.00  0.00    +0.201 A 
ATOM      3  C   LIG A   1      -4.932  -0.293 129.262  0.00  0.00    +0.065 A 
ATOM      4  C   LIG A   1      -4.563   0.175 130.527  0.00  0.00    +0.019 A 
ATOM      5  C   LIG A   1      -4.487  -0.714 131.597  0.00  0.00    +0.047 A 
ATOM      6  C   LIG A   1      -4.789  -2.062 131.404  0.00  0.00    +0.132 A 
ATOM      7  C   LIG A   1      -5.123  -2.548 130.132  0.00  0.00    +0.059 A 
ATOM      8  C   LIG A   1      -5.386  -3.976 129.976  0.00  0.00    +0.015 C 
ATOM      9  C   LIG A   1      -5.519  -4.714 131.082  0.00  0.00    +0.020 C 
ATOM     10  C   LIG A   1      -5.391  -4.130 132.471  0.00  0.00    +0.123 C 
ATOM     11  C   LIG A   1      -4.561  -5.076 133.346  0.00  0.00    +0.060 C 
ATOM     12  O   LIG A   1      -4.712  -2.857 132.516  0.00  0.00    -0.481 OA
ATOM     13  C   LIG A   1      -6.781  -3.945 133.092  0.00  0.00    +0.060 C 
ATOM     14  C   LIG A   1      -5.193  -1.648 129.056  0.00  0.00    +0.150 A 
ATOM     15  O   LIG A   1      -5.533  -2.135 127.820  0.00  0.00    -0.455 OA
ATOM     16  C   LIG A   1      -5.793  -1.241 126.799  0.00  0.00    +0.154 A 
ATOM     17  C   LIG A   1      -5.614   0.090 126.865  0.00  0.00    +0.074 A 
ATOM     18  C   LIG A   1      -6.006   0.876 125.680  0.00  0.00    +0.035 A 
ATOM     19  C   LIG A   1      -5.663   2.222 125.490  0.00  0.00    +0.061 A 
ATOM     20  C   LIG A   1      -6.159   2.952 124.399  0.00  0.00    +0.162 A 
ATOM     21  C   LIG A   1      -6.995   2.326 123.462  0.00  0.00    +0.165 A 
ATOM     22  C   LIG A   1      -7.309   0.976 123.616  0.00  0.00    +0.095 A 
ATOM     23  C   LIG A   1      -6.811   0.263 124.708  0.00  0.00    +0.133 A 
ATOM     24  O   LIG A   1      -7.205  -1.048 124.788  0.00  0.00    -0.484 OA
ATOM     25  C   LIG A   1      -6.336  -1.886 125.557  0.00  0.00    +0.303 C 
ENDROOT
BRANCH  20  26
ATOM     26  O   LIG A   1      -5.866   4.275 124.172  0.00  0.00    -0.491 OA
ATOM     27  C   LIG A   1      -5.959   5.142 125.296  0.00  0.00    +0.277 C 
ENDBRANCH  20  26
BRANCH  21  28
ATOM     28  O   LIG A   1      -7.440   3.093 122.413  0.00  0.00    -0.491 OA
ATOM     29  C   LIG A   1      -8.803   2.912 122.050  0.00  0.00    +0.277 C 
ENDBRANCH  21  28
TORSDOF 2
ENDMDL
