MODEL 1
REMARK VINA RESULT:      -7.3      0.000      0.000
REMARK  Name = NuBBE_2318
REMARK  11 active torsions:
REMARK  status: ('A' for Active; 'I' for Inactive)
REMARK    1  A    between atoms: C_3  and  O_29
REMARK    2  A    between atoms: C_4  and  C_26
REMARK    3  A    between atoms: C_5  and  C_22
REMARK    4  A    between atoms: C_7  and  O_9
REMARK    5  A    between atoms: O_9  and  C_10
REMARK    6  A    between atoms: C_10  and  C_11
REMARK    7  A    between atoms: C_13  and  O_19
REMARK    8  A    between atoms: C_14  and  O_17
REMARK    9  A    between atoms: O_17  and  C_18
REMARK   10  A    between atoms: O_19  and  C_20
REMARK   11  A    between atoms: C_26  and  C_27
REMARK                            x       y       z     vdW  Elec       q    Type
REMARK                         _______ _______ _______ _____ _____    ______ ____
ROOT
ATOM      1  C   LIG A   1      -6.556  -1.896 127.170  0.00  0.00    +0.215 C 
ATOM      2  O   LIG A   1      -6.596  -2.278 128.335  0.00  0.00    -0.287 OA
ATOM      3  C   LIG A   1      -7.645  -2.294 126.141  0.00  0.00    +0.241 C 
ATOM      4  C   LIG A   1      -7.105  -2.410 124.706  0.00  0.00    +0.046 C 
ATOM      5  C   LIG A   1      -8.455  -2.404 123.943  0.00  0.00    +0.054 C 
ATOM      6  C   LIG A   1      -9.302  -1.420 124.778  0.00  0.00    +0.258 C 
ATOM      7  O   LIG A   1      -8.685  -1.322 126.070  0.00  0.00    -0.312 OA
ATOM      8  C   LIG A   1      -8.393  -2.122 122.445  0.00  0.00    +0.013 C 
ATOM      9  C   LIG A   1      -6.261  -1.153 124.349  0.00  0.00    +0.040 C 
ATOM     10  C   LIG A   1      -5.310  -0.714 125.424  0.00  0.00    -0.022 C 
ATOM     11  C   LIG A   1      -5.429  -1.044 126.714  0.00  0.00    +0.048 C 
ENDROOT
BRANCH   3  12
ATOM     12  O   LIG A   1      -8.265  -3.502 126.576  0.00  0.00    -0.358 OA
ATOM     13  H   LIG A   1      -7.701  -4.207 126.197  0.00  0.00    +0.213 HD
ENDBRANCH   3  12
BRANCH   6  14
ATOM     14  O   LIG A   1      -9.367  -0.142 124.158  0.00  0.00    -0.346 OA
BRANCH  14  15
ATOM     15  C   LIG A   1      -9.080   0.906 125.080  0.00  0.00    +0.198 C 
BRANCH  15  16
ATOM     16  C   LIG A   1      -8.079   1.851 124.467  0.00  0.00    -0.018 A 
ATOM     17  C   LIG A   1      -7.180   2.556 125.280  0.00  0.00    +0.055 A 
ATOM     18  C   LIG A   1      -6.290   3.495 124.740  0.00  0.00    +0.162 A 
ATOM     19  C   LIG A   1      -6.276   3.719 123.354  0.00  0.00    +0.162 A 
ATOM     20  C   LIG A   1      -7.153   2.992 122.537  0.00  0.00    +0.050 A 
ATOM     21  C   LIG A   1      -8.053   2.076 123.088  0.00  0.00    +0.010 A 
BRANCH  19  22
ATOM     22  O   LIG A   1      -5.347   4.580 122.834  0.00  0.00    -0.491 OA
ATOM     23  C   LIG A   1      -5.058   4.425 121.449  0.00  0.00    +0.277 C 
ENDBRANCH  19  22
BRANCH  18  24
ATOM     24  O   LIG A   1      -5.488   4.088 125.682  0.00  0.00    -0.491 OA
ATOM     25  C   LIG A   1      -4.480   3.267 126.260  0.00  0.00    +0.277 C 
ENDBRANCH  18  24
ENDBRANCH  15  16
ENDBRANCH  14  15
ENDBRANCH   6  14
BRANCH   4  26
ATOM     26  C   LIG A   1      -6.307  -3.720 124.430  0.00  0.00    +0.040 C 
BRANCH  26  27
ATOM     27  C   LIG A   1      -5.053  -3.581 123.604  0.00  0.00    -0.034 C 
ATOM     28  C   LIG A   1      -4.052  -4.470 123.583  0.00  0.00    +0.004 C 
ENDBRANCH  26  27
ENDBRANCH   4  26
TORSDOF 8
ENDMDL
MODEL 2
REMARK VINA RESULT:      -6.9      3.520      6.532
REMARK  Name = NuBBE_2318
REMARK  11 active torsions:
REMARK  status: ('A' for Active; 'I' for Inactive)
REMARK    1  A    between atoms: C_3  and  O_29
REMARK    2  A    between atoms: C_4  and  C_26
REMARK    3  A    between atoms: C_5  and  C_22
REMARK    4  A    between atoms: C_7  and  O_9
REMARK    5  A    between atoms: O_9  and  C_10
REMARK    6  A    between atoms: C_10  and  C_11
REMARK    7  A    between atoms: C_13  and  O_19
REMARK    8  A    between atoms: C_14  and  O_17
REMARK    9  A    between atoms: O_17  and  C_18
REMARK   10  A    between atoms: O_19  and  C_20
REMARK   11  A    between atoms: C_26  and  C_27
REMARK                            x       y       z     vdW  Elec       q    Type
REMARK                         _______ _______ _______ _____ _____    ______ ____
ROOT
ATOM      1  C   LIG A   1      -8.910  -1.616 123.241  0.00  0.00    +0.215 C 
ATOM      2  O   LIG A   1      -9.406  -1.047 122.274  0.00  0.00    -0.287 OA
ATOM      3  C   LIG A   1      -7.797  -0.957 124.096  0.00  0.00    +0.241 C 
ATOM      4  C   LIG A   1      -6.816  -1.976 124.699  0.00  0.00    +0.046 C 
ATOM      5  C   LIG A   1      -6.145  -1.063 125.757  0.00  0.00    +0.054 C 
ATOM      6  C   LIG A   1      -7.321  -0.182 126.226  0.00  0.00    +0.258 C 
ATOM      7  O   LIG A   1      -8.335  -0.252 125.211  0.00  0.00    -0.312 OA
ATOM      8  C   LIG A   1      -5.356  -1.760 126.860  0.00  0.00    +0.013 C 
ATOM      9  C   LIG A   1      -7.601  -3.133 125.382  0.00  0.00    +0.040 C 
ATOM     10  C   LIG A   1      -8.759  -3.658 124.584  0.00  0.00    -0.022 C 
ATOM     11  C   LIG A   1      -9.366  -2.981 123.605  0.00  0.00    +0.048 C 
ENDROOT
BRANCH   3  12
ATOM     12  O   LIG A   1      -7.128   0.019 123.299  0.00  0.00    -0.358 OA
ATOM     13  H   LIG A   1      -6.397   0.330 123.871  0.00  0.00    +0.213 HD
ENDBRANCH   3  12
BRANCH   6  14
ATOM     14  O   LIG A   1      -7.835  -0.628 127.475  0.00  0.00    -0.346 OA
BRANCH  14  15
ATOM     15  C   LIG A   1      -7.911   0.431 128.423  0.00  0.00    +0.198 C 
BRANCH  15  16
ATOM     16  C   LIG A   1      -7.856  -0.140 129.817  0.00  0.00    -0.018 A 
ATOM     17  C   LIG A   1      -7.943   0.705 130.932  0.00  0.00    +0.055 A 
ATOM     18  C   LIG A   1      -7.821   0.206 132.237  0.00  0.00    +0.162 A 
ATOM     19  C   LIG A   1      -7.633  -1.172 132.437  0.00  0.00    +0.162 A 
ATOM     20  C   LIG A   1      -7.577  -2.021 131.323  0.00  0.00    +0.050 A 
ATOM     21  C   LIG A   1      -7.676  -1.510 130.026  0.00  0.00    +0.010 A 
BRANCH  19  22
ATOM     22  O   LIG A   1      -7.596  -1.653 133.718  0.00  0.00    -0.491 OA
ATOM     23  C   LIG A   1      -8.136  -2.957 133.911  0.00  0.00    +0.277 C 
ENDBRANCH  19  22
BRANCH  18  24
ATOM     24  O   LIG A   1      -7.931   1.174 133.203  0.00  0.00    -0.491 OA
ATOM     25  C   LIG A   1      -6.831   2.067 133.330  0.00  0.00    +0.277 C 
ENDBRANCH  18  24
ENDBRANCH  15  16
ENDBRANCH  14  15
ENDBRANCH   6  14
BRANCH   4  26
ATOM     26  C   LIG A   1      -5.769  -2.529 123.685  0.00  0.00    +0.040 C 
BRANCH  26  27
ATOM     27  C   LIG A   1      -5.270  -3.930 123.933  0.00  0.00    -0.034 C 
ATOM     28  C   LIG A   1      -4.067  -4.387 123.562  0.00  0.00    +0.004 C 
ENDBRANCH  26  27
ENDBRANCH   4  26
TORSDOF 8
ENDMDL
MODEL 3
REMARK VINA RESULT:      -6.8      1.871      3.053
REMARK  Name = NuBBE_2318
REMARK  11 active torsions:
REMARK  status: ('A' for Active; 'I' for Inactive)
REMARK    1  A    between atoms: C_3  and  O_29
REMARK    2  A    between atoms: C_4  and  C_26
REMARK    3  A    between atoms: C_5  and  C_22
REMARK    4  A    between atoms: C_7  and  O_9
REMARK    5  A    between atoms: O_9  and  C_10
REMARK    6  A    between atoms: C_10  and  C_11
REMARK    7  A    between atoms: C_13  and  O_19
REMARK    8  A    between atoms: C_14  and  O_17
REMARK    9  A    between atoms: O_17  and  C_18
REMARK   10  A    between atoms: O_19  and  C_20
REMARK   11  A    between atoms: C_26  and  C_27
REMARK                            x       y       z     vdW  Elec       q    Type
REMARK                         _______ _______ _______ _____ _____    ______ ____
ROOT
ATOM      1  C   LIG A   1      -8.726  -2.985 126.473  0.00  0.00    +0.215 C 
ATOM      2  O   LIG A   1      -9.633  -3.635 126.983  0.00  0.00    -0.287 OA
ATOM      3  C   LIG A   1      -8.650  -2.747 124.944  0.00  0.00    +0.241 C 
ATOM      4  C   LIG A   1      -7.208  -2.630 124.423  0.00  0.00    +0.046 C 
ATOM      5  C   LIG A   1      -7.507  -2.016 123.031  0.00  0.00    +0.054 C 
ATOM      6  C   LIG A   1      -8.702  -1.087 123.329  0.00  0.00    +0.258 C 
ATOM      7  O   LIG A   1      -9.283  -1.528 124.566  0.00  0.00    -0.312 OA
ATOM      8  C   LIG A   1      -6.332  -1.375 122.299  0.00  0.00    +0.013 C 
ATOM      9  C   LIG A   1      -6.400  -1.635 125.306  0.00  0.00    +0.040 C 
ATOM     10  C   LIG A   1      -6.603  -1.805 126.783  0.00  0.00    -0.022 C 
ATOM     11  C   LIG A   1      -7.656  -2.419 127.332  0.00  0.00    +0.048 C 
ENDROOT
BRANCH   3  12
ATOM     12  O   LIG A   1      -9.371  -3.786 124.284  0.00  0.00    -0.358 OA
ATOM     13  H   LIG A   1      -8.720  -4.512 124.203  0.00  0.00    +0.213 HD
ENDBRANCH   3  12
BRANCH   6  14
ATOM     14  O   LIG A   1      -8.287   0.270 123.430  0.00  0.00    -0.346 OA
BRANCH  14  15
ATOM     15  C   LIG A   1      -9.095   1.002 124.347  0.00  0.00    +0.198 C 
BRANCH  15  16
ATOM     16  C   LIG A   1      -8.266   1.396 125.541  0.00  0.00    -0.018 A 
ATOM     17  C   LIG A   1      -6.972   1.908 125.368  0.00  0.00    +0.055 A 
ATOM     18  C   LIG A   1      -6.154   2.213 126.465  0.00  0.00    +0.162 A 
ATOM     19  C   LIG A   1      -6.646   2.027 127.768  0.00  0.00    +0.162 A 
ATOM     20  C   LIG A   1      -7.950   1.545 127.942  0.00  0.00    +0.050 A 
ATOM     21  C   LIG A   1      -8.748   1.222 126.841  0.00  0.00    +0.010 A 
BRANCH  19  22
ATOM     22  O   LIG A   1      -5.865   2.405 128.827  0.00  0.00    -0.491 OA
ATOM     23  C   LIG A   1      -6.514   3.164 129.842  0.00  0.00    +0.277 C 
ENDBRANCH  19  22
BRANCH  18  24
ATOM     24  O   LIG A   1      -4.923   2.702 126.107  0.00  0.00    -0.491 OA
ATOM     25  C   LIG A   1      -4.874   4.071 125.725  0.00  0.00    +0.277 C 
ENDBRANCH  18  24
ENDBRANCH  15  16
ENDBRANCH  14  15
ENDBRANCH   6  14
BRANCH   4  26
ATOM     26  C   LIG A   1      -6.466  -3.994 124.290  0.00  0.00    +0.040 C 
BRANCH  26  27
ATOM     27  C   LIG A   1      -4.961  -3.934 124.206  0.00  0.00    -0.034 C 
ATOM     28  C   LIG A   1      -4.208  -4.742 123.449  0.00  0.00    +0.004 C 
ENDBRANCH  26  27
ENDBRANCH   4  26
TORSDOF 8
ENDMDL
MODEL 4
REMARK VINA RESULT:      -6.7      2.091      3.125
REMARK  Name = NuBBE_2318
REMARK  11 active torsions:
REMARK  status: ('A' for Active; 'I' for Inactive)
REMARK    1  A    between atoms: C_3  and  O_29
REMARK    2  A    between atoms: C_4  and  C_26
REMARK    3  A    between atoms: C_5  and  C_22
REMARK    4  A    between atoms: C_7  and  O_9
REMARK    5  A    between atoms: O_9  and  C_10
REMARK    6  A    between atoms: C_10  and  C_11
REMARK    7  A    between atoms: C_13  and  O_19
REMARK    8  A    between atoms: C_14  and  O_17
REMARK    9  A    between atoms: O_17  and  C_18
REMARK   10  A    between atoms: O_19  and  C_20
REMARK   11  A    between atoms: C_26  and  C_27
REMARK                            x       y       z     vdW  Elec       q    Type
REMARK                         _______ _______ _______ _____ _____    ______ ____
ROOT
ATOM      1  C   LIG A   1      -8.593  -2.981 126.571  0.00  0.00    +0.215 C 
ATOM      2  O   LIG A   1      -9.462  -3.646 127.124  0.00  0.00    -0.287 OA
ATOM      3  C   LIG A   1      -8.573  -2.776 125.035  0.00  0.00    +0.241 C 
ATOM      4  C   LIG A   1      -7.153  -2.628 124.464  0.00  0.00    +0.046 C 
ATOM      5  C   LIG A   1      -7.516  -2.055 123.070  0.00  0.00    +0.054 C 
ATOM      6  C   LIG A   1      -8.728  -1.154 123.388  0.00  0.00    +0.258 C 
ATOM      7  O   LIG A   1      -9.255  -1.584 124.652  0.00  0.00    -0.312 OA
ATOM      8  C   LIG A   1      -6.386  -1.396 122.286  0.00  0.00    +0.013 C 
ATOM      9  C   LIG A   1      -6.347  -1.590 125.297  0.00  0.00    +0.040 C 
ATOM     10  C   LIG A   1      -6.496  -1.733 126.784  0.00  0.00    -0.022 C 
ATOM     11  C   LIG A   1      -7.512  -2.365 127.381  0.00  0.00    +0.048 C 
ENDROOT
BRANCH   3  12
ATOM     12  O   LIG A   1      -9.284  -3.850 124.422  0.00  0.00    -0.358 OA
ATOM     13  H   LIG A   1     -10.225  -3.601 124.529  0.00  0.00    +0.213 HD
ENDBRANCH   3  12
BRANCH   6  14
ATOM     14  O   LIG A   1      -8.351   0.216 123.445  0.00  0.00    -0.346 OA
BRANCH  14  15
ATOM     15  C   LIG A   1      -9.120   0.934 124.405  0.00  0.00    +0.198 C 
BRANCH  15  16
ATOM     16  C   LIG A   1      -8.212   1.436 125.499  0.00  0.00    -0.018 A 
ATOM     17  C   LIG A   1      -8.597   1.330 126.843  0.00  0.00    +0.055 A 
ATOM     18  C   LIG A   1      -7.804   1.855 127.873  0.00  0.00    +0.162 A 
ATOM     19  C   LIG A   1      -6.585   2.477 127.559  0.00  0.00    +0.162 A 
ATOM     20  C   LIG A   1      -6.185   2.556 126.218  0.00  0.00    +0.050 A 
ATOM     21  C   LIG A   1      -6.994   2.051 125.198  0.00  0.00    +0.010 A 
BRANCH  19  22
ATOM     22  O   LIG A   1      -5.785   2.913 128.581  0.00  0.00    -0.491 OA
ATOM     23  C   LIG A   1      -5.898   4.291 128.919  0.00  0.00    +0.277 C 
ENDBRANCH  19  22
BRANCH  18  24
ATOM     24  O   LIG A   1      -8.337   1.661 129.122  0.00  0.00    -0.491 OA
ATOM     25  C   LIG A   1      -7.972   0.456 129.784  0.00  0.00    +0.277 C 
ENDBRANCH  18  24
ENDBRANCH  15  16
ENDBRANCH  14  15
ENDBRANCH   6  14
BRANCH   4  26
ATOM     26  C   LIG A   1      -6.375  -3.972 124.336  0.00  0.00    +0.040 C 
BRANCH  26  27
ATOM     27  C   LIG A   1      -4.881  -3.869 124.160  0.00  0.00    -0.034 C 
ATOM     28  C   LIG A   1      -4.140  -4.710 123.427  0.00  0.00    +0.004 C 
ENDBRANCH  26  27
ENDBRANCH   4  26
TORSDOF 8
ENDMDL
MODEL 5
REMARK VINA RESULT:      -6.7      3.153      6.576
REMARK  Name = NuBBE_2318
REMARK  11 active torsions:
REMARK  status: ('A' for Active; 'I' for Inactive)
REMARK    1  A    between atoms: C_3  and  O_29
REMARK    2  A    between atoms: C_4  and  C_26
REMARK    3  A    between atoms: C_5  and  C_22
REMARK    4  A    between atoms: C_7  and  O_9
REMARK    5  A    between atoms: O_9  and  C_10
REMARK    6  A    between atoms: C_10  and  C_11
REMARK    7  A    between atoms: C_13  and  O_19
REMARK    8  A    between atoms: C_14  and  O_17
REMARK    9  A    between atoms: O_17  and  C_18
REMARK   10  A    between atoms: O_19  and  C_20
REMARK   11  A    between atoms: C_26  and  C_27
REMARK                            x       y       z     vdW  Elec       q    Type
REMARK                         _______ _______ _______ _____ _____    ______ ____
ROOT
ATOM      1  C   LIG A   1      -8.831  -1.718 123.196  0.00  0.00    +0.215 C 
ATOM      2  O   LIG A   1      -9.321  -1.202 122.198  0.00  0.00    -0.287 OA
ATOM      3  C   LIG A   1      -7.763  -0.991 124.053  0.00  0.00    +0.241 C 
ATOM      4  C   LIG A   1      -6.762  -1.953 124.715  0.00  0.00    +0.046 C 
ATOM      5  C   LIG A   1      -6.150  -0.981 125.755  0.00  0.00    +0.054 C 
ATOM      6  C   LIG A   1      -7.368  -0.126 126.165  0.00  0.00    +0.258 C 
ATOM      7  O   LIG A   1      -8.352  -0.267 125.130  0.00  0.00    -0.312 OA
ATOM      8  C   LIG A   1      -5.365  -1.611 126.901  0.00  0.00    +0.013 C 
ATOM      9  C   LIG A   1      -7.524  -3.113 125.420  0.00  0.00    +0.040 C 
ATOM     10  C   LIG A   1      -8.642  -3.706 124.614  0.00  0.00    -0.022 C 
ATOM     11  C   LIG A   1      -9.248  -3.085 123.597  0.00  0.00    +0.048 C 
ENDROOT
BRANCH   3  12
ATOM     12  O   LIG A   1      -7.108  -0.020 123.238  0.00  0.00    -0.358 OA
ATOM     13  H   LIG A   1      -6.302   0.209 123.744  0.00  0.00    +0.213 HD
ENDBRANCH   3  12
BRANCH   6  14
ATOM     14  O   LIG A   1      -7.897  -0.547 127.416  0.00  0.00    -0.346 OA
BRANCH  14  15
ATOM     15  C   LIG A   1      -7.922   0.517 128.363  0.00  0.00    +0.198 C 
BRANCH  15  16
ATOM     16  C   LIG A   1      -7.850  -0.052 129.757  0.00  0.00    -0.018 A 
ATOM     17  C   LIG A   1      -7.542  -1.405 129.955  0.00  0.00    +0.055 A 
ATOM     18  C   LIG A   1      -7.541  -1.974 131.236  0.00  0.00    +0.162 A 
ATOM     19  C   LIG A   1      -7.830  -1.169 132.351  0.00  0.00    +0.162 A 
ATOM     20  C   LIG A   1      -8.108   0.190 132.157  0.00  0.00    +0.050 A 
ATOM     21  C   LIG A   1      -8.129   0.741 130.873  0.00  0.00    +0.010 A 
BRANCH  19  22
ATOM     22  O   LIG A   1      -7.747  -1.721 133.602  0.00  0.00    -0.491 OA
ATOM     23  C   LIG A   1      -6.464  -1.681 134.218  0.00  0.00    +0.277 C 
ENDBRANCH  19  22
BRANCH  18  24
ATOM     24  O   LIG A   1      -7.218  -3.307 131.240  0.00  0.00    -0.491 OA
ATOM     25  C   LIG A   1      -5.947  -3.650 130.703  0.00  0.00    +0.277 C 
ENDBRANCH  18  24
ENDBRANCH  15  16
ENDBRANCH  14  15
ENDBRANCH   6  14
BRANCH   4  26
ATOM     26  C   LIG A   1      -5.672  -2.503 123.747  0.00  0.00    +0.040 C 
BRANCH  26  27
ATOM     27  C   LIG A   1      -4.915  -3.722 124.212  0.00  0.00    -0.034 C 
ATOM     28  C   LIG A   1      -4.397  -4.653 123.400  0.00  0.00    +0.004 C 
ENDBRANCH  26  27
ENDBRANCH   4  26
TORSDOF 8
ENDMDL
MODEL 6
REMARK VINA RESULT:      -6.7      1.593      2.121
REMARK  Name = NuBBE_2318
REMARK  11 active torsions:
REMARK  status: ('A' for Active; 'I' for Inactive)
REMARK    1  A    between atoms: C_3  and  O_29
REMARK    2  A    between atoms: C_4  and  C_26
REMARK    3  A    between atoms: C_5  and  C_22
REMARK    4  A    between atoms: C_7  and  O_9
REMARK    5  A    between atoms: O_9  and  C_10
REMARK    6  A    between atoms: C_10  and  C_11
REMARK    7  A    between atoms: C_13  and  O_19
REMARK    8  A    between atoms: C_14  and  O_17
REMARK    9  A    between atoms: O_17  and  C_18
REMARK   10  A    between atoms: O_19  and  C_20
REMARK   11  A    between atoms: C_26  and  C_27
REMARK                            x       y       z     vdW  Elec       q    Type
REMARK                         _______ _______ _______ _____ _____    ______ ____
ROOT
ATOM      1  C   LIG A   1      -7.781  -2.717 127.501  0.00  0.00    +0.215 C 
ATOM      2  O   LIG A   1      -8.543  -3.400 128.177  0.00  0.00    -0.287 OA
ATOM      3  C   LIG A   1      -8.215  -2.110 126.142  0.00  0.00    +0.241 C 
ATOM      4  C   LIG A   1      -7.055  -1.981 125.141  0.00  0.00    +0.046 C 
ATOM      5  C   LIG A   1      -7.722  -1.016 124.127  0.00  0.00    +0.054 C 
ATOM      6  C   LIG A   1      -8.558  -0.099 125.044  0.00  0.00    +0.258 C 
ATOM      7  O   LIG A   1      -8.727  -0.789 126.292  0.00  0.00    -0.312 OA
ATOM      8  C   LIG A   1      -6.795  -0.307 123.146  0.00  0.00    +0.013 C 
ATOM      9  C   LIG A   1      -5.831  -1.306 125.826  0.00  0.00    +0.040 C 
ATOM     10  C   LIG A   1      -5.521  -1.825 127.199  0.00  0.00    -0.022 C 
ATOM     11  C   LIG A   1      -6.397  -2.471 127.976  0.00  0.00    +0.048 C 
ENDROOT
BRANCH   3  12
ATOM     12  O   LIG A   1      -9.288  -2.889 125.616  0.00  0.00    -0.358 OA
ATOM     13  H   LIG A   1      -9.832  -3.103 126.401  0.00  0.00    +0.213 HD
ENDBRANCH   3  12
BRANCH   6  14
ATOM     14  O   LIG A   1      -7.913   1.152 125.250  0.00  0.00    -0.346 OA
BRANCH  14  15
ATOM     15  C   LIG A   1      -8.740   2.242 124.856  0.00  0.00    +0.198 C 
BRANCH  15  16
ATOM     16  C   LIG A   1      -8.317   2.724 123.492  0.00  0.00    -0.018 A 
ATOM     17  C   LIG A   1      -7.078   3.356 123.316  0.00  0.00    +0.055 A 
ATOM     18  C   LIG A   1      -6.695   3.877 122.073  0.00  0.00    +0.162 A 
ATOM     19  C   LIG A   1      -7.555   3.743 120.970  0.00  0.00    +0.162 A 
ATOM     20  C   LIG A   1      -8.780   3.084 121.138  0.00  0.00    +0.050 A 
ATOM     21  C   LIG A   1      -9.163   2.589 122.387  0.00  0.00    +0.010 A 
BRANCH  19  22
ATOM     22  O   LIG A   1      -7.132   4.187 119.746  0.00  0.00    -0.491 OA
ATOM     23  C   LIG A   1      -8.141   4.335 118.753  0.00  0.00    +0.277 C 
ENDBRANCH  19  22
BRANCH  18  24
ATOM     24  O   LIG A   1      -5.453   4.460 122.087  0.00  0.00    -0.491 OA
ATOM     25  C   LIG A   1      -4.807   4.540 123.352  0.00  0.00    +0.277 C 
ENDBRANCH  18  24
ENDBRANCH  15  16
ENDBRANCH  14  15
ENDBRANCH   6  14
BRANCH   4  26
ATOM     26  C   LIG A   1      -6.649  -3.322 124.459  0.00  0.00    +0.040 C 
BRANCH  26  27
ATOM     27  C   LIG A   1      -5.337  -3.328 123.717  0.00  0.00    -0.034 C 
ATOM     28  C   LIG A   1      -4.414  -4.294 123.807  0.00  0.00    +0.004 C 
ENDBRANCH  26  27
ENDBRANCH   4  26
TORSDOF 8
ENDMDL
MODEL 7
REMARK VINA RESULT:      -6.5      7.036      9.077
REMARK  Name = NuBBE_2318
REMARK  11 active torsions:
REMARK  status: ('A' for Active; 'I' for Inactive)
REMARK    1  A    between atoms: C_3  and  O_29
REMARK    2  A    between atoms: C_4  and  C_26
REMARK    3  A    between atoms: C_5  and  C_22
REMARK    4  A    between atoms: C_7  and  O_9
REMARK    5  A    between atoms: O_9  and  C_10
REMARK    6  A    between atoms: C_10  and  C_11
REMARK    7  A    between atoms: C_13  and  O_19
REMARK    8  A    between atoms: C_14  and  O_17
REMARK    9  A    between atoms: O_17  and  C_18
REMARK   10  A    between atoms: O_19  and  C_20
REMARK   11  A    between atoms: C_26  and  C_27
REMARK                            x       y       z     vdW  Elec       q    Type
REMARK                         _______ _______ _______ _____ _____    ______ ____
ROOT
ATOM      1  C   LIG A   1      -7.247   4.280 133.070  0.00  0.00    +0.215 C 
ATOM      2  O   LIG A   1      -7.089   3.691 134.134  0.00  0.00    -0.287 OA
ATOM      3  C   LIG A   1      -7.557   3.522 131.753  0.00  0.00    +0.241 C 
ATOM      4  C   LIG A   1      -6.990   4.221 130.507  0.00  0.00    +0.046 C 
ATOM      5  C   LIG A   1      -7.798   3.464 129.422  0.00  0.00    +0.054 C 
ATOM      6  C   LIG A   1      -9.166   3.265 130.107  0.00  0.00    +0.258 C 
ATOM      7  O   LIG A   1      -8.959   3.420 131.519  0.00  0.00    -0.312 OA
ATOM      8  C   LIG A   1      -7.836   4.094 128.033  0.00  0.00    +0.013 C 
ATOM      9  C   LIG A   1      -7.365   5.732 130.525  0.00  0.00    +0.040 C 
ATOM     10  C   LIG A   1      -7.181   6.404 131.854  0.00  0.00    -0.022 C 
ATOM     11  C   LIG A   1      -7.124   5.758 133.023  0.00  0.00    +0.048 C 
ENDROOT
BRANCH   3  12
ATOM     12  O   LIG A   1      -7.081   2.183 131.875  0.00  0.00    -0.358 OA
ATOM     13  H   LIG A   1      -6.497   2.068 131.098  0.00  0.00    +0.213 HD
ENDBRANCH   3  12
BRANCH   6  14
ATOM     14  O   LIG A   1     -10.121   4.207 129.637  0.00  0.00    -0.346 OA
BRANCH  14  15
ATOM     15  C   LIG A   1     -10.880   4.766 130.704  0.00  0.00    +0.198 C 
BRANCH  15  16
ATOM     16  C   LIG A   1     -11.416   6.111 130.287  0.00  0.00    -0.018 A 
ATOM     17  C   LIG A   1     -10.925   6.744 129.136  0.00  0.00    +0.055 A 
ATOM     18  C   LIG A   1     -11.354   8.026 128.768  0.00  0.00    +0.162 A 
ATOM     19  C   LIG A   1     -12.317   8.685 129.551  0.00  0.00    +0.162 A 
ATOM     20  C   LIG A   1     -12.831   8.041 130.683  0.00  0.00    +0.050 A 
ATOM     21  C   LIG A   1     -12.379   6.772 131.054  0.00  0.00    +0.010 A 
BRANCH  19  22
ATOM     22  O   LIG A   1     -12.784   9.903 129.134  0.00  0.00    -0.491 OA
ATOM     23  C   LIG A   1     -13.430  10.696 130.124  0.00  0.00    +0.277 C 
ENDBRANCH  19  22
BRANCH  18  24
ATOM     24  O   LIG A   1     -10.767   8.488 127.617  0.00  0.00    -0.491 OA
ATOM     25  C   LIG A   1     -10.978   7.710 126.445  0.00  0.00    +0.277 C 
ENDBRANCH  18  24
ENDBRANCH  15  16
ENDBRANCH  14  15
ENDBRANCH   6  14
BRANCH   4  26
ATOM     26  C   LIG A   1      -5.457   4.025 130.308  0.00  0.00    +0.040 C 
BRANCH  26  27
ATOM     27  C   LIG A   1      -4.719   5.152 129.631  0.00  0.00    -0.034 C 
ATOM     28  C   LIG A   1      -3.457   5.509 129.903  0.00  0.00    +0.004 C 
ENDBRANCH  26  27
ENDBRANCH   4  26
TORSDOF 8
ENDMDL
MODEL 8
REMARK VINA RESULT:      -6.5      3.136      6.866
REMARK  Name = NuBBE_2318
REMARK  11 active torsions:
REMARK  status: ('A' for Active; 'I' for Inactive)
REMARK    1  A    between atoms: C_3  and  O_29
REMARK    2  A    between atoms: C_4  and  C_26
REMARK    3  A    between atoms: C_5  and  C_22
REMARK    4  A    between atoms: C_7  and  O_9
REMARK    5  A    between atoms: O_9  and  C_10
REMARK    6  A    between atoms: C_10  and  C_11
REMARK    7  A    between atoms: C_13  and  O_19
REMARK    8  A    between atoms: C_14  and  O_17
REMARK    9  A    between atoms: O_17  and  C_18
REMARK   10  A    between atoms: O_19  and  C_20
REMARK   11  A    between atoms: C_26  and  C_27
REMARK                            x       y       z     vdW  Elec       q    Type
REMARK                         _______ _______ _______ _____ _____    ______ ____
ROOT
ATOM      1  C   LIG A   1      -9.142  -1.222 123.947  0.00  0.00    +0.215 C 
ATOM      2  O   LIG A   1      -9.781  -0.297 123.457  0.00  0.00    -0.287 OA
ATOM      3  C   LIG A   1      -8.081  -0.988 125.053  0.00  0.00    +0.241 C 
ATOM      4  C   LIG A   1      -6.921  -1.997 125.000  0.00  0.00    +0.046 C 
ATOM      5  C   LIG A   1      -6.321  -1.742 126.406  0.00  0.00    +0.054 C 
ATOM      6  C   LIG A   1      -7.578  -1.478 127.261  0.00  0.00    +0.258 C 
ATOM      7  O   LIG A   1      -8.638  -1.128 126.358  0.00  0.00    -0.312 OA
ATOM      8  C   LIG A   1      -5.363  -2.801 126.943  0.00  0.00    +0.013 C 
ATOM      9  C   LIG A   1      -7.479  -3.446 124.890  0.00  0.00    +0.040 C 
ATOM     10  C   LIG A   1      -8.600  -3.610 123.905  0.00  0.00    -0.022 C 
ATOM     11  C   LIG A   1      -9.366  -2.607 123.464  0.00  0.00    +0.048 C 
ENDROOT
BRANCH   3  12
ATOM     12  O   LIG A   1      -7.619   0.359 124.965  0.00  0.00    -0.358 OA
ATOM     13  H   LIG A   1      -7.946   0.775 125.788  0.00  0.00    +0.213 HD
ENDBRANCH   3  12
BRANCH   6  14
ATOM     14  O   LIG A   1      -7.933  -2.623 128.025  0.00  0.00    -0.346 OA
BRANCH  14  15
ATOM     15  C   LIG A   1      -8.106  -2.306 129.402  0.00  0.00    +0.198 C 
BRANCH  15  16
ATOM     16  C   LIG A   1      -6.885  -2.737 130.173  0.00  0.00    -0.018 A 
ATOM     17  C   LIG A   1      -6.190  -1.818 130.971  0.00  0.00    +0.055 A 
ATOM     18  C   LIG A   1      -5.010  -2.176 131.638  0.00  0.00    +0.162 A 
ATOM     19  C   LIG A   1      -4.524  -3.490 131.529  0.00  0.00    +0.162 A 
ATOM     20  C   LIG A   1      -5.235  -4.417 130.756  0.00  0.00    +0.050 A 
ATOM     21  C   LIG A   1      -6.397  -4.043 130.076  0.00  0.00    +0.010 A 
BRANCH  19  22
ATOM     22  O   LIG A   1      -3.416  -3.845 132.250  0.00  0.00    -0.491 OA
ATOM     23  C   LIG A   1      -3.629  -4.779 133.303  0.00  0.00    +0.277 C 
ENDBRANCH  19  22
BRANCH  18  24
ATOM     24  O   LIG A   1      -4.466  -1.152 132.371  0.00  0.00    -0.491 OA
ATOM     25  C   LIG A   1      -3.994  -0.030 131.634  0.00  0.00    +0.277 C 
ENDBRANCH  18  24
ENDBRANCH  15  16
ENDBRANCH  14  15
ENDBRANCH   6  14
BRANCH   4  26
ATOM     26  C   LIG A   1      -5.877  -1.710 123.880  0.00  0.00    +0.040 C 
BRANCH  26  27
ATOM     27  C   LIG A   1      -5.343  -2.908 123.137  0.00  0.00    -0.034 C 
ATOM     28  C   LIG A   1      -4.241  -3.588 123.481  0.00  0.00    +0.004 C 
ENDBRANCH  26  27
ENDBRANCH   4  26
TORSDOF 8
ENDMDL
MODEL 9
REMARK VINA RESULT:      -6.4      7.942     10.440
REMARK  Name = NuBBE_2318
REMARK  11 active torsions:
REMARK  status: ('A' for Active; 'I' for Inactive)
REMARK    1  A    between atoms: C_3  and  O_29
REMARK    2  A    between atoms: C_4  and  C_26
REMARK    3  A    between atoms: C_5  and  C_22
REMARK    4  A    between atoms: C_7  and  O_9
REMARK    5  A    between atoms: O_9  and  C_10
REMARK    6  A    between atoms: C_10  and  C_11
REMARK    7  A    between atoms: C_13  and  O_19
REMARK    8  A    between atoms: C_14  and  O_17
REMARK    9  A    between atoms: O_17  and  C_18
REMARK   10  A    between atoms: O_19  and  C_20
REMARK   11  A    between atoms: C_26  and  C_27
REMARK                            x       y       z     vdW  Elec       q    Type
REMARK                         _______ _______ _______ _____ _____    ______ ____
ROOT
ATOM      1  C   LIG A   1      -3.863   6.363 128.712  0.00  0.00    +0.215 C 
ATOM      2  O   LIG A   1      -3.840   7.002 127.665  0.00  0.00    -0.287 OA
ATOM      3  C   LIG A   1      -4.723   6.806 129.923  0.00  0.00    +0.241 C 
ATOM      4  C   LIG A   1      -4.104   6.421 131.277  0.00  0.00    +0.046 C 
ATOM      5  C   LIG A   1      -5.350   6.627 132.175  0.00  0.00    +0.054 C 
ATOM      6  C   LIG A   1      -6.499   6.156 131.260  0.00  0.00    +0.258 C 
ATOM      7  O   LIG A   1      -6.008   6.189 129.912  0.00  0.00    -0.312 OA
ATOM      8  C   LIG A   1      -5.304   5.996 133.563  0.00  0.00    +0.013 C 
ATOM      9  C   LIG A   1      -3.673   4.925 131.261  0.00  0.00    +0.040 C 
ATOM     10  C   LIG A   1      -2.959   4.495 130.012  0.00  0.00    -0.022 C 
ATOM     11  C   LIG A   1      -3.033   5.139 128.843  0.00  0.00    +0.048 C 
ENDROOT
BRANCH   3  12
ATOM     12  O   LIG A   1      -4.960   8.209 129.826  0.00  0.00    -0.358 OA
ATOM     13  H   LIG A   1      -4.067   8.592 129.706  0.00  0.00    +0.213 HD
ENDBRANCH   3  12
BRANCH   6  14
ATOM     14  O   LIG A   1      -6.926   4.843 131.602  0.00  0.00    -0.346 OA
BRANCH  14  15
ATOM     15  C   LIG A   1      -7.892   4.345 130.681  0.00  0.00    +0.198 C 
BRANCH  15  16
ATOM     16  C   LIG A   1      -9.222   5.002 130.947  0.00  0.00    -0.018 A 
ATOM     17  C   LIG A   1     -10.140   5.190 129.905  0.00  0.00    +0.055 A 
ATOM     18  C   LIG A   1     -11.352   5.863 130.112  0.00  0.00    +0.162 A 
ATOM     19  C   LIG A   1     -11.670   6.338 131.395  0.00  0.00    +0.162 A 
ATOM     20  C   LIG A   1     -10.766   6.123 132.445  0.00  0.00    +0.050 A 
ATOM     21  C   LIG A   1      -9.550   5.472 132.222  0.00  0.00    +0.010 A 
BRANCH  19  22
ATOM     22  O   LIG A   1     -12.892   6.922 131.599  0.00  0.00    -0.491 OA
ATOM     23  C   LIG A   1     -12.951   8.331 131.400  0.00  0.00    +0.277 C 
ENDBRANCH  19  22
BRANCH  18  24
ATOM     24  O   LIG A   1     -12.125   5.955 128.982  0.00  0.00    -0.491 OA
ATOM     25  C   LIG A   1     -11.826   7.029 128.099  0.00  0.00    +0.277 C 
ENDBRANCH  18  24
ENDBRANCH  15  16
ENDBRANCH  14  15
ENDBRANCH   6  14
BRANCH   4  26
ATOM     26  C   LIG A   1      -2.927   7.340 131.723  0.00  0.00    +0.040 C 
BRANCH  26  27
ATOM     27  C   LIG A   1      -1.915   6.728 132.658  0.00  0.00    -0.034 C 
ATOM     28  C   LIG A   1      -0.637   6.481 132.342  0.00  0.00    +0.004 C 
ENDBRANCH  26  27
ENDBRANCH   4  26
TORSDOF 8
ENDMDL
