MODEL 1
REMARK VINA RESULT:      -9.0      0.000      0.000
REMARK  Name = NuBBE_1353
REMARK  10 active torsions:
REMARK  status: ('A' for Active; 'I' for Inactive)
REMARK    1  A    between atoms: C_1  and  C_2
REMARK    2  A    between atoms: C_2  and  C_36
REMARK    3  A    between atoms: C_3  and  O_4
REMARK    4  A    between atoms: C_7  and  C_34
REMARK    5  A    between atoms: C_11  and  C_33
REMARK    6  A    between atoms: C_16  and  C_32
REMARK    7  A    between atoms: C_18  and  O_31
REMARK    8  A    between atoms: C_20  and  C_30
REMARK    9  A    between atoms: C_22  and  C_29
REMARK   10  A    between atoms: C_24  and  C_28
REMARK                            x       y       z     vdW  Elec       q    Type
REMARK                         _______ _______ _______ _____ _____    ______ ____
ROOT
ATOM      1  C   LIG A   1     -10.239   5.500 131.465  0.00  0.00    +0.014 C 
ATOM      2  C   LIG A   1      -8.950   4.796 132.045  0.00  0.00    -0.006 C 
ATOM      3  C   LIG A   1      -9.482   3.616 132.892  0.00  0.00    +0.120 C 
ATOM      4  C   LIG A   1      -8.439   2.543 133.208  0.00  0.00    +0.032 C 
ATOM      5  C   LIG A   1      -7.690   1.986 131.916  0.00  0.00    +0.010 C 
ATOM      6  C   LIG A   1      -6.818   3.148 131.251  0.00  0.00    -0.025 C 
ATOM      7  C   LIG A   1      -8.034   4.180 130.932  0.00  0.00    +0.003 C 
ATOM      8  C   LIG A   1      -7.733   5.222 129.903  0.00  0.00    +0.005 C 
ATOM      9  C   LIG A   1      -7.158   4.561 128.724  0.00  0.00    +0.008 C 
ATOM     10  C   LIG A   1      -5.665   4.130 128.635  0.00  0.00    -0.019 C 
ATOM     11  C   LIG A   1      -5.822   2.836 129.780  0.00  0.00    +0.006 C 
ATOM     12  C   LIG A   1      -4.436   2.192 130.118  0.00  0.00    +0.031 C 
ATOM     13  C   LIG A   1      -3.240   3.152 130.186  0.00  0.00    -0.026 C 
ATOM     14  C   LIG A   1      -3.319   4.427 129.999  0.00  0.00    -0.063 C 
ATOM     15  C   LIG A   1      -4.129   4.829 128.745  0.00  0.00    -0.003 C 
ATOM     16  C   LIG A   1      -4.098   6.354 128.626  0.00  0.00    +0.043 C 
ATOM     17  C   LIG A   1      -4.571   6.934 129.946  0.00  0.00    +0.122 C 
ATOM     18  C   LIG A   1      -3.630   6.632 131.193  0.00  0.00    +0.001 C 
ATOM     19  C   LIG A   1      -2.524   5.606 130.764  0.00  0.00    +0.027 C 
ATOM     20  C   LIG A   1      -1.580   5.161 131.955  0.00  0.00    -0.003 C 
ATOM     21  C   LIG A   1      -2.307   4.466 133.112  0.00  0.00    -0.011 C 
ATOM     22  C   LIG A   1      -3.642   5.188 133.425  0.00  0.00    +0.004 C 
ATOM     23  C   LIG A   1      -4.436   5.920 132.298  0.00  0.00    +0.010 C 
ATOM     24  C   LIG A   1      -2.131   2.937 133.068  0.00  0.00    +0.008 C 
ATOM     25  C   LIG A   1      -0.764   6.285 132.643  0.00  0.00    +0.008 C 
ATOM     26  C   LIG A   1      -3.215   7.982 131.791  0.00  0.00    +0.014 C 
ATOM     27  C   LIG A   1      -3.170   4.256 127.575  0.00  0.00    +0.016 C 
ATOM     28  C   LIG A   1      -5.820   4.184 127.028  0.00  0.00    +0.012 C 
ATOM     29  C   LIG A   1      -5.864   3.304 132.468  0.00  0.00    +0.012 C 
ATOM     30  C   LIG A   1      -8.209   5.928 132.781  0.00  0.00    +0.014 C 
ENDROOT
BRANCH   3  31
ATOM     31  O   LIG A   1     -10.094   4.072 134.096  0.00  0.00    -0.391 OA
ATOM     32  H   LIG A   1      -9.947   3.402 134.787  0.00  0.00    +0.210 HD
ENDBRANCH   3  31
BRANCH  17  33
ATOM     33  O   LIG A   1      -4.891   8.303 129.746  0.00  0.00    -0.391 OA
ATOM     34  H   LIG A   1      -4.586   8.531 128.850  0.00  0.00    +0.210 HD
ENDBRANCH  17  33
TORSDOF 2
ENDMDL
MODEL 2
REMARK VINA RESULT:      -8.7      2.377      5.815
REMARK  Name = NuBBE_1353
REMARK  10 active torsions:
REMARK  status: ('A' for Active; 'I' for Inactive)
REMARK    1  A    between atoms: C_1  and  C_2
REMARK    2  A    between atoms: C_2  and  C_36
REMARK    3  A    between atoms: C_3  and  O_4
REMARK    4  A    between atoms: C_7  and  C_34
REMARK    5  A    between atoms: C_11  and  C_33
REMARK    6  A    between atoms: C_16  and  C_32
REMARK    7  A    between atoms: C_18  and  O_31
REMARK    8  A    between atoms: C_20  and  C_30
REMARK    9  A    between atoms: C_22  and  C_29
REMARK   10  A    between atoms: C_24  and  C_28
REMARK                            x       y       z     vdW  Elec       q    Type
REMARK                         _______ _______ _______ _____ _____    ______ ____
ROOT
ATOM      1  C   LIG A   1      -3.599   7.229 132.628  0.00  0.00    +0.014 C 
ATOM      2  C   LIG A   1      -4.133   5.777 132.944  0.00  0.00    -0.006 C 
ATOM      3  C   LIG A   1      -3.658   5.478 134.385  0.00  0.00    +0.120 C 
ATOM      4  C   LIG A   1      -4.396   4.326 135.068  0.00  0.00    +0.032 C 
ATOM      5  C   LIG A   1      -5.982   4.483 135.043  0.00  0.00    +0.010 C 
ATOM      6  C   LIG A   1      -6.511   4.404 133.538  0.00  0.00    -0.025 C 
ATOM      7  C   LIG A   1      -5.697   5.686 132.952  0.00  0.00    +0.003 C 
ATOM      8  C   LIG A   1      -6.235   6.255 131.677  0.00  0.00    +0.005 C 
ATOM      9  C   LIG A   1      -7.681   6.459 131.831  0.00  0.00    +0.008 C 
ATOM     10  C   LIG A   1      -8.722   5.311 131.686  0.00  0.00    -0.019 C 
ATOM     11  C   LIG A   1      -8.272   4.522 133.163  0.00  0.00    +0.006 C 
ATOM     12  C   LIG A   1      -9.015   3.157 133.340  0.00  0.00    +0.031 C 
ATOM     13  C   LIG A   1      -9.248   2.340 132.061  0.00  0.00    -0.026 C 
ATOM     14  C   LIG A   1      -8.860   2.704 130.885  0.00  0.00    -0.063 C 
ATOM     15  C   LIG A   1      -9.207   4.170 130.535  0.00  0.00    -0.003 C 
ATOM     16  C   LIG A   1      -8.733   4.445 129.107  0.00  0.00    +0.043 C 
ATOM     17  C   LIG A   1      -7.267   4.061 129.021  0.00  0.00    +0.122 C 
ATOM     18  C   LIG A   1      -6.958   2.516 129.232  0.00  0.00    +0.001 C 
ATOM     19  C   LIG A   1      -8.270   1.789 129.693  0.00  0.00    +0.027 C 
ATOM     20  C   LIG A   1      -8.060   0.255 130.021  0.00  0.00    -0.003 C 
ATOM     21  C   LIG A   1      -7.063  -0.018 131.154  0.00  0.00    -0.011 C 
ATOM     22  C   LIG A   1      -5.830   0.911 131.026  0.00  0.00    +0.004 C 
ATOM     23  C   LIG A   1      -5.964   2.333 130.396  0.00  0.00    +0.010 C 
ATOM     24  C   LIG A   1      -7.774  -0.349 132.479  0.00  0.00    +0.008 C 
ATOM     25  C   LIG A   1      -7.561  -0.637 128.856  0.00  0.00    +0.008 C 
ATOM     26  C   LIG A   1      -6.222   2.021 127.981  0.00  0.00    +0.014 C 
ATOM     27  C   LIG A   1     -10.821   4.089 130.477  0.00  0.00    +0.016 C 
ATOM     28  C   LIG A   1      -9.821   6.447 131.351  0.00  0.00    +0.012 C 
ATOM     29  C   LIG A   1      -6.058   2.934 133.319  0.00  0.00    +0.012 C 
ATOM     30  C   LIG A   1      -3.552   4.914 131.807  0.00  0.00    +0.014 C 
ENDROOT
BRANCH   3  31
ATOM     31  O   LIG A   1      -2.251   5.256 134.437  0.00  0.00    -0.391 OA
ATOM     32  H   LIG A   1      -1.804   6.120 134.431  0.00  0.00    +0.210 HD
ENDBRANCH   3  31
BRANCH  17  33
ATOM     33  O   LIG A   1      -6.722   4.632 127.840  0.00  0.00    -0.391 OA
ATOM     34  H   LIG A   1      -6.987   5.569 127.837  0.00  0.00    +0.210 HD
ENDBRANCH  17  33
TORSDOF 2
ENDMDL
MODEL 3
REMARK VINA RESULT:      -8.6      1.668      6.257
REMARK  Name = NuBBE_1353
REMARK  10 active torsions:
REMARK  status: ('A' for Active; 'I' for Inactive)
REMARK    1  A    between atoms: C_1  and  C_2
REMARK    2  A    between atoms: C_2  and  C_36
REMARK    3  A    between atoms: C_3  and  O_4
REMARK    4  A    between atoms: C_7  and  C_34
REMARK    5  A    between atoms: C_11  and  C_33
REMARK    6  A    between atoms: C_16  and  C_32
REMARK    7  A    between atoms: C_18  and  O_31
REMARK    8  A    between atoms: C_20  and  C_30
REMARK    9  A    between atoms: C_22  and  C_29
REMARK   10  A    between atoms: C_24  and  C_28
REMARK                            x       y       z     vdW  Elec       q    Type
REMARK                         _______ _______ _______ _____ _____    ______ ____
ROOT
ATOM      1  C   LIG A   1      -2.993   7.649 131.608  0.00  0.00    +0.014 C 
ATOM      2  C   LIG A   1      -3.902   6.692 130.740  0.00  0.00    -0.006 C 
ATOM      3  C   LIG A   1      -3.545   7.019 129.272  0.00  0.00    +0.120 C 
ATOM      4  C   LIG A   1      -3.970   5.951 128.264  0.00  0.00    +0.032 C 
ATOM      5  C   LIG A   1      -3.452   4.489 128.632  0.00  0.00    +0.010 C 
ATOM      6  C   LIG A   1      -4.140   3.996 129.988  0.00  0.00    -0.025 C 
ATOM      7  C   LIG A   1      -3.578   5.174 130.959  0.00  0.00    +0.003 C 
ATOM      8  C   LIG A   1      -3.612   4.865 132.422  0.00  0.00    +0.005 C 
ATOM      9  C   LIG A   1      -3.001   3.546 132.634  0.00  0.00    +0.008 C 
ATOM     10  C   LIG A   1      -3.762   2.209 132.397  0.00  0.00    -0.019 C 
ATOM     11  C   LIG A   1      -3.786   2.363 130.669  0.00  0.00    +0.006 C 
ATOM     12  C   LIG A   1      -4.640   1.236 130.000  0.00  0.00    +0.031 C 
ATOM     13  C   LIG A   1      -5.899   0.795 130.760  0.00  0.00    -0.026 C 
ATOM     14  C   LIG A   1      -6.285   1.303 131.883  0.00  0.00    -0.063 C 
ATOM     15  C   LIG A   1      -5.160   1.426 132.937  0.00  0.00    -0.003 C 
ATOM     16  C   LIG A   1      -5.770   1.995 134.220  0.00  0.00    +0.043 C 
ATOM     17  C   LIG A   1      -6.500   3.277 133.862  0.00  0.00    +0.122 C 
ATOM     18  C   LIG A   1      -7.750   3.095 132.896  0.00  0.00    +0.001 C 
ATOM     19  C   LIG A   1      -7.790   1.614 132.380  0.00  0.00    +0.027 C 
ATOM     20  C   LIG A   1      -8.947   1.340 131.336  0.00  0.00    -0.003 C 
ATOM     21  C   LIG A   1      -8.856   2.180 130.057  0.00  0.00    -0.011 C 
ATOM     22  C   LIG A   1      -8.462   3.640 130.393  0.00  0.00    +0.004 C 
ATOM     23  C   LIG A   1      -7.568   3.959 131.632  0.00  0.00    +0.010 C 
ATOM     24  C   LIG A   1      -8.286   1.372 128.876  0.00  0.00    +0.008 C 
ATOM     25  C   LIG A   1     -10.395   1.572 131.837  0.00  0.00    +0.008 C 
ATOM     26  C   LIG A   1      -8.973   3.675 133.618  0.00  0.00    +0.014 C 
ATOM     27  C   LIG A   1      -4.850  -0.134 133.226  0.00  0.00    +0.016 C 
ATOM     28  C   LIG A   1      -2.713   1.516 133.411  0.00  0.00    +0.012 C 
ATOM     29  C   LIG A   1      -5.580   3.985 129.405  0.00  0.00    +0.012 C 
ATOM     30  C   LIG A   1      -5.332   7.009 131.217  0.00  0.00    +0.014 C 
ENDROOT
BRANCH   3  31
ATOM     31  O   LIG A   1      -4.057   8.291 128.880  0.00  0.00    -0.391 OA
ATOM     32  H   LIG A   1      -4.207   8.821 129.682  0.00  0.00    +0.210 HD
ENDBRANCH   3  31
BRANCH  17  33
ATOM     33  O   LIG A   1      -6.757   3.996 135.058  0.00  0.00    -0.391 OA
ATOM     34  H   LIG A   1      -7.683   4.293 135.010  0.00  0.00    +0.210 HD
ENDBRANCH  17  33
TORSDOF 2
ENDMDL
MODEL 4
REMARK VINA RESULT:      -8.6      1.438      2.064
REMARK  Name = NuBBE_1353
REMARK  10 active torsions:
REMARK  status: ('A' for Active; 'I' for Inactive)
REMARK    1  A    between atoms: C_1  and  C_2
REMARK    2  A    between atoms: C_2  and  C_36
REMARK    3  A    between atoms: C_3  and  O_4
REMARK    4  A    between atoms: C_7  and  C_34
REMARK    5  A    between atoms: C_11  and  C_33
REMARK    6  A    between atoms: C_16  and  C_32
REMARK    7  A    between atoms: C_18  and  O_31
REMARK    8  A    between atoms: C_20  and  C_30
REMARK    9  A    between atoms: C_22  and  C_29
REMARK   10  A    between atoms: C_24  and  C_28
REMARK                            x       y       z     vdW  Elec       q    Type
REMARK                         _______ _______ _______ _____ _____    ______ ____
ROOT
ATOM      1  C   LIG A   1     -10.620   5.763 129.986  0.00  0.00    +0.014 C 
ATOM      2  C   LIG A   1      -9.480   5.598 131.067  0.00  0.00    -0.006 C 
ATOM      3  C   LIG A   1     -10.222   5.479 132.419  0.00  0.00    +0.120 C 
ATOM      4  C   LIG A   1      -9.379   4.896 133.554  0.00  0.00    +0.032 C 
ATOM      5  C   LIG A   1      -8.698   3.502 133.187  0.00  0.00    +0.010 C 
ATOM      6  C   LIG A   1      -7.628   3.712 132.019  0.00  0.00    -0.025 C 
ATOM      7  C   LIG A   1      -8.649   4.281 130.887  0.00  0.00    +0.003 C 
ATOM      8  C   LIG A   1      -8.152   4.196 129.479  0.00  0.00    +0.005 C 
ATOM      9  C   LIG A   1      -7.662   2.832 129.240  0.00  0.00    +0.008 C 
ATOM     10  C   LIG A   1      -6.259   2.341 129.699  0.00  0.00    -0.019 C 
ATOM     11  C   LIG A   1      -6.657   2.329 131.387  0.00  0.00    +0.006 C 
ATOM     12  C   LIG A   1      -5.407   2.018 132.275  0.00  0.00    +0.031 C 
ATOM     13  C   LIG A   1      -4.071   2.603 131.794  0.00  0.00    -0.026 C 
ATOM     14  C   LIG A   1      -3.934   3.328 130.735  0.00  0.00    -0.063 C 
ATOM     15  C   LIG A   1      -4.632   2.749 129.482  0.00  0.00    -0.003 C 
ATOM     16  C   LIG A   1      -4.347   3.682 128.304  0.00  0.00    +0.043 C 
ATOM     17  C   LIG A   1      -4.753   5.086 128.712  0.00  0.00    +0.122 C 
ATOM     18  C   LIG A   1      -3.910   5.714 129.904  0.00  0.00    +0.001 C 
ATOM     19  C   LIG A   1      -2.976   4.609 130.511  0.00  0.00    +0.027 C 
ATOM     20  C   LIG A   1      -2.151   5.099 131.769  0.00  0.00    -0.003 C 
ATOM     21  C   LIG A   1      -3.014   5.552 132.953  0.00  0.00    -0.011 C 
ATOM     22  C   LIG A   1      -4.219   6.389 132.458  0.00  0.00    +0.004 C 
ATOM     23  C   LIG A   1      -4.851   6.124 131.055  0.00  0.00    +0.010 C 
ATOM     24  C   LIG A   1      -3.091   4.477 134.054  0.00  0.00    +0.008 C 
ATOM     25  C   LIG A   1      -1.180   6.284 131.536  0.00  0.00    +0.008 C 
ATOM     26  C   LIG A   1      -3.294   7.022 129.391  0.00  0.00    +0.014 C 
ATOM     27  C   LIG A   1      -3.750   1.416 129.239  0.00  0.00    +0.016 C 
ATOM     28  C   LIG A   1      -6.359   1.208 128.551  0.00  0.00    +0.012 C 
ATOM     29  C   LIG A   1      -6.695   4.625 132.862  0.00  0.00    +0.012 C 
ATOM     30  C   LIG A   1      -8.583   6.832 130.850  0.00  0.00    +0.014 C 
ENDROOT
BRANCH   3  31
ATOM     31  O   LIG A   1     -10.783   6.727 132.820  0.00  0.00    -0.391 OA
ATOM     32  H   LIG A   1     -11.715   6.582 133.058  0.00  0.00    +0.210 HD
ENDBRANCH   3  31
BRANCH  17  33
ATOM     33  O   LIG A   1      -4.838   5.887 127.542  0.00  0.00    -0.391 OA
ATOM     34  H   LIG A   1      -4.441   5.367 126.820  0.00  0.00    +0.210 HD
ENDBRANCH  17  33
TORSDOF 2
ENDMDL
MODEL 5
REMARK VINA RESULT:      -8.5      1.971      6.124
REMARK  Name = NuBBE_1353
REMARK  10 active torsions:
REMARK  status: ('A' for Active; 'I' for Inactive)
REMARK    1  A    between atoms: C_1  and  C_2
REMARK    2  A    between atoms: C_2  and  C_36
REMARK    3  A    between atoms: C_3  and  O_4
REMARK    4  A    between atoms: C_7  and  C_34
REMARK    5  A    between atoms: C_11  and  C_33
REMARK    6  A    between atoms: C_16  and  C_32
REMARK    7  A    between atoms: C_18  and  O_31
REMARK    8  A    between atoms: C_20  and  C_30
REMARK    9  A    between atoms: C_22  and  C_29
REMARK   10  A    between atoms: C_24  and  C_28
REMARK                            x       y       z     vdW  Elec       q    Type
REMARK                         _______ _______ _______ _____ _____    ______ ____
ROOT
ATOM      1  C   LIG A   1      -3.979   8.107 129.716  0.00  0.00    +0.014 C 
ATOM      2  C   LIG A   1      -3.762   6.600 130.139  0.00  0.00    -0.006 C 
ATOM      3  C   LIG A   1      -2.310   6.536 130.667  0.00  0.00    +0.120 C 
ATOM      4  C   LIG A   1      -2.001   5.303 131.517  0.00  0.00    +0.032 C 
ATOM      5  C   LIG A   1      -3.023   5.087 132.720  0.00  0.00    +0.010 C 
ATOM      6  C   LIG A   1      -4.479   4.768 132.144  0.00  0.00    -0.025 C 
ATOM      7  C   LIG A   1      -4.695   6.152 131.316  0.00  0.00    +0.003 C 
ATOM      8  C   LIG A   1      -6.115   6.478 130.976  0.00  0.00    +0.005 C 
ATOM      9  C   LIG A   1      -6.925   6.355 132.195  0.00  0.00    +0.008 C 
ATOM     10  C   LIG A   1      -7.434   4.990 132.742  0.00  0.00    -0.019 C 
ATOM     11  C   LIG A   1      -5.867   4.446 133.250  0.00  0.00    +0.006 C 
ATOM     12  C   LIG A   1      -5.903   2.965 133.753  0.00  0.00    +0.031 C 
ATOM     13  C   LIG A   1      -6.851   2.017 133.004  0.00  0.00    -0.026 C 
ATOM     14  C   LIG A   1      -7.587   2.366 132.002  0.00  0.00    -0.063 C 
ATOM     15  C   LIG A   1      -8.371   3.680 132.226  0.00  0.00    -0.003 C 
ATOM     16  C   LIG A   1      -9.227   3.941 130.986  0.00  0.00    +0.043 C 
ATOM     17  C   LIG A   1      -8.316   3.901 129.773  0.00  0.00    +0.122 C 
ATOM     18  C   LIG A   1      -7.644   2.490 129.479  0.00  0.00    +0.001 C 
ATOM     19  C   LIG A   1      -7.944   1.519 130.674  0.00  0.00    +0.027 C 
ATOM     20  C   LIG A   1      -7.245   0.106 130.532  0.00  0.00    -0.003 C 
ATOM     21  C   LIG A   1      -5.714   0.162 130.470  0.00  0.00    -0.011 C 
ATOM     22  C   LIG A   1      -5.250   1.337 129.573  0.00  0.00    +0.004 C 
ATOM     23  C   LIG A   1      -6.109   2.635 129.451  0.00  0.00    +0.010 C 
ATOM     24  C   LIG A   1      -5.069  -0.217 131.816  0.00  0.00    +0.008 C 
ATOM     25  C   LIG A   1      -7.642  -0.736 129.293  0.00  0.00    +0.008 C 
ATOM     26  C   LIG A   1      -8.044   2.080 128.056  0.00  0.00    +0.014 C 
ATOM     27  C   LIG A   1      -9.387   3.224 133.399  0.00  0.00    +0.016 C 
ATOM     28  C   LIG A   1      -8.599   5.811 133.503  0.00  0.00    +0.012 C 
ATOM     29  C   LIG A   1      -4.062   3.430 131.474  0.00  0.00    +0.012 C 
ATOM     30  C   LIG A   1      -4.094   5.807 128.860  0.00  0.00    +0.014 C 
ENDROOT
BRANCH   3  31
ATOM     31  O   LIG A   1      -1.363   6.649 129.608  0.00  0.00    -0.391 OA
ATOM     32  H   LIG A   1      -0.702   7.317 129.858  0.00  0.00    +0.210 HD
ENDBRANCH   3  31
BRANCH  17  33
ATOM     33  O   LIG A   1      -9.002   4.486 128.676  0.00  0.00    -0.391 OA
ATOM     34  H   LIG A   1      -9.907   4.127 128.691  0.00  0.00    +0.210 HD
ENDBRANCH  17  33
TORSDOF 2
ENDMDL
MODEL 6
REMARK VINA RESULT:      -8.5      3.785      6.050
REMARK  Name = NuBBE_1353
REMARK  10 active torsions:
REMARK  status: ('A' for Active; 'I' for Inactive)
REMARK    1  A    between atoms: C_1  and  C_2
REMARK    2  A    between atoms: C_2  and  C_36
REMARK    3  A    between atoms: C_3  and  O_4
REMARK    4  A    between atoms: C_7  and  C_34
REMARK    5  A    between atoms: C_11  and  C_33
REMARK    6  A    between atoms: C_16  and  C_32
REMARK    7  A    between atoms: C_18  and  O_31
REMARK    8  A    between atoms: C_20  and  C_30
REMARK    9  A    between atoms: C_22  and  C_29
REMARK   10  A    between atoms: C_24  and  C_28
REMARK                            x       y       z     vdW  Elec       q    Type
REMARK                         _______ _______ _______ _____ _____    ______ ____
ROOT
ATOM      1  C   LIG A   1      -8.507   0.000 124.141  0.00  0.00    +0.014 C 
ATOM      2  C   LIG A   1      -8.404  -0.372 125.672  0.00  0.00    -0.006 C 
ATOM      3  C   LIG A   1      -8.482  -1.916 125.717  0.00  0.00    +0.120 C 
ATOM      4  C   LIG A   1      -7.987  -2.537 127.024  0.00  0.00    +0.032 C 
ATOM      5  C   LIG A   1      -6.525  -2.058 127.440  0.00  0.00    +0.010 C 
ATOM      6  C   LIG A   1      -6.540  -0.495 127.770  0.00  0.00    -0.025 C 
ATOM      7  C   LIG A   1      -7.031   0.032 126.312  0.00  0.00    +0.003 C 
ATOM      8  C   LIG A   1      -6.758   1.476 126.029  0.00  0.00    +0.005 C 
ATOM      9  C   LIG A   1      -5.350   1.753 126.344  0.00  0.00    +0.008 C 
ATOM     10  C   LIG A   1      -4.837   2.003 127.792  0.00  0.00    -0.019 C 
ATOM     11  C   LIG A   1      -5.042   0.358 128.302  0.00  0.00    +0.006 C 
ATOM     12  C   LIG A   1      -4.765   0.188 129.833  0.00  0.00    +0.031 C 
ATOM     13  C   LIG A   1      -5.216   1.345 130.736  0.00  0.00    -0.026 C 
ATOM     14  C   LIG A   1      -5.806   2.412 130.312  0.00  0.00    -0.063 C 
ATOM     15  C   LIG A   1      -5.127   3.058 129.082  0.00  0.00    -0.003 C 
ATOM     16  C   LIG A   1      -5.901   4.328 128.722  0.00  0.00    +0.043 C 
ATOM     17  C   LIG A   1      -7.363   3.953 128.564  0.00  0.00    +0.122 C 
ATOM     18  C   LIG A   1      -8.076   3.437 129.888  0.00  0.00    +0.001 C 
ATOM     19  C   LIG A   1      -6.997   3.248 131.012  0.00  0.00    +0.027 C 
ATOM     20  C   LIG A   1      -7.582   2.649 132.355  0.00  0.00    -0.003 C 
ATOM     21  C   LIG A   1      -8.214   1.260 132.205  0.00  0.00    -0.011 C 
ATOM     22  C   LIG A   1      -9.055   1.184 130.906  0.00  0.00    +0.004 C 
ATOM     23  C   LIG A   1      -8.667   2.032 129.654  0.00  0.00    +0.010 C 
ATOM     24  C   LIG A   1      -7.279   0.144 132.706  0.00  0.00    +0.008 C 
ATOM     25  C   LIG A   1      -8.677   3.487 133.063  0.00  0.00    +0.008 C 
ATOM     26  C   LIG A   1      -9.280   4.352 130.147  0.00  0.00    +0.014 C 
ATOM     27  C   LIG A   1      -3.727   3.541 129.733  0.00  0.00    +0.016 C 
ATOM     28  C   LIG A   1      -3.588   2.790 127.136  0.00  0.00    +0.012 C 
ATOM     29  C   LIG A   1      -7.490  -0.630 128.992  0.00  0.00    +0.012 C 
ATOM     30  C   LIG A   1      -9.553   0.421 126.324  0.00  0.00    +0.014 C 
ENDROOT
BRANCH   3  31
ATOM     31  O   LIG A   1      -9.797  -2.382 125.424  0.00  0.00    -0.391 OA
ATOM     32  H   LIG A   1     -10.221  -2.648 126.258  0.00  0.00    +0.210 HD
ENDBRANCH   3  31
BRANCH  17  33
ATOM     33  O   LIG A   1      -8.028   5.013 127.891  0.00  0.00    -0.391 OA
ATOM     34  H   LIG A   1      -8.119   5.737 128.536  0.00  0.00    +0.210 HD
ENDBRANCH  17  33
TORSDOF 2
ENDMDL
MODEL 7
REMARK VINA RESULT:      -8.4      3.666      6.908
REMARK  Name = NuBBE_1353
REMARK  10 active torsions:
REMARK  status: ('A' for Active; 'I' for Inactive)
REMARK    1  A    between atoms: C_1  and  C_2
REMARK    2  A    between atoms: C_2  and  C_36
REMARK    3  A    between atoms: C_3  and  O_4
REMARK    4  A    between atoms: C_7  and  C_34
REMARK    5  A    between atoms: C_11  and  C_33
REMARK    6  A    between atoms: C_16  and  C_32
REMARK    7  A    between atoms: C_18  and  O_31
REMARK    8  A    between atoms: C_20  and  C_30
REMARK    9  A    between atoms: C_22  and  C_29
REMARK   10  A    between atoms: C_24  and  C_28
REMARK                            x       y       z     vdW  Elec       q    Type
REMARK                         _______ _______ _______ _____ _____    ______ ____
ROOT
ATOM      1  C   LIG A   1      -9.679   3.548 133.307  0.00  0.00    +0.014 C 
ATOM      2  C   LIG A   1      -9.111   2.706 132.098  0.00  0.00    -0.006 C 
ATOM      3  C   LIG A   1      -9.502   3.503 130.832  0.00  0.00    +0.120 C 
ATOM      4  C   LIG A   1      -8.715   3.126 129.577  0.00  0.00    +0.032 C 
ATOM      5  C   LIG A   1      -7.135   3.176 129.780  0.00  0.00    +0.010 C 
ATOM      6  C   LIG A   1      -6.687   2.061 130.833  0.00  0.00    -0.025 C 
ATOM      7  C   LIG A   1      -7.547   2.601 132.103  0.00  0.00    +0.003 C 
ATOM      8  C   LIG A   1      -7.086   2.112 133.440  0.00  0.00    +0.005 C 
ATOM      9  C   LIG A   1      -5.637   2.325 133.540  0.00  0.00    +0.008 C 
ATOM     10  C   LIG A   1      -4.591   1.367 132.898  0.00  0.00    -0.019 C 
ATOM     11  C   LIG A   1      -4.950   1.836 131.267  0.00  0.00    +0.006 C 
ATOM     12  C   LIG A   1      -4.181   0.954 130.229  0.00  0.00    +0.031 C 
ATOM     13  C   LIG A   1      -4.008  -0.528 130.593  0.00  0.00    -0.026 C 
ATOM     14  C   LIG A   1      -4.464  -1.069 131.672  0.00  0.00    -0.063 C 
ATOM     15  C   LIG A   1      -4.154  -0.266 132.957  0.00  0.00    -0.003 C 
ATOM     16  C   LIG A   1      -4.709  -1.045 134.151  0.00  0.00    +0.043 C 
ATOM     17  C   LIG A   1      -6.173  -1.339 133.878  0.00  0.00    +0.122 C 
ATOM     18  C   LIG A   1      -6.450  -2.297 132.639  0.00  0.00    +0.001 C 
ATOM     19  C   LIG A   1      -5.106  -2.538 131.866  0.00  0.00    +0.027 C 
ATOM     20  C   LIG A   1      -5.278  -3.409 130.556  0.00  0.00    -0.003 C 
ATOM     21  C   LIG A   1      -6.209  -2.793 129.505  0.00  0.00    -0.011 C 
ATOM     22  C   LIG A   1      -7.459  -2.177 130.182  0.00  0.00    +0.004 C 
ATOM     23  C   LIG A   1      -7.377  -1.593 131.628  0.00  0.00    +0.010 C 
ATOM     24  C   LIG A   1      -5.424  -2.133 128.357  0.00  0.00    +0.008 C 
ATOM     25  C   LIG A   1      -5.829  -4.845 130.752  0.00  0.00    +0.008 C 
ATOM     26  C   LIG A   1      -7.246  -3.499 133.160  0.00  0.00    +0.014 C 
ATOM     27  C   LIG A   1      -2.545  -0.411 133.019  0.00  0.00    +0.016 C 
ATOM     28  C   LIG A   1      -3.526   1.922 133.979  0.00  0.00    +0.012 C 
ATOM     29  C   LIG A   1      -7.132   0.863 129.949  0.00  0.00    +0.012 C 
ATOM     30  C   LIG A   1      -9.741   1.313 132.289  0.00  0.00    +0.014 C 
ENDROOT
BRANCH   3  31
ATOM     31  O   LIG A   1     -10.902   3.419 130.573  0.00  0.00    -0.391 OA
ATOM     32  H   LIG A   1     -11.379   3.699 131.374  0.00  0.00    +0.210 HD
ENDBRANCH   3  31
BRANCH  17  33
ATOM     33  O   LIG A   1      -6.788  -1.730 135.096  0.00  0.00    -0.391 OA
ATOM     34  H   LIG A   1      -6.066  -1.949 135.713  0.00  0.00    +0.210 HD
ENDBRANCH  17  33
TORSDOF 2
ENDMDL
MODEL 8
REMARK VINA RESULT:      -8.4      2.319      4.442
REMARK  Name = NuBBE_1353
REMARK  10 active torsions:
REMARK  status: ('A' for Active; 'I' for Inactive)
REMARK    1  A    between atoms: C_1  and  C_2
REMARK    2  A    between atoms: C_2  and  C_36
REMARK    3  A    between atoms: C_3  and  O_4
REMARK    4  A    between atoms: C_7  and  C_34
REMARK    5  A    between atoms: C_11  and  C_33
REMARK    6  A    between atoms: C_16  and  C_32
REMARK    7  A    between atoms: C_18  and  O_31
REMARK    8  A    between atoms: C_20  and  C_30
REMARK    9  A    between atoms: C_22  and  C_29
REMARK   10  A    between atoms: C_24  and  C_28
REMARK                            x       y       z     vdW  Elec       q    Type
REMARK                         _______ _______ _______ _____ _____    ______ ____
ROOT
ATOM      1  C   LIG A   1      -7.418   1.930 126.834  0.00  0.00    +0.014 C 
ATOM      2  C   LIG A   1      -6.976   1.713 128.336  0.00  0.00    -0.006 C 
ATOM      3  C   LIG A   1      -6.460   0.257 128.397  0.00  0.00    +0.120 C 
ATOM      4  C   LIG A   1      -5.596  -0.058 129.618  0.00  0.00    +0.032 C 
ATOM      5  C   LIG A   1      -4.381   0.955 129.814  0.00  0.00    +0.010 C 
ATOM      6  C   LIG A   1      -4.939   2.417 130.137  0.00  0.00    -0.025 C 
ATOM      7  C   LIG A   1      -5.784   2.636 128.765  0.00  0.00    +0.003 C 
ATOM      8  C   LIG A   1      -6.115   4.058 128.440  0.00  0.00    +0.005 C 
ATOM      9  C   LIG A   1      -4.888   4.858 128.543  0.00  0.00    +0.008 C 
ATOM     10  C   LIG A   1      -4.316   5.365 129.899  0.00  0.00    -0.019 C 
ATOM     11  C   LIG A   1      -3.815   3.795 130.440  0.00  0.00    +0.006 C 
ATOM     12  C   LIG A   1      -3.291   3.830 131.914  0.00  0.00    +0.031 C 
ATOM     13  C   LIG A   1      -4.018   4.787 132.869  0.00  0.00    -0.026 C 
ATOM     14  C   LIG A   1      -5.018   5.531 132.533  0.00  0.00    -0.063 C 
ATOM     15  C   LIG A   1      -4.805   6.310 131.214  0.00  0.00    -0.003 C 
ATOM     16  C   LIG A   1      -6.041   7.177 130.968  0.00  0.00    +0.043 C 
ATOM     17  C   LIG A   1      -7.262   6.277 131.028  0.00  0.00    +0.122 C 
ATOM     18  C   LIG A   1      -7.542   5.611 132.444  0.00  0.00    +0.001 C 
ATOM     19  C   LIG A   1      -6.330   5.903 133.397  0.00  0.00    +0.027 C 
ATOM     20  C   LIG A   1      -6.459   5.209 134.814  0.00  0.00    -0.003 C 
ATOM     21  C   LIG A   1      -6.536   3.678 134.763  0.00  0.00    -0.011 C 
ATOM     22  C   LIG A   1      -7.453   3.219 133.602  0.00  0.00    +0.004 C 
ATOM     23  C   LIG A   1      -7.585   4.076 132.304  0.00  0.00    +0.010 C 
ATOM     24  C   LIG A   1      -5.190   3.022 135.125  0.00  0.00    +0.008 C 
ATOM     25  C   LIG A   1      -7.682   5.620 135.673  0.00  0.00    +0.008 C 
ATOM     26  C   LIG A   1      -8.954   6.026 132.874  0.00  0.00    +0.014 C 
ATOM     27  C   LIG A   1      -3.616   7.316 131.651  0.00  0.00    +0.016 C 
ATOM     28  C   LIG A   1      -3.556   6.521 129.064  0.00  0.00    +0.012 C 
ATOM     29  C   LIG A   1      -5.593   2.009 131.486  0.00  0.00    +0.012 C 
ATOM     30  C   LIG A   1      -8.240   2.059 129.146  0.00  0.00    +0.014 C 
ENDROOT
BRANCH   3  31
ATOM     31  O   LIG A   1      -7.530  -0.681 128.301  0.00  0.00    -0.391 OA
ATOM     32  H   LIG A   1      -8.370  -0.198 128.388  0.00  0.00    +0.210 HD
ENDBRANCH   3  31
BRANCH  17  33
ATOM     33  O   LIG A   1      -8.360   6.971 130.457  0.00  0.00    -0.391 OA
ATOM     34  H   LIG A   1      -8.412   7.832 130.911  0.00  0.00    +0.210 HD
ENDBRANCH  17  33
TORSDOF 2
ENDMDL
MODEL 9
REMARK VINA RESULT:      -8.3      3.354      5.806
REMARK  Name = NuBBE_1353
REMARK  10 active torsions:
REMARK  status: ('A' for Active; 'I' for Inactive)
REMARK    1  A    between atoms: C_1  and  C_2
REMARK    2  A    between atoms: C_2  and  C_36
REMARK    3  A    between atoms: C_3  and  O_4
REMARK    4  A    between atoms: C_7  and  C_34
REMARK    5  A    between atoms: C_11  and  C_33
REMARK    6  A    between atoms: C_16  and  C_32
REMARK    7  A    between atoms: C_18  and  O_31
REMARK    8  A    between atoms: C_20  and  C_30
REMARK    9  A    between atoms: C_22  and  C_29
REMARK   10  A    between atoms: C_24  and  C_28
REMARK                            x       y       z     vdW  Elec       q    Type
REMARK                         _______ _______ _______ _____ _____    ______ ____
ROOT
ATOM      1  C   LIG A   1      -5.611  -2.494 131.292  0.00  0.00    +0.014 C 
ATOM      2  C   LIG A   1      -5.320  -1.642 129.994  0.00  0.00    -0.006 C 
ATOM      3  C   LIG A   1      -5.291  -2.669 128.838  0.00  0.00    +0.120 C 
ATOM      4  C   LIG A   1      -5.447  -2.058 127.445  0.00  0.00    +0.032 C 
ATOM      5  C   LIG A   1      -6.728  -1.120 127.303  0.00  0.00    +0.010 C 
ATOM      6  C   LIG A   1      -6.568   0.164 128.241  0.00  0.00    -0.025 C 
ATOM      7  C   LIG A   1      -6.459  -0.617 129.664  0.00  0.00    +0.003 C 
ATOM      8  C   LIG A   1      -6.743   0.216 130.873  0.00  0.00    +0.005 C 
ATOM      9  C   LIG A   1      -8.006   0.935 130.657  0.00  0.00    +0.008 C 
ATOM     10  C   LIG A   1      -8.109   2.237 129.810  0.00  0.00    -0.019 C 
ATOM     11  C   LIG A   1      -7.839   1.442 128.293  0.00  0.00    +0.006 C 
ATOM     12  C   LIG A   1      -7.707   2.468 127.118  0.00  0.00    +0.031 C 
ATOM     13  C   LIG A   1      -6.992   3.786 127.445  0.00  0.00    -0.026 C 
ATOM     14  C   LIG A   1      -6.495   4.077 128.601  0.00  0.00    -0.063 C 
ATOM     15  C   LIG A   1      -7.450   3.794 129.784  0.00  0.00    -0.003 C 
ATOM     16  C   LIG A   1      -6.751   4.227 131.074  0.00  0.00    +0.043 C 
ATOM     17  C   LIG A   1      -5.397   3.542 131.124  0.00  0.00    +0.122 C 
ATOM     18  C   LIG A   1      -4.380   3.971 129.979  0.00  0.00    +0.001 C 
ATOM     19  C   LIG A   1      -5.130   4.872 128.937  0.00  0.00    +0.027 C 
ATOM     20  C   LIG A   1      -4.234   5.287 127.700  0.00  0.00    -0.003 C 
ATOM     21  C   LIG A   1      -3.717   4.106 126.870  0.00  0.00    -0.011 C 
ATOM     22  C   LIG A   1      -3.252   2.954 127.797  0.00  0.00    +0.004 C 
ATOM     23  C   LIG A   1      -3.925   2.729 129.187  0.00  0.00    +0.010 C 
ATOM     24  C   LIG A   1      -4.528   3.912 125.576  0.00  0.00    +0.008 C 
ATOM     25  C   LIG A   1      -2.961   6.111 128.018  0.00  0.00    +0.008 C 
ATOM     26  C   LIG A   1      -3.117   4.506 130.667  0.00  0.00    +0.014 C 
ATOM     27  C   LIG A   1      -8.608   4.886 129.499  0.00  0.00    +0.016 C 
ATOM     28  C   LIG A   1      -9.456   2.580 130.633  0.00  0.00    +0.012 C 
ATOM     29  C   LIG A   1      -5.335   0.726 127.480  0.00  0.00    +0.012 C 
ATOM     30  C   LIG A   1      -4.011  -0.900 130.325  0.00  0.00    +0.014 C 
ENDROOT
BRANCH   3  31
ATOM     31  O   LIG A   1      -4.119  -3.479 128.887  0.00  0.00    -0.391 OA
ATOM     32  H   LIG A   1      -3.869  -3.711 127.976  0.00  0.00    +0.210 HD
ENDBRANCH   3  31
BRANCH  17  33
ATOM     33  O   LIG A   1      -4.894   3.636 132.448  0.00  0.00    -0.391 OA
ATOM     34  H   LIG A   1      -5.128   4.525 132.771  0.00  0.00    +0.210 HD
ENDBRANCH  17  33
TORSDOF 2
ENDMDL
