MODEL 1
REMARK VINA RESULT:      -7.3      0.000      0.000
REMARK  Name = NuBBE_1588
REMARK  9 active torsions:
REMARK  status: ('A' for Active; 'I' for Inactive)
REMARK    1  A    between atoms: C_1  and  O_2
REMARK    2  A    between atoms: O_2  and  C_3
REMARK    3  A    between atoms: C_4  and  O_5
REMARK    4  A    between atoms: O_5  and  C_6
REMARK    5  A    between atoms: C_7  and  O_8
REMARK    6  A    between atoms: O_8  and  C_9
REMARK    7  A    between atoms: C_13  and  C_14
REMARK    8  A    between atoms: C_16  and  O_17
REMARK    9  A    between atoms: O_17  and  C_18
REMARK                            x       y       z     vdW  Elec       q    Type
REMARK                         _______ _______ _______ _____ _____    ______ ____
ROOT
ATOM      1  C   LIG A   1      -7.508  -0.147 127.495  0.00  0.00    +0.179 A 
ATOM      2  C   LIG A   1      -7.515  -1.554 127.245  0.00  0.00    +0.204 A 
ATOM      3  C   LIG A   1      -7.919  -2.035 125.978  0.00  0.00    +0.169 A 
ATOM      4  C   LIG A   1      -8.165  -1.130 124.949  0.00  0.00    +0.096 A 
ATOM      5  C   LIG A   1      -8.101   0.229 125.169  0.00  0.00    +0.146 A 
ATOM      6  O   LIG A   1      -8.288   0.995 124.045  0.00  0.00    -0.454 OA
ATOM      7  C   LIG A   1      -7.862   2.306 124.090  0.00  0.00    +0.140 A 
ATOM      8  C   LIG A   1      -7.680   2.949 125.252  0.00  0.00    +0.098 A 
ATOM      9  C   LIG A   1      -7.838   0.736 126.433  0.00  0.00    +0.109 A 
ATOM     10  C   LIG A   1      -7.939   2.218 126.528  0.00  0.00    +0.197 A 
ATOM     11  O   LIG A   1      -8.264   2.823 127.522  0.00  0.00    -0.287 OA
ENDROOT
BRANCH   7  12
ATOM     12  C   LIG A   1      -7.689   2.928 122.750  0.00  0.00    +0.025 A 
ATOM     13  C   LIG A   1      -6.413   3.375 122.307  0.00  0.00    +0.061 A 
ATOM     14  C   LIG A   1      -6.217   3.929 121.026  0.00  0.00    +0.166 A 
ATOM     15  C   LIG A   1      -7.330   4.067 120.219  0.00  0.00    +0.208 A 
ATOM     16  O   LIG A   1      -7.386   4.592 118.964  0.00  0.00    -0.449 OA
ATOM     17  C   LIG A   1      -8.780   4.460 118.650  0.00  0.00    +0.467 C 
ATOM     18  O   LIG A   1      -9.549   3.891 119.725  0.00  0.00    -0.452 OA
ATOM     19  C   LIG A   1      -8.575   3.673 120.652  0.00  0.00    +0.171 A 
ATOM     20  C   LIG A   1      -8.787   3.112 121.898  0.00  0.00    +0.061 A 
BRANCH  14  21
ATOM     21  O   LIG A   1      -4.939   4.307 120.716  0.00  0.00    -0.491 OA
ATOM     22  C   LIG A   1      -4.222   4.971 121.756  0.00  0.00    +0.277 C 
ENDBRANCH  14  21
ENDBRANCH   7  12
BRANCH   1  24
ATOM     23  C   LIG A   1      -5.763   0.625 128.992  0.00  0.00    +0.277 C 
ATOM     24  O   LIG A   1      -7.142   0.467 128.672  0.00  0.00    -0.490 OA
ENDBRANCH   1  24
BRANCH   2  25
ATOM     25  O   LIG A   1      -7.197  -2.395 128.286  0.00  0.00    -0.488 OA
ATOM     26  C   LIG A   1      -8.238  -2.810 129.168  0.00  0.00    +0.277 C 
ENDBRANCH   2  25
BRANCH   3  27
ATOM     27  O   LIG A   1      -8.035  -3.387 125.759  0.00  0.00    -0.491 OA
ATOM     28  C   LIG A   1      -8.122  -3.782 124.388  0.00  0.00    +0.277 C 
ENDBRANCH   3  27
TORSDOF 5
ENDMDL
MODEL 2
REMARK VINA RESULT:      -7.0      2.816      9.293
REMARK  Name = NuBBE_1588
REMARK  9 active torsions:
REMARK  status: ('A' for Active; 'I' for Inactive)
REMARK    1  A    between atoms: C_1  and  O_2
REMARK    2  A    between atoms: O_2  and  C_3
REMARK    3  A    between atoms: C_4  and  O_5
REMARK    4  A    between atoms: O_5  and  C_6
REMARK    5  A    between atoms: C_7  and  O_8
REMARK    6  A    between atoms: O_8  and  C_9
REMARK    7  A    between atoms: C_13  and  C_14
REMARK    8  A    between atoms: C_16  and  O_17
REMARK    9  A    between atoms: O_17  and  C_18
REMARK                            x       y       z     vdW  Elec       q    Type
REMARK                         _______ _______ _______ _____ _____    ______ ____
ROOT
ATOM      1  C   LIG A   1      -8.587  -0.533 124.590  0.00  0.00    +0.179 A 
ATOM      2  C   LIG A   1      -8.084   0.784 124.361  0.00  0.00    +0.204 A 
ATOM      3  C   LIG A   1      -7.557   1.527 125.443  0.00  0.00    +0.169 A 
ATOM      4  C   LIG A   1      -7.403   0.915 126.684  0.00  0.00    +0.096 A 
ATOM      5  C   LIG A   1      -7.833  -0.378 126.895  0.00  0.00    +0.146 A 
ATOM      6  O   LIG A   1      -7.544  -0.875 128.142  0.00  0.00    -0.454 OA
ATOM      7  C   LIG A   1      -7.578  -2.245 128.304  0.00  0.00    +0.140 A 
ATOM      8  C   LIG A   1      -8.261  -3.038 127.466  0.00  0.00    +0.098 A 
ATOM      9  C   LIG A   1      -8.475  -1.089 125.892  0.00  0.00    +0.109 A 
ATOM     10  C   LIG A   1      -8.994  -2.416 126.324  0.00  0.00    +0.197 A 
ATOM     11  O   LIG A   1      -9.970  -2.957 125.859  0.00  0.00    -0.287 OA
ENDROOT
BRANCH   7  12
ATOM     12  C   LIG A   1      -6.847  -2.726 129.508  0.00  0.00    +0.025 A 
ATOM     13  C   LIG A   1      -5.459  -3.034 129.449  0.00  0.00    +0.061 A 
ATOM     14  C   LIG A   1      -4.736  -3.451 130.585  0.00  0.00    +0.166 A 
ATOM     15  C   LIG A   1      -5.440  -3.596 131.765  0.00  0.00    +0.208 A 
ATOM     16  O   LIG A   1      -4.962  -4.005 132.972  0.00  0.00    -0.449 OA
ATOM     17  C   LIG A   1      -6.140  -3.948 133.791  0.00  0.00    +0.467 C 
ATOM     18  O   LIG A   1      -7.313  -3.540 133.065  0.00  0.00    -0.452 OA
ATOM     19  C   LIG A   1      -6.791  -3.337 131.823  0.00  0.00    +0.171 A 
ATOM     20  C   LIG A   1      -7.515  -2.911 130.726  0.00  0.00    +0.061 A 
BRANCH  14  21
ATOM     21  O   LIG A   1      -3.404  -3.702 130.399  0.00  0.00    -0.491 OA
ATOM     22  C   LIG A   1      -2.958  -3.697 129.044  0.00  0.00    +0.277 C 
ENDBRANCH  14  21
ENDBRANCH   7  12
BRANCH   1  24
ATOM     23  C   LIG A   1      -8.270  -2.138 122.800  0.00  0.00    +0.277 C 
ATOM     24  O   LIG A   1      -9.127  -1.373 123.642  0.00  0.00    -0.490 OA
ENDBRANCH   1  24
BRANCH   2  25
ATOM     25  O   LIG A   1      -8.204   1.309 123.096  0.00  0.00    -0.488 OA
ATOM     26  C   LIG A   1      -9.415   1.977 122.748  0.00  0.00    +0.277 C 
ENDBRANCH   2  25
BRANCH   3  27
ATOM     27  O   LIG A   1      -7.171   2.834 125.259  0.00  0.00    -0.491 OA
ATOM     28  C   LIG A   1      -5.767   3.041 125.087  0.00  0.00    +0.277 C 
ENDBRANCH   3  27
TORSDOF 5
ENDMDL
MODEL 3
REMARK VINA RESULT:      -6.9      2.640      9.424
REMARK  Name = NuBBE_1588
REMARK  9 active torsions:
REMARK  status: ('A' for Active; 'I' for Inactive)
REMARK    1  A    between atoms: C_1  and  O_2
REMARK    2  A    between atoms: O_2  and  C_3
REMARK    3  A    between atoms: C_4  and  O_5
REMARK    4  A    between atoms: O_5  and  C_6
REMARK    5  A    between atoms: C_7  and  O_8
REMARK    6  A    between atoms: O_8  and  C_9
REMARK    7  A    between atoms: C_13  and  C_14
REMARK    8  A    between atoms: C_16  and  O_17
REMARK    9  A    between atoms: O_17  and  C_18
REMARK                            x       y       z     vdW  Elec       q    Type
REMARK                         _______ _______ _______ _____ _____    ______ ____
ROOT
ATOM      1  C   LIG A   1      -8.376  -0.270 124.495  0.00  0.00    +0.179 A 
ATOM      2  C   LIG A   1      -7.901   1.071 124.368  0.00  0.00    +0.204 A 
ATOM      3  C   LIG A   1      -7.602   1.819 125.532  0.00  0.00    +0.169 A 
ATOM      4  C   LIG A   1      -7.639   1.194 126.775  0.00  0.00    +0.096 A 
ATOM      5  C   LIG A   1      -8.041  -0.119 126.897  0.00  0.00    +0.146 A 
ATOM      6  O   LIG A   1      -7.949  -0.624 128.171  0.00  0.00    -0.454 OA
ATOM      7  C   LIG A   1      -7.950  -1.996 128.313  0.00  0.00    +0.140 A 
ATOM      8  C   LIG A   1      -8.442  -2.804 127.363  0.00  0.00    +0.098 A 
ATOM      9  C   LIG A   1      -8.466  -0.841 125.792  0.00  0.00    +0.109 A 
ATOM     10  C   LIG A   1      -8.993  -2.195 126.116  0.00  0.00    +0.197 A 
ATOM     11  O   LIG A   1      -9.849  -2.770 125.484  0.00  0.00    -0.287 OA
ENDROOT
BRANCH   7  12
ATOM     12  C   LIG A   1      -7.418  -2.465 129.621  0.00  0.00    +0.025 A 
ATOM     13  C   LIG A   1      -7.648  -1.725 130.815  0.00  0.00    +0.061 A 
ATOM     14  C   LIG A   1      -7.189  -2.170 132.071  0.00  0.00    +0.166 A 
ATOM     15  C   LIG A   1      -6.460  -3.344 132.099  0.00  0.00    +0.208 A 
ATOM     16  O   LIG A   1      -5.902  -3.948 133.184  0.00  0.00    -0.449 OA
ATOM     17  C   LIG A   1      -5.295  -5.108 132.596  0.00  0.00    +0.467 C 
ATOM     18  O   LIG A   1      -5.465  -5.171 131.169  0.00  0.00    -0.452 OA
ATOM     19  C   LIG A   1      -6.200  -4.047 130.945  0.00  0.00    +0.171 A 
ATOM     20  C   LIG A   1      -6.654  -3.637 129.706  0.00  0.00    +0.061 A 
BRANCH  14  21
ATOM     21  O   LIG A   1      -7.488  -1.375 133.144  0.00  0.00    -0.491 OA
ATOM     22  C   LIG A   1      -6.588  -0.292 133.379  0.00  0.00    +0.277 C 
ENDBRANCH  14  21
ENDBRANCH   7  12
BRANCH   1  24
ATOM     23  C   LIG A   1      -7.684  -1.837 122.779  0.00  0.00    +0.277 C 
ATOM     24  O   LIG A   1      -8.706  -1.116 123.460  0.00  0.00    -0.490 OA
ENDBRANCH   1  24
BRANCH   2  25
ATOM     25  O   LIG A   1      -7.823   1.611 123.106  0.00  0.00    -0.488 OA
ATOM     26  C   LIG A   1      -8.949   2.326 122.601  0.00  0.00    +0.277 C 
ENDBRANCH   2  25
BRANCH   3  27
ATOM     27  O   LIG A   1      -7.249   3.143 125.428  0.00  0.00    -0.491 OA
ATOM     28  C   LIG A   1      -5.863   3.428 125.639  0.00  0.00    +0.277 C 
ENDBRANCH   3  27
TORSDOF 5
ENDMDL
MODEL 4
REMARK VINA RESULT:      -6.8      4.930      7.612
REMARK  Name = NuBBE_1588
REMARK  9 active torsions:
REMARK  status: ('A' for Active; 'I' for Inactive)
REMARK    1  A    between atoms: C_1  and  O_2
REMARK    2  A    between atoms: O_2  and  C_3
REMARK    3  A    between atoms: C_4  and  O_5
REMARK    4  A    between atoms: O_5  and  C_6
REMARK    5  A    between atoms: C_7  and  O_8
REMARK    6  A    between atoms: O_8  and  C_9
REMARK    7  A    between atoms: C_13  and  C_14
REMARK    8  A    between atoms: C_16  and  O_17
REMARK    9  A    between atoms: O_17  and  C_18
REMARK                            x       y       z     vdW  Elec       q    Type
REMARK                         _______ _______ _______ _____ _____    ______ ____
ROOT
ATOM      1  C   LIG A   1      -7.169   0.301 130.361  0.00  0.00    +0.179 A 
ATOM      2  C   LIG A   1      -6.242   0.225 129.276  0.00  0.00    +0.204 A 
ATOM      3  C   LIG A   1      -6.444   1.025 128.128  0.00  0.00    +0.169 A 
ATOM      4  C   LIG A   1      -7.459   1.978 128.128  0.00  0.00    +0.096 A 
ATOM      5  C   LIG A   1      -8.321   2.097 129.197  0.00  0.00    +0.146 A 
ATOM      6  O   LIG A   1      -9.218   3.130 129.090  0.00  0.00    -0.454 OA
ATOM      7  C   LIG A   1      -9.835   3.560 130.247  0.00  0.00    +0.140 A 
ATOM      8  C   LIG A   1      -9.919   2.779 131.333  0.00  0.00    +0.098 A 
ATOM      9  C   LIG A   1      -8.233   1.239 130.283  0.00  0.00    +0.109 A 
ATOM     10  C   LIG A   1      -9.319   1.413 131.285  0.00  0.00    +0.197 A 
ATOM     11  O   LIG A   1      -9.759   0.529 131.984  0.00  0.00    -0.287 OA
ENDROOT
BRANCH   7  12
ATOM     12  C   LIG A   1     -10.430   4.919 130.142  0.00  0.00    +0.025 A 
ATOM     13  C   LIG A   1      -9.993   5.837 129.146  0.00  0.00    +0.061 A 
ATOM     14  C   LIG A   1     -10.571   7.114 129.000  0.00  0.00    +0.166 A 
ATOM     15  C   LIG A   1     -11.560   7.468 129.898  0.00  0.00    +0.208 A 
ATOM     16  O   LIG A   1     -12.239   8.646 129.964  0.00  0.00    -0.449 OA
ATOM     17  C   LIG A   1     -13.120   8.418 131.073  0.00  0.00    +0.467 C 
ATOM     18  O   LIG A   1     -12.942   7.125 131.679  0.00  0.00    -0.452 OA
ATOM     19  C   LIG A   1     -11.963   6.602 130.888  0.00  0.00    +0.171 A 
ATOM     20  C   LIG A   1     -11.422   5.339 131.039  0.00  0.00    +0.061 A 
BRANCH  14  21
ATOM     21  O   LIG A   1     -10.072   7.896 127.994  0.00  0.00    -0.491 OA
ATOM     22  C   LIG A   1     -10.818   7.888 126.777  0.00  0.00    +0.277 C 
ENDBRANCH  14  21
ENDBRANCH   7  12
BRANCH   1  24
ATOM     23  C   LIG A   1      -7.477  -1.786 131.556  0.00  0.00    +0.277 C 
ATOM     24  O   LIG A   1      -7.104  -0.412 131.537  0.00  0.00    -0.490 OA
ENDBRANCH   1  24
BRANCH   2  25
ATOM     25  O   LIG A   1      -5.220  -0.690 129.366  0.00  0.00    -0.488 OA
ATOM     26  C   LIG A   1      -5.356  -1.932 128.677  0.00  0.00    +0.277 C 
ENDBRANCH   2  25
BRANCH   3  27
ATOM     27  O   LIG A   1      -5.623   0.883 127.035  0.00  0.00    -0.491 OA
ATOM     28  C   LIG A   1      -5.400   2.073 126.274  0.00  0.00    +0.277 C 
ENDBRANCH   3  27
TORSDOF 5
ENDMDL
MODEL 5
REMARK VINA RESULT:      -6.7      4.483      6.503
REMARK  Name = NuBBE_1588
REMARK  9 active torsions:
REMARK  status: ('A' for Active; 'I' for Inactive)
REMARK    1  A    between atoms: C_1  and  O_2
REMARK    2  A    between atoms: O_2  and  C_3
REMARK    3  A    between atoms: C_4  and  O_5
REMARK    4  A    between atoms: O_5  and  C_6
REMARK    5  A    between atoms: C_7  and  O_8
REMARK    6  A    between atoms: O_8  and  C_9
REMARK    7  A    between atoms: C_13  and  C_14
REMARK    8  A    between atoms: C_16  and  O_17
REMARK    9  A    between atoms: O_17  and  C_18
REMARK                            x       y       z     vdW  Elec       q    Type
REMARK                         _______ _______ _______ _____ _____    ______ ____
ROOT
ATOM      1  C   LIG A   1      -6.123  -2.063 131.891  0.00  0.00    +0.179 A 
ATOM      2  C   LIG A   1      -7.269  -1.522 132.552  0.00  0.00    +0.204 A 
ATOM      3  C   LIG A   1      -8.172  -0.710 131.828  0.00  0.00    +0.169 A 
ATOM      4  C   LIG A   1      -8.012  -0.565 130.453  0.00  0.00    +0.096 A 
ATOM      5  C   LIG A   1      -6.940  -1.134 129.800  0.00  0.00    +0.146 A 
ATOM      6  O   LIG A   1      -6.957  -0.976 128.436  0.00  0.00    -0.454 OA
ATOM      7  C   LIG A   1      -6.166  -1.822 127.687  0.00  0.00    +0.140 A 
ATOM      8  C   LIG A   1      -5.116  -2.464 128.220  0.00  0.00    +0.098 A 
ATOM      9  C   LIG A   1      -5.963  -1.827 130.500  0.00  0.00    +0.109 A 
ATOM     10  C   LIG A   1      -4.808  -2.260 129.667  0.00  0.00    +0.197 A 
ATOM     11  O   LIG A   1      -3.677  -2.388 130.073  0.00  0.00    -0.287 OA
ENDROOT
BRANCH   7  12
ATOM     12  C   LIG A   1      -6.554  -1.895 126.252  0.00  0.00    +0.025 A 
ATOM     13  C   LIG A   1      -5.663  -2.423 125.277  0.00  0.00    +0.061 A 
ATOM     14  C   LIG A   1      -6.025  -2.541 123.919  0.00  0.00    +0.166 A 
ATOM     15  C   LIG A   1      -7.274  -2.079 123.555  0.00  0.00    +0.208 A 
ATOM     16  O   LIG A   1      -7.825  -2.069 122.309  0.00  0.00    -0.449 OA
ATOM     17  C   LIG A   1      -9.113  -1.488 122.561  0.00  0.00    +0.467 C 
ATOM     18  O   LIG A   1      -9.310  -1.127 123.939  0.00  0.00    -0.452 OA
ATOM     19  C   LIG A   1      -8.129  -1.532 124.484  0.00  0.00    +0.171 A 
ATOM     20  C   LIG A   1      -7.801  -1.421 125.822  0.00  0.00    +0.061 A 
BRANCH  14  21
ATOM     21  O   LIG A   1      -5.084  -3.079 123.084  0.00  0.00    -0.491 OA
ATOM     22  C   LIG A   1      -4.404  -4.232 123.581  0.00  0.00    +0.277 C 
ENDBRANCH  14  21
ENDBRANCH   7  12
BRANCH   1  24
ATOM     23  C   LIG A   1      -4.236  -2.316 133.394  0.00  0.00    +0.277 C 
ATOM     24  O   LIG A   1      -5.161  -2.866 132.461  0.00  0.00    -0.490 OA
ENDBRANCH   1  24
BRANCH   2  25
ATOM     25  O   LIG A   1      -7.406  -1.757 133.899  0.00  0.00    -0.488 OA
ATOM     26  C   LIG A   1      -8.114  -2.922 134.319  0.00  0.00    +0.277 C 
ENDBRANCH   2  25
BRANCH   3  27
ATOM     27  O   LIG A   1      -9.217  -0.095 132.475  0.00  0.00    -0.491 OA
ATOM     28  C   LIG A   1      -9.556   1.209 131.997  0.00  0.00    +0.277 C 
ENDBRANCH   3  27
TORSDOF 5
ENDMDL
MODEL 6
REMARK VINA RESULT:      -6.7      4.983      8.066
REMARK  Name = NuBBE_1588
REMARK  9 active torsions:
REMARK  status: ('A' for Active; 'I' for Inactive)
REMARK    1  A    between atoms: C_1  and  O_2
REMARK    2  A    between atoms: O_2  and  C_3
REMARK    3  A    between atoms: C_4  and  O_5
REMARK    4  A    between atoms: O_5  and  C_6
REMARK    5  A    between atoms: C_7  and  O_8
REMARK    6  A    between atoms: O_8  and  C_9
REMARK    7  A    between atoms: C_13  and  C_14
REMARK    8  A    between atoms: C_16  and  O_17
REMARK    9  A    between atoms: O_17  and  C_18
REMARK                            x       y       z     vdW  Elec       q    Type
REMARK                         _______ _______ _______ _____ _____    ______ ____
ROOT
ATOM      1  C   LIG A   1      -5.028   2.807 128.518  0.00  0.00    +0.179 A 
ATOM      2  C   LIG A   1      -4.493   3.082 127.221  0.00  0.00    +0.204 A 
ATOM      3  C   LIG A   1      -5.309   3.704 126.248  0.00  0.00    +0.169 A 
ATOM      4  C   LIG A   1      -6.570   4.170 126.608  0.00  0.00    +0.096 A 
ATOM      5  C   LIG A   1      -7.069   3.959 127.876  0.00  0.00    +0.146 A 
ATOM      6  O   LIG A   1      -8.289   4.543 128.109  0.00  0.00    -0.454 OA
ATOM      7  C   LIG A   1      -8.670   4.719 129.424  0.00  0.00    +0.140 A 
ATOM      8  C   LIG A   1      -8.131   3.997 130.417  0.00  0.00    +0.098 A 
ATOM      9  C   LIG A   1      -6.349   3.237 128.815  0.00  0.00    +0.109 A 
ATOM     10  C   LIG A   1      -7.084   2.986 130.085  0.00  0.00    +0.197 A 
ATOM     11  O   LIG A   1      -6.926   2.018 130.792  0.00  0.00    -0.287 OA
ENDROOT
BRANCH   7  12
ATOM     12  C   LIG A   1      -9.753   5.722 129.607  0.00  0.00    +0.025 A 
ATOM     13  C   LIG A   1     -10.056   6.670 128.590  0.00  0.00    +0.061 A 
ATOM     14  C   LIG A   1     -11.104   7.602 128.724  0.00  0.00    +0.166 A 
ATOM     15  C   LIG A   1     -11.811   7.594 129.911  0.00  0.00    +0.208 A 
ATOM     16  O   LIG A   1     -12.840   8.410 130.271  0.00  0.00    -0.449 OA
ATOM     17  C   LIG A   1     -13.156   7.925 131.584  0.00  0.00    +0.467 C 
ATOM     18  O   LIG A   1     -12.300   6.851 132.011  0.00  0.00    -0.452 OA
ATOM     19  C   LIG A   1     -11.501   6.706 130.916  0.00  0.00    +0.171 A 
ATOM     20  C   LIG A   1     -10.488   5.774 130.800  0.00  0.00    +0.061 A 
BRANCH  14  21
ATOM     21  O   LIG A   1     -11.302   8.450 127.668  0.00  0.00    -0.491 OA
ATOM     22  C   LIG A   1     -11.079   7.889 126.375  0.00  0.00    +0.277 C 
ENDBRANCH  14  21
ENDBRANCH   7  12
BRANCH   1  24
ATOM     23  C   LIG A   1      -4.236   0.792 129.610  0.00  0.00    +0.277 C 
ATOM     24  O   LIG A   1      -4.359   2.210 129.562  0.00  0.00    -0.490 OA
ENDBRANCH   1  24
BRANCH   2  25
ATOM     25  O   LIG A   1      -3.215   2.656 126.948  0.00  0.00    -0.488 OA
ATOM     26  C   LIG A   1      -2.133   3.554 127.186  0.00  0.00    +0.277 C 
ENDBRANCH   2  25
BRANCH   3  27
ATOM     27  O   LIG A   1      -4.844   3.875 124.966  0.00  0.00    -0.491 OA
ATOM     28  C   LIG A   1      -5.847   3.918 123.948  0.00  0.00    +0.277 C 
ENDBRANCH   3  27
TORSDOF 5
ENDMDL
MODEL 7
REMARK VINA RESULT:      -6.7      3.598      6.805
REMARK  Name = NuBBE_1588
REMARK  9 active torsions:
REMARK  status: ('A' for Active; 'I' for Inactive)
REMARK    1  A    between atoms: C_1  and  O_2
REMARK    2  A    between atoms: O_2  and  C_3
REMARK    3  A    between atoms: C_4  and  O_5
REMARK    4  A    between atoms: O_5  and  C_6
REMARK    5  A    between atoms: C_7  and  O_8
REMARK    6  A    between atoms: O_8  and  C_9
REMARK    7  A    between atoms: C_13  and  C_14
REMARK    8  A    between atoms: C_16  and  O_17
REMARK    9  A    between atoms: O_17  and  C_18
REMARK                            x       y       z     vdW  Elec       q    Type
REMARK                         _______ _______ _______ _____ _____    ______ ____
ROOT
ATOM      1  C   LIG A   1      -8.393   3.933 131.185  0.00  0.00    +0.179 A 
ATOM      2  C   LIG A   1      -8.839   5.276 130.990  0.00  0.00    +0.204 A 
ATOM      3  C   LIG A   1      -8.927   5.799 129.679  0.00  0.00    +0.169 A 
ATOM      4  C   LIG A   1      -8.716   4.957 128.591  0.00  0.00    +0.096 A 
ATOM      5  C   LIG A   1      -8.343   3.643 128.773  0.00  0.00    +0.146 A 
ATOM      6  O   LIG A   1      -8.250   2.914 127.613  0.00  0.00    -0.454 OA
ATOM      7  C   LIG A   1      -8.272   1.539 127.722  0.00  0.00    +0.140 A 
ATOM      8  C   LIG A   1      -7.961   0.917 128.868  0.00  0.00    +0.098 A 
ATOM      9  C   LIG A   1      -8.119   3.133 130.043  0.00  0.00    +0.109 A 
ATOM     10  C   LIG A   1      -7.592   1.741 130.057  0.00  0.00    +0.197 A 
ATOM     11  O   LIG A   1      -6.866   1.289 130.911  0.00  0.00    -0.287 OA
ENDROOT
BRANCH   7  12
ATOM     12  C   LIG A   1      -8.607   0.841 126.451  0.00  0.00    +0.025 A 
ATOM     13  C   LIG A   1      -9.033   1.567 125.305  0.00  0.00    +0.061 A 
ATOM     14  C   LIG A   1      -9.317   0.932 124.079  0.00  0.00    +0.166 A 
ATOM     15  C   LIG A   1      -9.209  -0.445 124.040  0.00  0.00    +0.208 A 
ATOM     16  O   LIG A   1      -9.452  -1.267 122.982  0.00  0.00    -0.449 OA
ATOM     17  C   LIG A   1      -9.167  -2.558 123.540  0.00  0.00    +0.467 C 
ATOM     18  O   LIG A   1      -8.788  -2.503 124.926  0.00  0.00    -0.452 OA
ATOM     19  C   LIG A   1      -8.834  -1.160 125.154  0.00  0.00    +0.171 A 
ATOM     20  C   LIG A   1      -8.536  -0.557 126.361  0.00  0.00    +0.061 A 
BRANCH  14  21
ATOM     21  O   LIG A   1      -9.703   1.745 123.048  0.00  0.00    -0.491 OA
ATOM     22  C   LIG A   1      -8.725   2.684 122.602  0.00  0.00    +0.277 C 
ENDBRANCH  14  21
ENDBRANCH   7  12
BRANCH   1  24
ATOM     23  C   LIG A   1      -9.388   2.672 133.002  0.00  0.00    +0.277 C 
ATOM     24  O   LIG A   1      -8.257   3.289 132.394  0.00  0.00    -0.490 OA
ENDBRANCH   1  24
BRANCH   2  25
ATOM     25  O   LIG A   1      -9.096   6.037 132.106  0.00  0.00    -0.488 OA
ATOM     26  C   LIG A   1     -10.446   6.167 132.545  0.00  0.00    +0.277 C 
ENDBRANCH   2  25
BRANCH   3  27
ATOM     27  O   LIG A   1      -9.249   7.121 129.484  0.00  0.00    -0.491 OA
ATOM     28  C   LIG A   1     -10.483   7.359 128.802  0.00  0.00    +0.277 C 
ENDBRANCH   3  27
TORSDOF 5
ENDMDL
MODEL 8
REMARK VINA RESULT:      -6.6      3.334      6.640
REMARK  Name = NuBBE_1588
REMARK  9 active torsions:
REMARK  status: ('A' for Active; 'I' for Inactive)
REMARK    1  A    between atoms: C_1  and  O_2
REMARK    2  A    between atoms: O_2  and  C_3
REMARK    3  A    between atoms: C_4  and  O_5
REMARK    4  A    between atoms: O_5  and  C_6
REMARK    5  A    between atoms: C_7  and  O_8
REMARK    6  A    between atoms: O_8  and  C_9
REMARK    7  A    between atoms: C_13  and  C_14
REMARK    8  A    between atoms: C_16  and  O_17
REMARK    9  A    between atoms: O_17  and  C_18
REMARK                            x       y       z     vdW  Elec       q    Type
REMARK                         _______ _______ _______ _____ _____    ______ ____
ROOT
ATOM      1  C   LIG A   1      -8.182  -0.045 124.175  0.00  0.00    +0.179 A 
ATOM      2  C   LIG A   1      -8.428  -1.319 124.773  0.00  0.00    +0.204 A 
ATOM      3  C   LIG A   1      -7.562  -1.792 125.787  0.00  0.00    +0.169 A 
ATOM      4  C   LIG A   1      -6.570  -0.952 126.286  0.00  0.00    +0.096 A 
ATOM      5  C   LIG A   1      -6.366   0.302 125.752  0.00  0.00    +0.146 A 
ATOM      6  O   LIG A   1      -5.409   1.045 126.397  0.00  0.00    -0.454 OA
ATOM      7  C   LIG A   1      -5.417   2.409 126.191  0.00  0.00    +0.140 A 
ATOM      8  C   LIG A   1      -6.005   2.958 125.119  0.00  0.00    +0.098 A 
ATOM      9  C   LIG A   1      -7.112   0.746 124.669  0.00  0.00    +0.109 A 
ATOM     10  C   LIG A   1      -6.676   2.063 124.130  0.00  0.00    +0.197 A 
ATOM     11  O   LIG A   1      -6.778   2.401 122.973  0.00  0.00    -0.287 OA
ENDROOT
BRANCH   7  12
ATOM     12  C   LIG A   1      -4.672   3.177 127.225  0.00  0.00    +0.025 A 
ATOM     13  C   LIG A   1      -4.574   2.702 128.563  0.00  0.00    +0.061 A 
ATOM     14  C   LIG A   1      -3.839   3.391 129.550  0.00  0.00    +0.166 A 
ATOM     15  C   LIG A   1      -3.245   4.582 129.180  0.00  0.00    +0.208 A 
ATOM     16  O   LIG A   1      -2.513   5.422 129.962  0.00  0.00    -0.449 OA
ATOM     17  C   LIG A   1      -2.168   6.463 129.035  0.00  0.00    +0.467 C 
ATOM     18  O   LIG A   1      -2.720   6.255 127.723  0.00  0.00    -0.452 OA
ATOM     19  C   LIG A   1      -3.366   5.069 127.898  0.00  0.00    +0.171 A 
ATOM     20  C   LIG A   1      -4.067   4.402 126.912  0.00  0.00    +0.061 A 
BRANCH  14  21
ATOM     21  O   LIG A   1      -3.811   2.822 130.794  0.00  0.00    -0.491 OA
ATOM     22  C   LIG A   1      -4.398   1.525 130.894  0.00  0.00    +0.277 C 
ENDBRANCH  14  21
ENDBRANCH   7  12
BRANCH   1  24
ATOM     23  C   LIG A   1     -10.140   1.227 123.516  0.00  0.00    +0.277 C 
ATOM     24  O   LIG A   1      -8.934   0.545 123.183  0.00  0.00    -0.490 OA
ENDBRANCH   1  24
BRANCH   2  25
ATOM     25  O   LIG A   1      -9.466  -2.073 124.280  0.00  0.00    -0.488 OA
ATOM     26  C   LIG A   1      -9.198  -2.992 123.223  0.00  0.00    +0.277 C 
ENDBRANCH   2  25
BRANCH   3  27
ATOM     27  O   LIG A   1      -7.722  -3.059 126.294  0.00  0.00    -0.491 OA
ATOM     28  C   LIG A   1      -8.631  -3.172 127.392  0.00  0.00    +0.277 C 
ENDBRANCH   3  27
TORSDOF 5
ENDMDL
MODEL 9
REMARK VINA RESULT:      -6.6      3.559      6.625
REMARK  Name = NuBBE_1588
REMARK  9 active torsions:
REMARK  status: ('A' for Active; 'I' for Inactive)
REMARK    1  A    between atoms: C_1  and  O_2
REMARK    2  A    between atoms: O_2  and  C_3
REMARK    3  A    between atoms: C_4  and  O_5
REMARK    4  A    between atoms: O_5  and  C_6
REMARK    5  A    between atoms: C_7  and  O_8
REMARK    6  A    between atoms: O_8  and  C_9
REMARK    7  A    between atoms: C_13  and  C_14
REMARK    8  A    between atoms: C_16  and  O_17
REMARK    9  A    between atoms: O_17  and  C_18
REMARK                            x       y       z     vdW  Elec       q    Type
REMARK                         _______ _______ _______ _____ _____    ______ ____
ROOT
ATOM      1  C   LIG A   1      -8.275   1.899 132.156  0.00  0.00    +0.179 A 
ATOM      2  C   LIG A   1      -9.112   3.022 132.439  0.00  0.00    +0.204 A 
ATOM      3  C   LIG A   1      -9.601   3.813 131.374  0.00  0.00    +0.169 A 
ATOM      4  C   LIG A   1      -9.381   3.406 130.062  0.00  0.00    +0.096 A 
ATOM      5  C   LIG A   1      -8.623   2.289 129.783  0.00  0.00    +0.146 A 
ATOM      6  O   LIG A   1      -8.559   1.964 128.451  0.00  0.00    -0.454 OA
ATOM      7  C   LIG A   1      -8.169   0.681 128.126  0.00  0.00    +0.140 A 
ATOM      8  C   LIG A   1      -7.474  -0.083 128.981  0.00  0.00    +0.098 A 
ATOM      9  C   LIG A   1      -8.018   1.565 130.800  0.00  0.00    +0.109 A 
ATOM     10  C   LIG A   1      -7.127   0.473 130.323  0.00  0.00    +0.197 A 
ATOM     11  O   LIG A   1      -6.148   0.076 130.912  0.00  0.00    -0.287 OA
ENDROOT
BRANCH   7  12
ATOM     12  C   LIG A   1      -8.538   0.273 126.744  0.00  0.00    +0.025 A 
ATOM     13  C   LIG A   1      -8.320  -1.058 126.289  0.00  0.00    +0.061 A 
ATOM     14  C   LIG A   1      -8.699  -1.479 124.998  0.00  0.00    +0.166 A 
ATOM     15  C   LIG A   1      -9.256  -0.532 124.162  0.00  0.00    +0.208 A 
ATOM     16  O   LIG A   1      -9.674  -0.702 122.877  0.00  0.00    -0.449 OA
ATOM     17  C   LIG A   1     -10.154   0.610 122.547  0.00  0.00    +0.467 C 
ATOM     18  O   LIG A   1      -9.993   1.556 123.618  0.00  0.00    -0.452 OA
ATOM     19  C   LIG A   1      -9.437   0.767 124.579  0.00  0.00    +0.171 A 
ATOM     20  C   LIG A   1      -9.087   1.197 125.845  0.00  0.00    +0.061 A 
BRANCH  14  21
ATOM     21  O   LIG A   1      -8.448  -2.788 124.688  0.00  0.00    -0.491 OA
ATOM     22  C   LIG A   1      -7.142  -3.063 124.182  0.00  0.00    +0.277 C 
ENDBRANCH  14  21
ENDBRANCH   7  12
BRANCH   1  24
ATOM     23  C   LIG A   1      -6.560   1.426 133.805  0.00  0.00    +0.277 C 
ATOM     24  O   LIG A   1      -7.726   1.041 133.083  0.00  0.00    -0.490 OA
ENDBRANCH   1  24
BRANCH   2  25
ATOM     25  O   LIG A   1      -9.347   3.334 133.758  0.00  0.00    -0.488 OA
ATOM     26  C   LIG A   1      -8.478   4.262 134.404  0.00  0.00    +0.277 C 
ENDBRANCH   2  25
BRANCH   3  27
ATOM     27  O   LIG A   1     -10.317   4.957 131.637  0.00  0.00    -0.491 OA
ATOM     28  C   LIG A   1     -11.184   5.395 130.588  0.00  0.00    +0.277 C 
ENDBRANCH   3  27
TORSDOF 5
ENDMDL
