MODEL 1
REMARK VINA RESULT:      -7.5      0.000      0.000
REMARK  Name = NuBBE_394
REMARK  2 active torsions:
REMARK  status: ('A' for Active; 'I' for Inactive)
REMARK    1  A    between atoms: C_1  and  C_2
REMARK    2  A    between atoms: C_4  and  O_5
REMARK                            x       y       z     vdW  Elec       q    Type
REMARK                         _______ _______ _______ _____ _____    ______ ____
ROOT
ATOM      1  C   LIG A   1     -13.289   9.607 128.761  0.00  0.00    +0.044 C 
ATOM      2  C   LIG A   1     -12.243   8.534 128.862  0.00  0.00    -0.046 A 
ATOM      3  C   LIG A   1     -11.547   8.087 127.736  0.00  0.00    +0.049 A 
ATOM      4  C   LIG A   1     -10.575   7.085 127.854  0.00  0.00    +0.129 A 
ATOM      5  C   LIG A   1     -11.953   7.965 130.103  0.00  0.00    +0.016 A 
ATOM      6  C   LIG A   1     -10.979   6.960 130.221  0.00  0.00    +0.037 A 
ATOM      7  C   LIG A   1     -10.279   6.509 129.100  0.00  0.00    +0.074 A 
ATOM      8  C   LIG A   1      -9.252   5.442 129.266  0.00  0.00    +0.198 C 
ATOM      9  C   LIG A   1      -8.999   4.884 130.612  0.00  0.00    +0.033 A 
ATOM     10  C   LIG A   1      -9.706   5.345 131.718  0.00  0.00    +0.033 A 
ATOM     11  C   LIG A   1     -10.719   6.399 131.562  0.00  0.00    +0.195 C 
ATOM     12  O   LIG A   1     -11.341   6.804 132.537  0.00  0.00    -0.287 OA
ATOM     13  C   LIG A   1      -9.457   4.809 132.989  0.00  0.00    +0.012 A 
ATOM     14  C   LIG A   1      -8.498   3.809 133.151  0.00  0.00    +0.001 A 
ATOM     15  C   LIG A   1      -7.787   3.344 132.047  0.00  0.00    +0.001 A 
ATOM     16  C   LIG A   1      -8.035   3.878 130.780  0.00  0.00    +0.012 A 
ATOM     17  O   LIG A   1      -8.601   4.999 128.328  0.00  0.00    -0.286 OA
ENDROOT
BRANCH   4  18
ATOM     18  O   LIG A   1      -9.924   6.683 126.723  0.00  0.00    -0.506 OA
ATOM     19  H   LIG A   1      -8.986   6.928 126.760  0.00  0.00    +0.292 HD
ENDBRANCH   4  18
TORSDOF 1
ENDMDL
MODEL 2
REMARK VINA RESULT:      -7.2      9.568     10.796
REMARK  Name = NuBBE_394
REMARK  2 active torsions:
REMARK  status: ('A' for Active; 'I' for Inactive)
REMARK    1  A    between atoms: C_1  and  C_2
REMARK    2  A    between atoms: C_4  and  O_5
REMARK                            x       y       z     vdW  Elec       q    Type
REMARK                         _______ _______ _______ _____ _____    ______ ____
ROOT
ATOM      1  C   LIG A   1      -7.211  -3.180 131.872  0.00  0.00    +0.044 C 
ATOM      2  C   LIG A   1      -6.961  -2.810 130.439  0.00  0.00    -0.046 A 
ATOM      3  C   LIG A   1      -5.829  -2.083 130.060  0.00  0.00    +0.049 A 
ATOM      4  C   LIG A   1      -5.616  -1.748 128.716  0.00  0.00    +0.129 A 
ATOM      5  C   LIG A   1      -7.873  -3.196 129.455  0.00  0.00    +0.016 A 
ATOM      6  C   LIG A   1      -7.660  -2.861 128.108  0.00  0.00    +0.037 A 
ATOM      7  C   LIG A   1      -6.530  -2.134 127.723  0.00  0.00    +0.074 A 
ATOM      8  C   LIG A   1      -6.338  -1.799 126.284  0.00  0.00    +0.198 C 
ATOM      9  C   LIG A   1      -7.347  -2.240 125.297  0.00  0.00    +0.033 A 
ATOM     10  C   LIG A   1      -8.467  -2.962 125.697  0.00  0.00    +0.033 A 
ATOM     11  C   LIG A   1      -8.661  -3.298 127.115  0.00  0.00    +0.195 C 
ATOM     12  O   LIG A   1      -9.648  -3.935 127.468  0.00  0.00    -0.287 OA
ATOM     13  C   LIG A   1      -9.417  -3.375 124.753  0.00  0.00    +0.012 A 
ATOM     14  C   LIG A   1      -9.243  -3.063 123.404  0.00  0.00    +0.001 A 
ATOM     15  C   LIG A   1      -8.124  -2.340 122.998  0.00  0.00    +0.001 A 
ATOM     16  C   LIG A   1      -7.177  -1.929 123.939  0.00  0.00    +0.012 A 
ATOM     17  O   LIG A   1      -5.372  -1.166 125.876  0.00  0.00    -0.286 OA
ENDROOT
BRANCH   4  18
ATOM     18  O   LIG A   1      -4.495  -1.036 128.401  0.00  0.00    -0.506 OA
ATOM     19  H   LIG A   1      -3.703  -1.455 128.775  0.00  0.00    +0.292 HD
ENDBRANCH   4  18
TORSDOF 1
ENDMDL
MODEL 3
REMARK VINA RESULT:      -7.1      1.070      5.800
REMARK  Name = NuBBE_394
REMARK  2 active torsions:
REMARK  status: ('A' for Active; 'I' for Inactive)
REMARK    1  A    between atoms: C_1  and  C_2
REMARK    2  A    between atoms: C_4  and  O_5
REMARK                            x       y       z     vdW  Elec       q    Type
REMARK                         _______ _______ _______ _____ _____    ______ ____
ROOT
ATOM      1  C   LIG A   1      -6.640   2.721 130.244  0.00  0.00    +0.044 C 
ATOM      2  C   LIG A   1      -7.767   3.660 130.563  0.00  0.00    -0.046 A 
ATOM      3  C   LIG A   1      -8.307   3.742 131.849  0.00  0.00    +0.049 A 
ATOM      4  C   LIG A   1      -9.359   4.626 132.123  0.00  0.00    +0.129 A 
ATOM      5  C   LIG A   1      -8.293   4.475 129.558  0.00  0.00    +0.016 A 
ATOM      6  C   LIG A   1      -9.347   5.361 129.832  0.00  0.00    +0.037 A 
ATOM      7  C   LIG A   1      -9.892   5.447 131.116  0.00  0.00    +0.074 A 
ATOM      8  C   LIG A   1     -11.009   6.400 131.368  0.00  0.00    +0.198 C 
ATOM      9  C   LIG A   1     -11.517   7.231 130.255  0.00  0.00    +0.033 A 
ATOM     10  C   LIG A   1     -10.964   7.132 128.982  0.00  0.00    +0.033 A 
ATOM     11  C   LIG A   1      -9.860   6.195 128.727  0.00  0.00    +0.195 C 
ATOM     12  O   LIG A   1      -9.373   6.108 127.605  0.00  0.00    -0.287 OA
ATOM     13  C   LIG A   1     -11.453   7.925 127.935  0.00  0.00    +0.012 A 
ATOM     14  C   LIG A   1     -12.500   8.818 128.165  0.00  0.00    +0.001 A 
ATOM     15  C   LIG A   1     -13.058   8.921 129.437  0.00  0.00    +0.001 A 
ATOM     16  C   LIG A   1     -12.570   8.132 130.481  0.00  0.00    +0.012 A 
ATOM     17  O   LIG A   1     -11.534   6.529 132.467  0.00  0.00    -0.286 OA
ENDROOT
BRANCH   4  18
ATOM     18  O   LIG A   1      -9.851   4.665 133.395  0.00  0.00    -0.506 OA
ATOM     19  H   LIG A   1      -9.133   4.601 134.045  0.00  0.00    +0.292 HD
ENDBRANCH   4  18
TORSDOF 1
ENDMDL
MODEL 4
REMARK VINA RESULT:      -7.0      0.835      4.991
REMARK  Name = NuBBE_394
REMARK  2 active torsions:
REMARK  status: ('A' for Active; 'I' for Inactive)
REMARK    1  A    between atoms: C_1  and  C_2
REMARK    2  A    between atoms: C_4  and  O_5
REMARK                            x       y       z     vdW  Elec       q    Type
REMARK                         _______ _______ _______ _____ _____    ______ ____
ROOT
ATOM      1  C   LIG A   1      -7.356   3.021 132.389  0.00  0.00    +0.044 C 
ATOM      2  C   LIG A   1      -8.023   3.890 131.363  0.00  0.00    -0.046 A 
ATOM      3  C   LIG A   1      -7.649   3.849 130.018  0.00  0.00    +0.049 A 
ATOM      4  C   LIG A   1      -8.286   4.670 129.078  0.00  0.00    +0.129 A 
ATOM      5  C   LIG A   1      -9.042   4.762 131.753  0.00  0.00    +0.016 A 
ATOM      6  C   LIG A   1      -9.681   5.585 130.811  0.00  0.00    +0.037 A 
ATOM      7  C   LIG A   1      -9.311   5.549 129.464  0.00  0.00    +0.074 A 
ATOM      8  C   LIG A   1     -10.013   6.436 128.494  0.00  0.00    +0.198 C 
ATOM      9  C   LIG A   1     -11.083   7.336 128.979  0.00  0.00    +0.033 A 
ATOM     10  C   LIG A   1     -11.437   7.360 130.324  0.00  0.00    +0.033 A 
ATOM     11  C   LIG A   1     -10.750   6.485 131.286  0.00  0.00    +0.195 C 
ATOM     12  O   LIG A   1     -11.063   6.507 132.471  0.00  0.00    -0.287 OA
ATOM     13  C   LIG A   1     -12.452   8.217 130.772  0.00  0.00    +0.012 A 
ATOM     14  C   LIG A   1     -13.112   9.050 129.869  0.00  0.00    +0.001 A 
ATOM     15  C   LIG A   1     -12.761   9.030 128.521  0.00  0.00    +0.001 A 
ATOM     16  C   LIG A   1     -11.749   8.176 128.074  0.00  0.00    +0.012 A 
ATOM     17  O   LIG A   1      -9.742   6.456 127.300  0.00  0.00    -0.286 OA
ENDROOT
BRANCH   4  18
ATOM     18  O   LIG A   1      -7.882   4.591 127.776  0.00  0.00    -0.506 OA
ATOM     19  H   LIG A   1      -7.139   5.193 127.609  0.00  0.00    +0.292 HD
ENDBRANCH   4  18
TORSDOF 1
ENDMDL
MODEL 5
REMARK VINA RESULT:      -6.9      7.571      9.298
REMARK  Name = NuBBE_394
REMARK  2 active torsions:
REMARK  status: ('A' for Active; 'I' for Inactive)
REMARK    1  A    between atoms: C_1  and  C_2
REMARK    2  A    between atoms: C_4  and  O_5
REMARK                            x       y       z     vdW  Elec       q    Type
REMARK                         _______ _______ _______ _____ _____    ______ ____
ROOT
ATOM      1  C   LIG A   1      -4.657   4.128 125.993  0.00  0.00    +0.044 C 
ATOM      2  C   LIG A   1      -5.669   3.245 125.323  0.00  0.00    -0.046 A 
ATOM      3  C   LIG A   1      -6.654   3.771 124.483  0.00  0.00    +0.049 A 
ATOM      4  C   LIG A   1      -7.588   2.927 123.868  0.00  0.00    +0.129 A 
ATOM      5  C   LIG A   1      -5.633   1.865 125.538  0.00  0.00    +0.016 A 
ATOM      6  C   LIG A   1      -6.570   1.020 124.922  0.00  0.00    +0.037 A 
ATOM      7  C   LIG A   1      -7.557   1.539 124.081  0.00  0.00    +0.074 A 
ATOM      8  C   LIG A   1      -8.532   0.609 123.445  0.00  0.00    +0.198 C 
ATOM      9  C   LIG A   1      -8.434  -0.841 123.720  0.00  0.00    +0.033 A 
ATOM     10  C   LIG A   1      -7.446  -1.341 124.560  0.00  0.00    +0.033 A 
ATOM     11  C   LIG A   1      -6.479  -0.429 125.190  0.00  0.00    +0.195 C 
ATOM     12  O   LIG A   1      -5.608  -0.871 125.930  0.00  0.00    -0.287 OA
ATOM     13  C   LIG A   1      -7.363  -2.717 124.813  0.00  0.00    +0.012 A 
ATOM     14  C   LIG A   1      -8.274  -3.593 124.222  0.00  0.00    +0.001 A 
ATOM     15  C   LIG A   1      -9.266  -3.097 123.379  0.00  0.00    +0.001 A 
ATOM     16  C   LIG A   1      -9.349  -1.725 123.127  0.00  0.00    +0.012 A 
ATOM     17  O   LIG A   1      -9.422   0.994 122.698  0.00  0.00    -0.286 OA
ENDROOT
BRANCH   4  18
ATOM     18  O   LIG A   1      -8.530   3.492 123.058  0.00  0.00    -0.506 OA
ATOM     19  H   LIG A   1      -8.746   2.903 122.317  0.00  0.00    +0.292 HD
ENDBRANCH   4  18
TORSDOF 1
ENDMDL
MODEL 6
REMARK VINA RESULT:      -6.9      7.597      8.689
REMARK  Name = NuBBE_394
REMARK  2 active torsions:
REMARK  status: ('A' for Active; 'I' for Inactive)
REMARK    1  A    between atoms: C_1  and  C_2
REMARK    2  A    between atoms: C_4  and  O_5
REMARK                            x       y       z     vdW  Elec       q    Type
REMARK                         _______ _______ _______ _____ _____    ______ ____
ROOT
ATOM      1  C   LIG A   1      -7.359   3.307 123.576  0.00  0.00    +0.044 C 
ATOM      2  C   LIG A   1      -7.817   1.945 124.012  0.00  0.00    -0.046 A 
ATOM      3  C   LIG A   1      -8.606   1.142 123.184  0.00  0.00    +0.049 A 
ATOM      4  C   LIG A   1      -9.022  -0.126 123.612  0.00  0.00    +0.129 A 
ATOM      5  C   LIG A   1      -7.452   1.462 125.271  0.00  0.00    +0.016 A 
ATOM      6  C   LIG A   1      -7.869   0.192 125.699  0.00  0.00    +0.037 A 
ATOM      7  C   LIG A   1      -8.658  -0.617 124.877  0.00  0.00    +0.074 A 
ATOM      8  C   LIG A   1      -9.079  -1.959 125.367  0.00  0.00    +0.198 C 
ATOM      9  C   LIG A   1      -8.656  -2.404 126.713  0.00  0.00    +0.033 A 
ATOM     10  C   LIG A   1      -7.871  -1.586 127.519  0.00  0.00    +0.033 A 
ATOM     11  C   LIG A   1      -7.450  -0.261 127.041  0.00  0.00    +0.195 C 
ATOM     12  O   LIG A   1      -6.758   0.459 127.752  0.00  0.00    -0.287 OA
ATOM     13  C   LIG A   1      -7.476  -2.018 128.792  0.00  0.00    +0.012 A 
ATOM     14  C   LIG A   1      -7.868  -3.274 129.257  0.00  0.00    +0.001 A 
ATOM     15  C   LIG A   1      -8.654  -4.097 128.454  0.00  0.00    +0.001 A 
ATOM     16  C   LIG A   1      -9.048  -3.666 127.185  0.00  0.00    +0.012 A 
ATOM     17  O   LIG A   1      -9.769  -2.720 124.701  0.00  0.00    -0.286 OA
ENDROOT
BRANCH   4  18
ATOM     18  O   LIG A   1      -9.792  -0.870 122.766  0.00  0.00    -0.506 OA
ATOM     19  H   LIG A   1     -10.676  -1.013 123.140  0.00  0.00    +0.292 HD
ENDBRANCH   4  18
TORSDOF 1
ENDMDL
MODEL 7
REMARK VINA RESULT:      -6.7      9.623     11.047
REMARK  Name = NuBBE_394
REMARK  2 active torsions:
REMARK  status: ('A' for Active; 'I' for Inactive)
REMARK    1  A    between atoms: C_1  and  C_2
REMARK    2  A    between atoms: C_4  and  O_5
REMARK                            x       y       z     vdW  Elec       q    Type
REMARK                         _______ _______ _______ _____ _____    ______ ____
ROOT
ATOM      1  C   LIG A   1      -4.031  -1.161 130.107  0.00  0.00    +0.044 C 
ATOM      2  C   LIG A   1      -5.180  -1.663 129.282  0.00  0.00    -0.046 A 
ATOM      3  C   LIG A   1      -6.253  -2.343 129.864  0.00  0.00    +0.049 A 
ATOM      4  C   LIG A   1      -7.315  -2.803 129.074  0.00  0.00    +0.129 A 
ATOM      5  C   LIG A   1      -5.186  -1.451 127.902  0.00  0.00    +0.016 A 
ATOM      6  C   LIG A   1      -6.250  -1.912 127.110  0.00  0.00    +0.037 A 
ATOM      7  C   LIG A   1      -7.326  -2.592 127.686  0.00  0.00    +0.074 A 
ATOM      8  C   LIG A   1      -8.437  -3.065 126.813  0.00  0.00    +0.198 C 
ATOM      9  C   LIG A   1      -8.375  -2.805 125.358  0.00  0.00    +0.033 A 
ATOM     10  C   LIG A   1      -7.296  -2.126 124.801  0.00  0.00    +0.033 A 
ATOM     11  C   LIG A   1      -6.197  -1.656 125.657  0.00  0.00    +0.195 C 
ATOM     12  O   LIG A   1      -5.247  -1.058 125.166  0.00  0.00    -0.287 OA
ATOM     13  C   LIG A   1      -7.248  -1.886 123.421  0.00  0.00    +0.012 A 
ATOM     14  C   LIG A   1      -8.285  -2.326 122.598  0.00  0.00    +0.001 A 
ATOM     15  C   LIG A   1      -9.368  -3.007 123.151  0.00  0.00    +0.001 A 
ATOM     16  C   LIG A   1      -9.416  -3.246 124.526  0.00  0.00    +0.012 A 
ATOM     17  O   LIG A   1      -9.410  -3.666 127.249  0.00  0.00    -0.286 OA
ENDROOT
BRANCH   4  18
ATOM     18  O   LIG A   1      -8.338  -3.463 129.692  0.00  0.00    -0.506 OA
ATOM     19  H   LIG A   1      -9.159  -3.380 129.182  0.00  0.00    +0.292 HD
ENDBRANCH   4  18
TORSDOF 1
ENDMDL
MODEL 8
REMARK VINA RESULT:      -6.7      7.661      9.463
REMARK  Name = NuBBE_394
REMARK  2 active torsions:
REMARK  status: ('A' for Active; 'I' for Inactive)
REMARK    1  A    between atoms: C_1  and  C_2
REMARK    2  A    between atoms: C_4  and  O_5
REMARK                            x       y       z     vdW  Elec       q    Type
REMARK                         _______ _______ _______ _____ _____    ______ ____
ROOT
ATOM      1  C   LIG A   1      -5.825   4.799 124.688  0.00  0.00    +0.044 C 
ATOM      2  C   LIG A   1      -5.943   3.334 124.991  0.00  0.00    -0.046 A 
ATOM      3  C   LIG A   1      -5.156   2.726 125.973  0.00  0.00    +0.049 A 
ATOM      4  C   LIG A   1      -5.284   1.356 126.238  0.00  0.00    +0.129 A 
ATOM      5  C   LIG A   1      -6.857   2.552 124.281  0.00  0.00    +0.016 A 
ATOM      6  C   LIG A   1      -6.985   1.179 124.547  0.00  0.00    +0.037 A 
ATOM      7  C   LIG A   1      -6.201   0.565 125.527  0.00  0.00    +0.074 A 
ATOM      8  C   LIG A   1      -6.366  -0.893 125.782  0.00  0.00    +0.198 C 
ATOM      9  C   LIG A   1      -7.354  -1.659 124.990  0.00  0.00    +0.033 A 
ATOM     10  C   LIG A   1      -8.126  -1.033 124.017  0.00  0.00    +0.033 A 
ATOM     11  C   LIG A   1      -7.969   0.407 123.762  0.00  0.00    +0.195 C 
ATOM     12  O   LIG A   1      -8.650   0.958 122.905  0.00  0.00    -0.287 OA
ATOM     13  C   LIG A   1      -9.058  -1.768 123.273  0.00  0.00    +0.012 A 
ATOM     14  C   LIG A   1      -9.217  -3.134 123.505  0.00  0.00    +0.001 A 
ATOM     15  C   LIG A   1      -8.446  -3.767 124.479  0.00  0.00    +0.001 A 
ATOM     16  C   LIG A   1      -7.517  -3.034 125.221  0.00  0.00    +0.012 A 
ATOM     17  O   LIG A   1      -5.714  -1.496 126.625  0.00  0.00    -0.286 OA
ENDROOT
BRANCH   4  18
ATOM     18  O   LIG A   1      -4.490   0.812 127.207  0.00  0.00    -0.506 OA
ATOM     19  H   LIG A   1      -3.560   0.807 126.928  0.00  0.00    +0.292 HD
ENDBRANCH   4  18
TORSDOF 1
ENDMDL
MODEL 9
REMARK VINA RESULT:      -6.7      9.413      9.891
REMARK  Name = NuBBE_394
REMARK  2 active torsions:
REMARK  status: ('A' for Active; 'I' for Inactive)
REMARK    1  A    between atoms: C_1  and  C_2
REMARK    2  A    between atoms: C_4  and  O_5
REMARK                            x       y       z     vdW  Elec       q    Type
REMARK                         _______ _______ _______ _____ _____    ______ ____
ROOT
ATOM      1  C   LIG A   1      -9.794  -3.472 123.264  0.00  0.00    +0.044 C 
ATOM      2  C   LIG A   1      -8.825  -2.987 124.303  0.00  0.00    -0.046 A 
ATOM      3  C   LIG A   1      -7.738  -2.177 123.965  0.00  0.00    +0.049 A 
ATOM      4  C   LIG A   1      -6.846  -1.736 124.952  0.00  0.00    +0.129 A 
ATOM      5  C   LIG A   1      -9.006  -3.348 125.640  0.00  0.00    +0.016 A 
ATOM      6  C   LIG A   1      -8.112  -2.906 126.629  0.00  0.00    +0.037 A 
ATOM      7  C   LIG A   1      -7.023  -2.096 126.298  0.00  0.00    +0.074 A 
ATOM      8  C   LIG A   1      -6.098  -1.647 127.376  0.00  0.00    +0.198 C 
ATOM      9  C   LIG A   1      -6.352  -2.070 128.771  0.00  0.00    +0.033 A 
ATOM     10  C   LIG A   1      -7.440  -2.878 129.083  0.00  0.00    +0.033 A 
ATOM     11  C   LIG A   1      -8.358  -3.323 128.024  0.00  0.00    +0.195 C 
ATOM     12  O   LIG A   1      -9.318  -4.035 128.300  0.00  0.00    -0.287 OA
ATOM     13  C   LIG A   1      -7.670  -3.272 130.408  0.00  0.00    +0.012 A 
ATOM     14  C   LIG A   1      -6.807  -2.856 131.421  0.00  0.00    +0.001 A 
ATOM     15  C   LIG A   1      -5.715  -2.047 131.114  0.00  0.00    +0.001 A 
ATOM     16  C   LIG A   1      -5.486  -1.653 129.793  0.00  0.00    +0.012 A 
ATOM     17  O   LIG A   1      -5.125  -0.936 127.158  0.00  0.00    -0.286 OA
ENDROOT
BRANCH   4  18
ATOM     18  O   LIG A   1      -5.800  -0.948 124.568  0.00  0.00    -0.506 OA
ATOM     19  H   LIG A   1      -5.645  -1.021 123.613  0.00  0.00    +0.292 HD
ENDBRANCH   4  18
TORSDOF 1
ENDMDL
