MODEL 1
REMARK VINA RESULT:      -7.0      0.000      0.000
REMARK  Name = NuBBE_1127
REMARK  10 active torsions:
REMARK  status: ('A' for Active; 'I' for Inactive)
REMARK    1  A    between atoms: O_1  and  C_2
REMARK    2  A    between atoms: C_5  and  O_12
REMARK    3  A    between atoms: O_12  and  C_13
REMARK    4  A    between atoms: C_13  and  C_14
REMARK    5  A    between atoms: C_14  and  O_16
REMARK    6  A    between atoms: C_14  and  C_17
REMARK    7  A    between atoms: C_17  and  N_18
REMARK    8  A    between atoms: N_18  and  C_19
REMARK    9  A    between atoms: C_19  and  C_20
REMARK   10  A    between atoms: C_19  and  C_21
REMARK                            x       y       z     vdW  Elec       q    Type
REMARK                         _______ _______ _______ _____ _____    ______ ____
ROOT
ATOM      1  C   LIG A   1      -5.518   4.175 122.064  0.00  0.00    +0.125 A 
ATOM      2  C   LIG A   1      -5.751   3.770 123.371  0.00  0.00    +0.049 A 
ATOM      3  C   LIG A   1      -7.011   3.313 123.731  0.00  0.00    +0.050 A 
ATOM      4  C   LIG A   1      -8.048   3.252 122.797  0.00  0.00    +0.129 A 
ATOM      5  C   LIG A   1      -7.827   3.690 121.455  0.00  0.00    +0.027 A 
ATOM      6  C   LIG A   1      -8.833   3.696 120.463  0.00  0.00    +0.012 A 
ATOM      7  C   LIG A   1      -8.577   4.131 119.157  0.00  0.00    +0.001 A 
ATOM      8  C   LIG A   1      -7.305   4.563 118.807  0.00  0.00    +0.001 A 
ATOM      9  C   LIG A   1      -6.294   4.570 119.767  0.00  0.00    +0.012 A 
ATOM     10  C   LIG A   1      -6.533   4.150 121.093  0.00  0.00    +0.027 A 
ENDROOT
BRANCH   1  11
ATOM     11  O   LIG A   1      -4.265   4.620 121.720  0.00  0.00    -0.506 OA
ATOM     12  H   LIG A   1      -4.180   4.583 120.750  0.00  0.00    +0.292 HD
ENDBRANCH   1  11
BRANCH   4  13
ATOM     13  O   LIG A   1      -9.303   2.775 123.090  0.00  0.00    -0.489 OA
BRANCH  13  14
ATOM     14  C   LIG A   1      -9.424   1.442 123.599  0.00  0.00    +0.261 C 
BRANCH  14  15
ATOM     15  C   LIG A   1     -10.076   0.508 122.569  0.00  0.00    +0.166 C 
BRANCH  15  16
ATOM     16  O   LIG A   1     -11.499   0.536 122.729  0.00  0.00    -0.387 OA
ATOM     17  H   LIG A   1     -11.746   1.479 122.632  0.00  0.00    +0.210 HD
ENDBRANCH  15  16
BRANCH  15  18
ATOM     18  C   LIG A   1      -9.563  -0.930 122.765  0.00  0.00    +0.115 C 
BRANCH  18  19
ATOM     19  N   LIG A   1      -8.729  -1.048 123.978  0.00  0.00    -0.311 NA
ATOM     20  H   LIG A   1      -9.228  -0.610 124.756  0.00  0.00    +0.122 HD
BRANCH  19  21
ATOM     21  C   LIG A   1      -8.487  -2.462 124.329  0.00  0.00    +0.048 C 
ATOM     22  C   LIG A   1      -9.469  -3.410 123.636  0.00  0.00    +0.024 C 
ATOM     23  C   LIG A   1      -7.057  -2.844 123.936  0.00  0.00    +0.024 C 
ENDBRANCH  19  21
ENDBRANCH  18  19
ENDBRANCH  15  18
ENDBRANCH  14  15
ENDBRANCH  13  14
ENDBRANCH   4  13
TORSDOF 8
ENDMDL
MODEL 2
REMARK VINA RESULT:      -6.6      8.622     10.269
REMARK  Name = NuBBE_1127
REMARK  10 active torsions:
REMARK  status: ('A' for Active; 'I' for Inactive)
REMARK    1  A    between atoms: O_1  and  C_2
REMARK    2  A    between atoms: C_5  and  O_12
REMARK    3  A    between atoms: O_12  and  C_13
REMARK    4  A    between atoms: C_13  and  C_14
REMARK    5  A    between atoms: C_14  and  O_16
REMARK    6  A    between atoms: C_14  and  C_17
REMARK    7  A    between atoms: C_17  and  N_18
REMARK    8  A    between atoms: N_18  and  C_19
REMARK    9  A    between atoms: C_19  and  C_20
REMARK   10  A    between atoms: C_19  and  C_21
REMARK                            x       y       z     vdW  Elec       q    Type
REMARK                         _______ _______ _______ _____ _____    ______ ____
ROOT
ATOM      1  C   LIG A   1     -12.194   7.060 131.367  0.00  0.00    +0.125 A 
ATOM      2  C   LIG A   1     -11.293   6.446 132.227  0.00  0.00    +0.049 A 
ATOM      3  C   LIG A   1      -9.975   6.275 131.828  0.00  0.00    +0.050 A 
ATOM      4  C   LIG A   1      -9.540   6.711 130.574  0.00  0.00    +0.129 A 
ATOM      5  C   LIG A   1     -10.465   7.321 129.671  0.00  0.00    +0.027 A 
ATOM      6  C   LIG A   1     -10.111   7.754 128.372  0.00  0.00    +0.012 A 
ATOM      7  C   LIG A   1     -11.045   8.350 127.516  0.00  0.00    +0.001 A 
ATOM      8  C   LIG A   1     -12.354   8.536 127.939  0.00  0.00    +0.001 A 
ATOM      9  C   LIG A   1     -12.730   8.115 129.215  0.00  0.00    +0.012 A 
ATOM     10  C   LIG A   1     -11.809   7.500 130.089  0.00  0.00    +0.027 A 
ENDROOT
BRANCH   1  11
ATOM     11  O   LIG A   1     -13.494   7.229 131.776  0.00  0.00    -0.506 OA
ATOM     12  H   LIG A   1     -14.008   6.448 131.503  0.00  0.00    +0.292 HD
ENDBRANCH   1  11
BRANCH   4  13
ATOM     13  O   LIG A   1      -8.240   6.598 130.143  0.00  0.00    -0.489 OA
BRANCH  13  14
ATOM     14  C   LIG A   1      -7.188   6.793 131.094  0.00  0.00    +0.261 C 
BRANCH  14  15
ATOM     15  C   LIG A   1      -6.035   5.807 130.861  0.00  0.00    +0.166 C 
BRANCH  15  16
ATOM     16  O   LIG A   1      -5.322   6.173 129.673  0.00  0.00    -0.387 OA
ATOM     17  H   LIG A   1      -5.299   5.358 129.131  0.00  0.00    +0.210 HD
ENDBRANCH  15  16
BRANCH  15  18
ATOM     18  C   LIG A   1      -6.587   4.378 130.711  0.00  0.00    +0.115 C 
BRANCH  18  19
ATOM     19  N   LIG A   1      -7.385   3.979 131.888  0.00  0.00    -0.311 NA
ATOM     20  H   LIG A   1      -7.983   4.765 132.153  0.00  0.00    +0.122 HD
BRANCH  19  21
ATOM     21  C   LIG A   1      -8.255   2.826 131.583  0.00  0.00    +0.048 C 
ATOM     22  C   LIG A   1      -9.330   2.608 132.651  0.00  0.00    +0.024 C 
ATOM     23  C   LIG A   1      -8.932   3.047 130.227  0.00  0.00    +0.024 C 
ENDBRANCH  19  21
ENDBRANCH  18  19
ENDBRANCH  15  18
ENDBRANCH  14  15
ENDBRANCH  13  14
ENDBRANCH   4  13
TORSDOF 8
ENDMDL
MODEL 3
REMARK VINA RESULT:      -6.5      6.432      8.270
REMARK  Name = NuBBE_1127
REMARK  10 active torsions:
REMARK  status: ('A' for Active; 'I' for Inactive)
REMARK    1  A    between atoms: O_1  and  C_2
REMARK    2  A    between atoms: C_5  and  O_12
REMARK    3  A    between atoms: O_12  and  C_13
REMARK    4  A    between atoms: C_13  and  C_14
REMARK    5  A    between atoms: C_14  and  O_16
REMARK    6  A    between atoms: C_14  and  C_17
REMARK    7  A    between atoms: C_17  and  N_18
REMARK    8  A    between atoms: N_18  and  C_19
REMARK    9  A    between atoms: C_19  and  C_20
REMARK   10  A    between atoms: C_19  and  C_21
REMARK                            x       y       z     vdW  Elec       q    Type
REMARK                         _______ _______ _______ _____ _____    ______ ____
ROOT
ATOM      1  C   LIG A   1     -11.177   5.887 131.167  0.00  0.00    +0.125 A 
ATOM      2  C   LIG A   1     -10.266   4.838 131.184  0.00  0.00    +0.049 A 
ATOM      3  C   LIG A   1      -9.404   4.664 130.111  0.00  0.00    +0.050 A 
ATOM      4  C   LIG A   1      -9.436   5.528 129.014  0.00  0.00    +0.129 A 
ATOM      5  C   LIG A   1     -10.385   6.595 128.974  0.00  0.00    +0.027 A 
ATOM      6  C   LIG A   1     -10.506   7.488 127.885  0.00  0.00    +0.012 A 
ATOM      7  C   LIG A   1     -11.448   8.523 127.883  0.00  0.00    +0.001 A 
ATOM      8  C   LIG A   1     -12.288   8.699 128.974  0.00  0.00    +0.001 A 
ATOM      9  C   LIG A   1     -12.192   7.831 130.061  0.00  0.00    +0.012 A 
ATOM     10  C   LIG A   1     -11.260   6.772 130.079  0.00  0.00    +0.027 A 
ENDROOT
BRANCH   1  11
ATOM     11  O   LIG A   1     -12.021   6.051 132.237  0.00  0.00    -0.506 OA
ATOM     12  H   LIG A   1     -12.492   5.213 132.391  0.00  0.00    +0.292 HD
ENDBRANCH   1  11
BRANCH   4  13
ATOM     13  O   LIG A   1      -8.581   5.422 127.943  0.00  0.00    -0.489 OA
BRANCH  13  14
ATOM     14  C   LIG A   1      -8.159   4.116 127.535  0.00  0.00    +0.261 C 
BRANCH  14  15
ATOM     15  C   LIG A   1      -7.745   4.099 126.057  0.00  0.00    +0.166 C 
BRANCH  15  16
ATOM     16  O   LIG A   1      -8.409   5.159 125.360  0.00  0.00    -0.387 OA
ATOM     17  H   LIG A   1      -7.973   5.199 124.484  0.00  0.00    +0.210 HD
ENDBRANCH  15  16
BRANCH  15  18
ATOM     18  C   LIG A   1      -8.122   2.749 125.421  0.00  0.00    +0.115 C 
BRANCH  18  19
ATOM     19  N   LIG A   1      -9.361   2.853 124.622  0.00  0.00    -0.311 NA
ATOM     20  H   LIG A   1      -9.564   3.844 124.472  0.00  0.00    +0.122 HD
BRANCH  19  21
ATOM     21  C   LIG A   1      -9.205   2.212 123.301  0.00  0.00    +0.048 C 
ATOM     22  C   LIG A   1      -8.356   3.052 122.343  0.00  0.00    +0.024 C 
ATOM     23  C   LIG A   1      -8.552   0.839 123.479  0.00  0.00    +0.024 C 
ENDBRANCH  19  21
ENDBRANCH  18  19
ENDBRANCH  15  18
ENDBRANCH  14  15
ENDBRANCH  13  14
ENDBRANCH   4  13
TORSDOF 8
ENDMDL
MODEL 4
REMARK VINA RESULT:      -6.5      8.709     10.431
REMARK  Name = NuBBE_1127
REMARK  10 active torsions:
REMARK  status: ('A' for Active; 'I' for Inactive)
REMARK    1  A    between atoms: O_1  and  C_2
REMARK    2  A    between atoms: C_5  and  O_12
REMARK    3  A    between atoms: O_12  and  C_13
REMARK    4  A    between atoms: C_13  and  C_14
REMARK    5  A    between atoms: C_14  and  O_16
REMARK    6  A    between atoms: C_14  and  C_17
REMARK    7  A    between atoms: C_17  and  N_18
REMARK    8  A    between atoms: N_18  and  C_19
REMARK    9  A    between atoms: C_19  and  C_20
REMARK   10  A    between atoms: C_19  and  C_21
REMARK                            x       y       z     vdW  Elec       q    Type
REMARK                         _______ _______ _______ _____ _____    ______ ____
ROOT
ATOM      1  C   LIG A   1     -12.237   7.024 131.265  0.00  0.00    +0.125 A 
ATOM      2  C   LIG A   1     -11.283   6.456 132.100  0.00  0.00    +0.049 A 
ATOM      3  C   LIG A   1     -10.002   6.227 131.618  0.00  0.00    +0.050 A 
ATOM      4  C   LIG A   1      -9.657   6.560 130.306  0.00  0.00    +0.129 A 
ATOM      5  C   LIG A   1     -10.637   7.121 129.431  0.00  0.00    +0.027 A 
ATOM      6  C   LIG A   1     -10.376   7.449 128.081  0.00  0.00    +0.012 A 
ATOM      7  C   LIG A   1     -11.362   8.000 127.254  0.00  0.00    +0.001 A 
ATOM      8  C   LIG A   1     -12.632   8.245 127.757  0.00  0.00    +0.001 A 
ATOM      9  C   LIG A   1     -12.917   7.928 129.085  0.00  0.00    +0.012 A 
ATOM     10  C   LIG A   1     -11.943   7.360 129.933  0.00  0.00    +0.027 A 
ENDROOT
BRANCH   1  11
ATOM     11  O   LIG A   1     -13.499   7.250 131.756  0.00  0.00    -0.506 OA
ATOM     12  H   LIG A   1     -13.420   7.604 132.660  0.00  0.00    +0.292 HD
ENDBRANCH   1  11
BRANCH   4  13
ATOM     13  O   LIG A   1      -8.395   6.387 129.790  0.00  0.00    -0.489 OA
BRANCH  13  14
ATOM     14  C   LIG A   1      -7.595   5.310 130.291  0.00  0.00    +0.261 C 
BRANCH  14  15
ATOM     15  C   LIG A   1      -6.193   5.792 130.685  0.00  0.00    +0.166 C 
BRANCH  15  16
ATOM     16  O   LIG A   1      -6.132   7.220 130.593  0.00  0.00    -0.387 OA
ATOM     17  H   LIG A   1      -5.639   7.505 131.390  0.00  0.00    +0.210 HD
ENDBRANCH  15  16
BRANCH  15  18
ATOM     18  C   LIG A   1      -5.140   5.170 129.750  0.00  0.00    +0.115 C 
BRANCH  18  19
ATOM     19  N   LIG A   1      -4.405   6.206 128.996  0.00  0.00    -0.311 NA
ATOM     20  H   LIG A   1      -4.476   7.088 129.508  0.00  0.00    +0.122 HD
BRANCH  19  21
ATOM     21  C   LIG A   1      -2.974   5.865 128.868  0.00  0.00    +0.048 C 
ATOM     22  C   LIG A   1      -2.754   4.538 128.137  0.00  0.00    +0.024 C 
ATOM     23  C   LIG A   1      -2.254   6.983 128.108  0.00  0.00    +0.024 C 
ENDBRANCH  19  21
ENDBRANCH  18  19
ENDBRANCH  15  18
ENDBRANCH  14  15
ENDBRANCH  13  14
ENDBRANCH   4  13
TORSDOF 8
ENDMDL
MODEL 5
REMARK VINA RESULT:      -6.4      2.460      6.961
REMARK  Name = NuBBE_1127
REMARK  10 active torsions:
REMARK  status: ('A' for Active; 'I' for Inactive)
REMARK    1  A    between atoms: O_1  and  C_2
REMARK    2  A    between atoms: C_5  and  O_12
REMARK    3  A    between atoms: O_12  and  C_13
REMARK    4  A    between atoms: C_13  and  C_14
REMARK    5  A    between atoms: C_14  and  O_16
REMARK    6  A    between atoms: C_14  and  C_17
REMARK    7  A    between atoms: C_17  and  N_18
REMARK    8  A    between atoms: N_18  and  C_19
REMARK    9  A    between atoms: C_19  and  C_20
REMARK   10  A    between atoms: C_19  and  C_21
REMARK                            x       y       z     vdW  Elec       q    Type
REMARK                         _______ _______ _______ _____ _____    ______ ____
ROOT
ATOM      1  C   LIG A   1      -9.264  -1.834 125.385  0.00  0.00    +0.125 A 
ATOM      2  C   LIG A   1      -9.701  -0.529 125.568  0.00  0.00    +0.049 A 
ATOM      3  C   LIG A   1      -8.894   0.525 125.165  0.00  0.00    +0.050 A 
ATOM      4  C   LIG A   1      -7.649   0.294 124.575  0.00  0.00    +0.129 A 
ATOM      5  C   LIG A   1      -7.178  -1.044 124.406  0.00  0.00    +0.027 A 
ATOM      6  C   LIG A   1      -5.915  -1.359 123.854  0.00  0.00    +0.012 A 
ATOM      7  C   LIG A   1      -5.488  -2.684 123.702  0.00  0.00    +0.001 A 
ATOM      8  C   LIG A   1      -6.317  -3.728 124.089  0.00  0.00    +0.001 A 
ATOM      9  C   LIG A   1      -7.567  -3.445 124.638  0.00  0.00    +0.012 A 
ATOM     10  C   LIG A   1      -8.012  -2.118 124.814  0.00  0.00    +0.027 A 
ENDROOT
BRANCH   1  11
ATOM     11  O   LIG A   1     -10.074  -2.869 125.783  0.00  0.00    -0.506 OA
ATOM     12  H   LIG A   1      -9.674  -3.291 126.565  0.00  0.00    +0.292 HD
ENDBRANCH   1  11
BRANCH   4  13
ATOM     13  O   LIG A   1      -6.827   1.299 124.126  0.00  0.00    -0.489 OA
BRANCH  13  14
ATOM     14  C   LIG A   1      -6.481   2.353 125.033  0.00  0.00    +0.261 C 
BRANCH  14  15
ATOM     15  C   LIG A   1      -6.767   3.732 124.422  0.00  0.00    +0.166 C 
BRANCH  15  16
ATOM     16  O   LIG A   1      -8.181   3.907 124.274  0.00  0.00    -0.387 OA
ATOM     17  H   LIG A   1      -8.280   4.707 123.717  0.00  0.00    +0.210 HD
ENDBRANCH  15  16
BRANCH  15  18
ATOM     18  C   LIG A   1      -6.086   3.850 123.047  0.00  0.00    +0.115 C 
BRANCH  18  19
ATOM     19  N   LIG A   1      -7.053   3.665 121.945  0.00  0.00    -0.311 NA
ATOM     20  H   LIG A   1      -7.739   4.422 121.989  0.00  0.00    +0.122 HD
BRANCH  19  21
ATOM     21  C   LIG A   1      -6.387   3.725 120.629  0.00  0.00    +0.048 C 
ATOM     22  C   LIG A   1      -7.327   4.214 119.523  0.00  0.00    +0.024 C 
ATOM     23  C   LIG A   1      -5.181   4.664 120.714  0.00  0.00    +0.024 C 
ENDBRANCH  19  21
ENDBRANCH  18  19
ENDBRANCH  15  18
ENDBRANCH  14  15
ENDBRANCH  13  14
ENDBRANCH   4  13
TORSDOF 8
ENDMDL
MODEL 6
REMARK VINA RESULT:      -6.4      2.385      7.280
REMARK  Name = NuBBE_1127
REMARK  10 active torsions:
REMARK  status: ('A' for Active; 'I' for Inactive)
REMARK    1  A    between atoms: O_1  and  C_2
REMARK    2  A    between atoms: C_5  and  O_12
REMARK    3  A    between atoms: O_12  and  C_13
REMARK    4  A    between atoms: C_13  and  C_14
REMARK    5  A    between atoms: C_14  and  O_16
REMARK    6  A    between atoms: C_14  and  C_17
REMARK    7  A    between atoms: C_17  and  N_18
REMARK    8  A    between atoms: N_18  and  C_19
REMARK    9  A    between atoms: C_19  and  C_20
REMARK   10  A    between atoms: C_19  and  C_21
REMARK                            x       y       z     vdW  Elec       q    Type
REMARK                         _______ _______ _______ _____ _____    ______ ____
ROOT
ATOM      1  C   LIG A   1      -9.392  -2.432 123.879  0.00  0.00    +0.125 A 
ATOM      2  C   LIG A   1      -9.202  -1.391 122.980  0.00  0.00    +0.049 A 
ATOM      3  C   LIG A   1      -8.510  -0.258 123.382  0.00  0.00    +0.050 A 
ATOM      4  C   LIG A   1      -7.999  -0.149 124.678  0.00  0.00    +0.129 A 
ATOM      5  C   LIG A   1      -8.211  -1.203 125.619  0.00  0.00    +0.027 A 
ATOM      6  C   LIG A   1      -7.759  -1.151 126.958  0.00  0.00    +0.012 A 
ATOM      7  C   LIG A   1      -7.984  -2.206 127.851  0.00  0.00    +0.001 A 
ATOM      8  C   LIG A   1      -8.657  -3.343 127.426  0.00  0.00    +0.001 A 
ATOM      9  C   LIG A   1      -9.116  -3.419 126.111  0.00  0.00    +0.012 A 
ATOM     10  C   LIG A   1      -8.913  -2.362 125.198  0.00  0.00    +0.027 A 
ENDROOT
BRANCH   1  11
ATOM     11  O   LIG A   1     -10.074  -3.550 123.467  0.00  0.00    -0.506 OA
ATOM     12  H   LIG A   1     -10.814  -3.270 122.899  0.00  0.00    +0.292 HD
ENDBRANCH   1  11
BRANCH   4  13
ATOM     13  O   LIG A   1      -7.277   0.935 125.117  0.00  0.00    -0.489 OA
BRANCH  13  14
ATOM     14  C   LIG A   1      -7.990   2.091 125.571  0.00  0.00    +0.261 C 
BRANCH  14  15
ATOM     15  C   LIG A   1      -7.720   3.303 124.670  0.00  0.00    +0.166 C 
BRANCH  15  16
ATOM     16  O   LIG A   1      -8.849   3.532 123.819  0.00  0.00    -0.387 OA
ATOM     17  H   LIG A   1      -9.434   4.129 124.329  0.00  0.00    +0.210 HD
ENDBRANCH  15  16
BRANCH  15  18
ATOM     18  C   LIG A   1      -6.468   3.050 123.809  0.00  0.00    +0.115 C 
BRANCH  18  19
ATOM     19  N   LIG A   1      -6.828   2.722 122.414  0.00  0.00    -0.311 NA
ATOM     20  H   LIG A   1      -7.843   2.607 122.362  0.00  0.00    +0.122 HD
BRANCH  19  21
ATOM     21  C   LIG A   1      -6.442   3.807 121.490  0.00  0.00    +0.048 C 
ATOM     22  C   LIG A   1      -5.067   3.573 120.859  0.00  0.00    +0.024 C 
ATOM     23  C   LIG A   1      -7.491   3.923 120.380  0.00  0.00    +0.024 C 
ENDBRANCH  19  21
ENDBRANCH  18  19
ENDBRANCH  15  18
ENDBRANCH  14  15
ENDBRANCH  13  14
ENDBRANCH   4  13
TORSDOF 8
ENDMDL
MODEL 7
REMARK VINA RESULT:      -6.3      1.421      1.964
REMARK  Name = NuBBE_1127
REMARK  10 active torsions:
REMARK  status: ('A' for Active; 'I' for Inactive)
REMARK    1  A    between atoms: O_1  and  C_2
REMARK    2  A    between atoms: C_5  and  O_12
REMARK    3  A    between atoms: O_12  and  C_13
REMARK    4  A    between atoms: C_13  and  C_14
REMARK    5  A    between atoms: C_14  and  O_16
REMARK    6  A    between atoms: C_14  and  C_17
REMARK    7  A    between atoms: C_17  and  N_18
REMARK    8  A    between atoms: N_18  and  C_19
REMARK    9  A    between atoms: C_19  and  C_20
REMARK   10  A    between atoms: C_19  and  C_21
REMARK                            x       y       z     vdW  Elec       q    Type
REMARK                         _______ _______ _______ _____ _____    ______ ____
ROOT
ATOM      1  C   LIG A   1      -5.677   3.762 124.584  0.00  0.00    +0.125 A 
ATOM      2  C   LIG A   1      -6.621   3.261 125.472  0.00  0.00    +0.049 A 
ATOM      3  C   LIG A   1      -7.843   2.813 124.991  0.00  0.00    +0.050 A 
ATOM      4  C   LIG A   1      -8.138   2.855 123.627  0.00  0.00    +0.129 A 
ATOM      5  C   LIG A   1      -7.186   3.392 122.707  0.00  0.00    +0.027 A 
ATOM      6  C   LIG A   1      -7.424   3.503 121.318  0.00  0.00    +0.012 A 
ATOM      7  C   LIG A   1      -6.465   4.033 120.447  0.00  0.00    +0.001 A 
ATOM      8  C   LIG A   1      -5.237   4.455 120.940  0.00  0.00    +0.001 A 
ATOM      9  C   LIG A   1      -4.977   4.358 122.307  0.00  0.00    +0.012 A 
ATOM     10  C   LIG A   1      -5.935   3.841 123.205  0.00  0.00    +0.027 A 
ENDROOT
BRANCH   1  11
ATOM     11  O   LIG A   1      -4.470   4.196 125.072  0.00  0.00    -0.506 OA
ATOM     12  H   LIG A   1      -4.543   5.146 125.275  0.00  0.00    +0.292 HD
ENDBRANCH   1  11
BRANCH   4  13
ATOM     13  O   LIG A   1      -9.318   2.393 123.094  0.00  0.00    -0.489 OA
BRANCH  13  14
ATOM     14  C   LIG A   1      -9.931   1.245 123.692  0.00  0.00    +0.261 C 
BRANCH  14  15
ATOM     15  C   LIG A   1      -9.270  -0.055 123.214  0.00  0.00    +0.166 C 
BRANCH  15  16
ATOM     16  O   LIG A   1     -10.244  -0.877 122.560  0.00  0.00    -0.387 OA
ATOM     17  H   LIG A   1     -10.610  -0.316 121.845  0.00  0.00    +0.210 HD
ENDBRANCH  15  16
BRANCH  15  18
ATOM     18  C   LIG A   1      -8.676  -0.815 124.414  0.00  0.00    +0.115 C 
BRANCH  18  19
ATOM     19  N   LIG A   1      -7.271  -1.201 124.168  0.00  0.00    -0.311 NA
ATOM     20  H   LIG A   1      -6.666  -0.572 124.701  0.00  0.00    +0.122 HD
BRANCH  19  21
ATOM     21  C   LIG A   1      -7.006  -2.582 124.621  0.00  0.00    +0.048 C 
ATOM     22  C   LIG A   1      -8.175  -3.525 124.329  0.00  0.00    +0.024 C 
ATOM     23  C   LIG A   1      -5.748  -3.110 123.926  0.00  0.00    +0.024 C 
ENDBRANCH  19  21
ENDBRANCH  18  19
ENDBRANCH  15  18
ENDBRANCH  14  15
ENDBRANCH  13  14
ENDBRANCH   4  13
TORSDOF 8
ENDMDL
MODEL 8
REMARK VINA RESULT:      -6.3      3.356      5.524
REMARK  Name = NuBBE_1127
REMARK  10 active torsions:
REMARK  status: ('A' for Active; 'I' for Inactive)
REMARK    1  A    between atoms: O_1  and  C_2
REMARK    2  A    between atoms: C_5  and  O_12
REMARK    3  A    between atoms: O_12  and  C_13
REMARK    4  A    between atoms: C_13  and  C_14
REMARK    5  A    between atoms: C_14  and  O_16
REMARK    6  A    between atoms: C_14  and  C_17
REMARK    7  A    between atoms: C_17  and  N_18
REMARK    8  A    between atoms: N_18  and  C_19
REMARK    9  A    between atoms: C_19  and  C_20
REMARK   10  A    between atoms: C_19  and  C_21
REMARK                            x       y       z     vdW  Elec       q    Type
REMARK                         _______ _______ _______ _____ _____    ______ ____
ROOT
ATOM      1  C   LIG A   1      -8.594   3.421 120.993  0.00  0.00    +0.125 A 
ATOM      2  C   LIG A   1      -9.022   2.786 122.152  0.00  0.00    +0.049 A 
ATOM      3  C   LIG A   1      -8.147   2.650 123.220  0.00  0.00    +0.050 A 
ATOM      4  C   LIG A   1      -6.842   3.143 123.148  0.00  0.00    +0.129 A 
ATOM      5  C   LIG A   1      -6.383   3.775 121.951  0.00  0.00    +0.027 A 
ATOM      6  C   LIG A   1      -5.067   4.265 121.787  0.00  0.00    +0.012 A 
ATOM      7  C   LIG A   1      -4.654   4.880 120.599  0.00  0.00    +0.001 A 
ATOM      8  C   LIG A   1      -5.549   5.031 119.548  0.00  0.00    +0.001 A 
ATOM      9  C   LIG A   1      -6.852   4.553 119.683  0.00  0.00    +0.012 A 
ATOM     10  C   LIG A   1      -7.286   3.917 120.866  0.00  0.00    +0.027 A 
ENDROOT
BRANCH   1  11
ATOM     11  O   LIG A   1      -9.472   3.554 119.945  0.00  0.00    -0.506 OA
ATOM     12  H   LIG A   1     -10.042   4.325 120.116  0.00  0.00    +0.292 HD
ENDBRANCH   1  11
BRANCH   4  13
ATOM     13  O   LIG A   1      -5.946   3.066 124.187  0.00  0.00    -0.489 OA
BRANCH  13  14
ATOM     14  C   LIG A   1      -6.298   3.673 125.436  0.00  0.00    +0.261 C 
BRANCH  14  15
ATOM     15  C   LIG A   1      -6.038   2.721 126.612  0.00  0.00    +0.166 C 
BRANCH  15  16
ATOM     16  O   LIG A   1      -6.636   3.252 127.801  0.00  0.00    -0.387 OA
ATOM     17  H   LIG A   1      -6.001   3.922 128.127  0.00  0.00    +0.210 HD
ENDBRANCH  15  16
BRANCH  15  18
ATOM     18  C   LIG A   1      -4.523   2.554 126.829  0.00  0.00    +0.115 C 
BRANCH  18  19
ATOM     19  N   LIG A   1      -3.754   3.580 126.094  0.00  0.00    -0.311 NA
ATOM     20  H   LIG A   1      -4.354   4.397 125.959  0.00  0.00    +0.122 HD
BRANCH  19  21
ATOM     21  C   LIG A   1      -2.563   4.008 126.855  0.00  0.00    +0.048 C 
ATOM     22  C   LIG A   1      -2.866   4.215 128.341  0.00  0.00    +0.024 C 
ATOM     23  C   LIG A   1      -1.463   2.953 126.709  0.00  0.00    +0.024 C 
ENDBRANCH  19  21
ENDBRANCH  18  19
ENDBRANCH  15  18
ENDBRANCH  14  15
ENDBRANCH  13  14
ENDBRANCH   4  13
TORSDOF 8
ENDMDL
MODEL 9
REMARK VINA RESULT:      -6.3      2.658      4.399
REMARK  Name = NuBBE_1127
REMARK  10 active torsions:
REMARK  status: ('A' for Active; 'I' for Inactive)
REMARK    1  A    between atoms: O_1  and  C_2
REMARK    2  A    between atoms: C_5  and  O_12
REMARK    3  A    between atoms: O_12  and  C_13
REMARK    4  A    between atoms: C_13  and  C_14
REMARK    5  A    between atoms: C_14  and  O_16
REMARK    6  A    between atoms: C_14  and  C_17
REMARK    7  A    between atoms: C_17  and  N_18
REMARK    8  A    between atoms: N_18  and  C_19
REMARK    9  A    between atoms: C_19  and  C_20
REMARK   10  A    between atoms: C_19  and  C_21
REMARK                            x       y       z     vdW  Elec       q    Type
REMARK                         _______ _______ _______ _____ _____    ______ ____
ROOT
ATOM      1  C   LIG A   1      -8.495   2.773 122.789  0.00  0.00    +0.125 A 
ATOM      2  C   LIG A   1      -9.420   1.738 122.817  0.00  0.00    +0.049 A 
ATOM      3  C   LIG A   1      -9.298   0.738 123.771  0.00  0.00    +0.050 A 
ATOM      4  C   LIG A   1      -8.259   0.758 124.706  0.00  0.00    +0.129 A 
ATOM      5  C   LIG A   1      -7.287   1.804 124.669  0.00  0.00    +0.027 A 
ATOM      6  C   LIG A   1      -6.187   1.874 125.555  0.00  0.00    +0.012 A 
ATOM      7  C   LIG A   1      -5.256   2.918 125.490  0.00  0.00    +0.001 A 
ATOM      8  C   LIG A   1      -5.405   3.923 124.545  0.00  0.00    +0.001 A 
ATOM      9  C   LIG A   1      -6.480   3.877 123.657  0.00  0.00    +0.012 A 
ATOM     10  C   LIG A   1      -7.423   2.828 123.695  0.00  0.00    +0.027 A 
ENDROOT
BRANCH   1  11
ATOM     11  O   LIG A   1      -8.630   3.760 121.843  0.00  0.00    -0.506 OA
ATOM     12  H   LIG A   1      -9.271   4.416 122.171  0.00  0.00    +0.292 HD
ENDBRANCH   1  11
BRANCH   4  13
ATOM     13  O   LIG A   1      -8.112  -0.187 125.693  0.00  0.00    -0.489 OA
BRANCH  13  14
ATOM     14  C   LIG A   1      -8.908  -1.375 125.623  0.00  0.00    +0.261 C 
BRANCH  14  15
ATOM     15  C   LIG A   1      -8.035  -2.636 125.673  0.00  0.00    +0.166 C 
BRANCH  15  16
ATOM     16  O   LIG A   1      -8.606  -3.581 126.586  0.00  0.00    -0.387 OA
ATOM     17  H   LIG A   1      -8.185  -4.436 126.362  0.00  0.00    +0.210 HD
ENDBRANCH  15  16
BRANCH  15  18
ATOM     18  C   LIG A   1      -6.611  -2.272 126.132  0.00  0.00    +0.115 C 
BRANCH  18  19
ATOM     19  N   LIG A   1      -5.773  -1.828 124.999  0.00  0.00    -0.311 NA
ATOM     20  H   LIG A   1      -4.791  -1.916 125.270  0.00  0.00    +0.122 HD
BRANCH  19  21
ATOM     21  C   LIG A   1      -5.996  -2.666 123.804  0.00  0.00    +0.048 C 
ATOM     22  C   LIG A   1      -6.341  -1.835 122.566  0.00  0.00    +0.024 C 
ATOM     23  C   LIG A   1      -4.736  -3.489 123.522  0.00  0.00    +0.024 C 
ENDBRANCH  19  21
ENDBRANCH  18  19
ENDBRANCH  15  18
ENDBRANCH  14  15
ENDBRANCH  13  14
ENDBRANCH   4  13
TORSDOF 8
ENDMDL
