MODEL 1
REMARK VINA RESULT:      -7.0      0.000      0.000
REMARK  Name = NuBBE_1496
REMARK  5 active torsions:
REMARK  status: ('A' for Active; 'I' for Inactive)
REMARK    1  A    between atoms: C_1  and  C_2
REMARK    2  A    between atoms: C_1  and  C_3
REMARK    3  A    between atoms: C_1  and  C_4
REMARK    4  A    between atoms: C_11  and  C_13
REMARK    5  A    between atoms: C_14  and  C_18
REMARK                            x       y       z     vdW  Elec       q    Type
REMARK                         _______ _______ _______ _____ _____    ______ ____
ROOT
ATOM      1  C   LIG A   1      -6.589  -3.105 124.791  0.00  0.00    +0.002 C 
ATOM      2  C   LIG A   1      -6.640  -2.136 126.019  0.00  0.00    +0.041 C 
ATOM      3  C   LIG A   1      -7.947  -2.345 126.780  0.00  0.00    -0.063 C 
ATOM      4  C   LIG A   1      -7.980  -2.681 128.084  0.00  0.00    -0.022 C 
ATOM      5  C   LIG A   1      -6.760  -2.864 128.939  0.00  0.00    +0.057 C 
ATOM      6  C   LIG A   1      -5.465  -2.585 128.222  0.00  0.00    -0.072 C 
ATOM      7  C   LIG A   1      -5.424  -2.257 126.917  0.00  0.00    -0.020 C 
ATOM      8  C   LIG A   1      -4.223  -2.679 129.059  0.00  0.00    +0.039 C 
ATOM      9  C   LIG A   1      -9.221  -2.210 125.973  0.00  0.00    +0.012 C 
ATOM     10  C   LIG A   1      -9.147  -3.126 124.747  0.00  0.00    +0.008 C 
ATOM     11  C   LIG A   1      -7.867  -2.942 123.931  0.00  0.00    +0.005 C 
ATOM     12  C   LIG A   1      -9.502  -0.752 125.594  0.00  0.00    +0.012 C 
ENDROOT
BRANCH   1  13
ATOM     13  C   LIG A   1      -5.286  -2.988 123.934  0.00  0.00    -0.013 C 
ATOM     14  C   LIG A   1      -4.577  -4.339 123.771  0.00  0.00    +0.007 C 
ATOM     15  C   LIG A   1      -5.499  -2.354 122.556  0.00  0.00    +0.007 C 
ENDBRANCH   1  13
TORSDOF 1
ENDMDL
MODEL 2
REMARK VINA RESULT:      -6.6      1.544      4.364
REMARK  Name = NuBBE_1496
REMARK  5 active torsions:
REMARK  status: ('A' for Active; 'I' for Inactive)
REMARK    1  A    between atoms: C_1  and  C_2
REMARK    2  A    between atoms: C_1  and  C_3
REMARK    3  A    between atoms: C_1  and  C_4
REMARK    4  A    between atoms: C_11  and  C_13
REMARK    5  A    between atoms: C_14  and  C_18
REMARK                            x       y       z     vdW  Elec       q    Type
REMARK                         _______ _______ _______ _____ _____    ______ ____
ROOT
ATOM      1  C   LIG A   1      -7.696  -1.879 125.937  0.00  0.00    +0.002 C 
ATOM      2  C   LIG A   1      -7.544  -2.594 124.554  0.00  0.00    +0.041 C 
ATOM      3  C   LIG A   1      -7.366  -1.550 123.455  0.00  0.00    -0.063 C 
ATOM      4  C   LIG A   1      -6.295  -1.530 122.640  0.00  0.00    -0.022 C 
ATOM      5  C   LIG A   1      -5.175  -2.528 122.695  0.00  0.00    +0.057 C 
ATOM      6  C   LIG A   1      -5.374  -3.612 123.722  0.00  0.00    -0.072 C 
ATOM      7  C   LIG A   1      -6.438  -3.633 124.546  0.00  0.00    -0.020 C 
ATOM      8  C   LIG A   1      -4.317  -4.677 123.759  0.00  0.00    +0.039 C 
ATOM      9  C   LIG A   1      -8.442  -0.488 123.361  0.00  0.00    +0.012 C 
ATOM     10  C   LIG A   1      -8.620   0.179 124.730  0.00  0.00    +0.008 C 
ATOM     11  C   LIG A   1      -8.826  -0.822 125.868  0.00  0.00    +0.005 C 
ATOM     12  C   LIG A   1      -9.755  -1.055 122.816  0.00  0.00    +0.012 C 
ENDROOT
BRANCH   1  13
ATOM     13  C   LIG A   1      -7.877  -2.852 127.148  0.00  0.00    -0.013 C 
ATOM     14  C   LIG A   1      -7.737  -2.133 128.496  0.00  0.00    +0.007 C 
ATOM     15  C   LIG A   1      -9.190  -3.641 127.125  0.00  0.00    +0.007 C 
ENDBRANCH   1  13
TORSDOF 1
ENDMDL
MODEL 3
REMARK VINA RESULT:      -6.3      5.419      7.636
REMARK  Name = NuBBE_1496
REMARK  5 active torsions:
REMARK  status: ('A' for Active; 'I' for Inactive)
REMARK    1  A    between atoms: C_1  and  C_2
REMARK    2  A    between atoms: C_1  and  C_3
REMARK    3  A    between atoms: C_1  and  C_4
REMARK    4  A    between atoms: C_11  and  C_13
REMARK    5  A    between atoms: C_14  and  C_18
REMARK                            x       y       z     vdW  Elec       q    Type
REMARK                         _______ _______ _______ _____ _____    ______ ____
ROOT
ATOM      1  C   LIG A   1      -6.981   3.237 124.311  0.00  0.00    +0.002 C 
ATOM      2  C   LIG A   1      -6.987   2.667 122.854  0.00  0.00    +0.041 C 
ATOM      3  C   LIG A   1      -8.423   2.594 122.339  0.00  0.00    -0.063 C 
ATOM      4  C   LIG A   1      -8.824   3.223 121.219  0.00  0.00    -0.022 C 
ATOM      5  C   LIG A   1      -7.922   4.039 120.340  0.00  0.00    +0.057 C 
ATOM      6  C   LIG A   1      -6.485   4.056 120.792  0.00  0.00    -0.072 C 
ATOM      7  C   LIG A   1      -6.078   3.437 121.915  0.00  0.00    -0.020 C 
ATOM      8  C   LIG A   1      -5.531   4.796 119.900  0.00  0.00    +0.039 C 
ATOM      9  C   LIG A   1      -9.401   1.814 123.194  0.00  0.00    +0.012 C 
ATOM     10  C   LIG A   1      -9.358   2.346 124.631  0.00  0.00    +0.008 C 
ATOM     11  C   LIG A   1      -7.943   2.418 125.207  0.00  0.00    +0.005 C 
ATOM     12  C   LIG A   1      -9.141   0.306 123.123  0.00  0.00    +0.012 C 
ENDROOT
BRANCH   1  13
ATOM     13  C   LIG A   1      -5.558   3.368 124.944  0.00  0.00    -0.013 C 
ATOM     14  C   LIG A   1      -5.370   4.701 125.680  0.00  0.00    +0.007 C 
ATOM     15  C   LIG A   1      -5.181   2.213 125.878  0.00  0.00    +0.007 C 
ENDBRANCH   1  13
TORSDOF 1
ENDMDL
MODEL 4
REMARK VINA RESULT:      -6.2      1.221      3.760
REMARK  Name = NuBBE_1496
REMARK  5 active torsions:
REMARK  status: ('A' for Active; 'I' for Inactive)
REMARK    1  A    between atoms: C_1  and  C_2
REMARK    2  A    between atoms: C_1  and  C_3
REMARK    3  A    between atoms: C_1  and  C_4
REMARK    4  A    between atoms: C_11  and  C_13
REMARK    5  A    between atoms: C_14  and  C_18
REMARK                            x       y       z     vdW  Elec       q    Type
REMARK                         _______ _______ _______ _____ _____    ______ ____
ROOT
ATOM      1  C   LIG A   1      -7.636  -2.011 123.967  0.00  0.00    +0.002 C 
ATOM      2  C   LIG A   1      -7.144  -2.943 125.124  0.00  0.00    +0.041 C 
ATOM      3  C   LIG A   1      -5.630  -2.814 125.275  0.00  0.00    -0.063 C 
ATOM      4  C   LIG A   1      -5.046  -2.442 126.430  0.00  0.00    -0.022 C 
ATOM      5  C   LIG A   1      -5.796  -2.137 127.694  0.00  0.00    +0.057 C 
ATOM      6  C   LIG A   1      -7.285  -2.335 127.583  0.00  0.00    -0.072 C 
ATOM      7  C   LIG A   1      -7.876  -2.699 126.430  0.00  0.00    -0.020 C 
ATOM      8  C   LIG A   1      -8.067  -2.118 128.845  0.00  0.00    +0.039 C 
ATOM      9  C   LIG A   1      -4.808  -3.074 124.030  0.00  0.00    +0.012 C 
ATOM     10  C   LIG A   1      -5.324  -2.193 122.887  0.00  0.00    +0.008 C 
ATOM     11  C   LIG A   1      -6.834  -2.301 122.673  0.00  0.00    +0.005 C 
ATOM     12  C   LIG A   1      -4.794  -4.559 123.658  0.00  0.00    +0.012 C 
ENDROOT
BRANCH   1  13
ATOM     13  C   LIG A   1      -9.179  -2.051 123.722  0.00  0.00    -0.013 C 
ATOM     14  C   LIG A   1      -9.629  -1.015 122.684  0.00  0.00    +0.007 C 
ATOM     15  C   LIG A   1      -9.714  -3.432 123.328  0.00  0.00    +0.007 C 
ENDBRANCH   1  13
TORSDOF 1
ENDMDL
MODEL 5
REMARK VINA RESULT:      -6.0      2.436      5.347
REMARK  Name = NuBBE_1496
REMARK  5 active torsions:
REMARK  status: ('A' for Active; 'I' for Inactive)
REMARK    1  A    between atoms: C_1  and  C_2
REMARK    2  A    between atoms: C_1  and  C_3
REMARK    3  A    between atoms: C_1  and  C_4
REMARK    4  A    between atoms: C_11  and  C_13
REMARK    5  A    between atoms: C_14  and  C_18
REMARK                            x       y       z     vdW  Elec       q    Type
REMARK                         _______ _______ _______ _____ _____    ______ ____
ROOT
ATOM      1  C   LIG A   1      -6.478  -0.210 125.455  0.00  0.00    +0.002 C 
ATOM      2  C   LIG A   1      -6.843  -0.657 124.001  0.00  0.00    +0.041 C 
ATOM      3  C   LIG A   1      -7.085  -2.164 123.974  0.00  0.00    -0.063 C 
ATOM      4  C   LIG A   1      -8.243  -2.705 123.553  0.00  0.00    -0.022 C 
ATOM      5  C   LIG A   1      -9.410  -1.909 123.045  0.00  0.00    +0.057 C 
ATOM      6  C   LIG A   1      -9.158  -0.425 122.991  0.00  0.00    -0.072 C 
ATOM      7  C   LIG A   1      -8.006   0.124 123.418  0.00  0.00    -0.020 C 
ATOM      8  C   LIG A   1     -10.269   0.404 122.415  0.00  0.00    +0.039 C 
ATOM      9  C   LIG A   1      -5.962  -3.031 124.505  0.00  0.00    +0.012 C 
ATOM     10  C   LIG A   1      -5.577  -2.561 125.912  0.00  0.00    +0.008 C 
ATOM     11  C   LIG A   1      -5.299  -1.059 125.992  0.00  0.00    +0.005 C 
ATOM     12  C   LIG A   1      -4.764  -3.056 123.552  0.00  0.00    +0.012 C 
ENDROOT
BRANCH   1  13
ATOM     13  C   LIG A   1      -6.215   1.323 125.610  0.00  0.00    -0.013 C 
ATOM     14  C   LIG A   1      -7.309   2.020 126.428  0.00  0.00    +0.007 C 
ATOM     15  C   LIG A   1      -4.843   1.666 126.198  0.00  0.00    +0.007 C 
ENDBRANCH   1  13
TORSDOF 1
ENDMDL
MODEL 6
REMARK VINA RESULT:      -6.0      3.722      6.329
REMARK  Name = NuBBE_1496
REMARK  5 active torsions:
REMARK  status: ('A' for Active; 'I' for Inactive)
REMARK    1  A    between atoms: C_1  and  C_2
REMARK    2  A    between atoms: C_1  and  C_3
REMARK    3  A    between atoms: C_1  and  C_4
REMARK    4  A    between atoms: C_11  and  C_13
REMARK    5  A    between atoms: C_14  and  C_18
REMARK                            x       y       z     vdW  Elec       q    Type
REMARK                         _______ _______ _______ _____ _____    ______ ____
ROOT
ATOM      1  C   LIG A   1      -7.337  -1.288 131.135  0.00  0.00    +0.002 C 
ATOM      2  C   LIG A   1      -7.522  -2.831 131.318  0.00  0.00    +0.041 C 
ATOM      3  C   LIG A   1      -6.848  -3.567 130.163  0.00  0.00    -0.063 C 
ATOM      4  C   LIG A   1      -5.884  -4.488 130.354  0.00  0.00    -0.022 C 
ATOM      5  C   LIG A   1      -5.379  -4.913 131.702  0.00  0.00    +0.057 C 
ATOM      6  C   LIG A   1      -6.089  -4.252 132.855  0.00  0.00    -0.072 C 
ATOM      7  C   LIG A   1      -7.047  -3.326 132.672  0.00  0.00    -0.020 C 
ATOM      8  C   LIG A   1      -5.671  -4.706 134.223  0.00  0.00    +0.039 C 
ATOM      9  C   LIG A   1      -7.283  -3.166 128.769  0.00  0.00    +0.012 C 
ATOM     10  C   LIG A   1      -7.144  -1.648 128.609  0.00  0.00    +0.008 C 
ATOM     11  C   LIG A   1      -7.822  -0.857 129.729  0.00  0.00    +0.005 C 
ATOM     12  C   LIG A   1      -8.699  -3.656 128.452  0.00  0.00    +0.012 C 
ENDROOT
BRANCH   1  13
ATOM     13  C   LIG A   1      -7.981  -0.424 132.268  0.00  0.00    -0.013 C 
ATOM     14  C   LIG A   1      -6.953   0.476 132.966  0.00  0.00    +0.007 C 
ATOM     15  C   LIG A   1      -9.171   0.423 131.808  0.00  0.00    +0.007 C 
ENDBRANCH   1  13
TORSDOF 1
ENDMDL
MODEL 7
REMARK VINA RESULT:      -5.9      1.917      4.347
REMARK  Name = NuBBE_1496
REMARK  5 active torsions:
REMARK  status: ('A' for Active; 'I' for Inactive)
REMARK    1  A    between atoms: C_1  and  C_2
REMARK    2  A    between atoms: C_1  and  C_3
REMARK    3  A    between atoms: C_1  and  C_4
REMARK    4  A    between atoms: C_11  and  C_13
REMARK    5  A    between atoms: C_14  and  C_18
REMARK                            x       y       z     vdW  Elec       q    Type
REMARK                         _______ _______ _______ _____ _____    ______ ____
ROOT
ATOM      1  C   LIG A   1      -7.800  -2.024 127.726  0.00  0.00    +0.002 C 
ATOM      2  C   LIG A   1      -6.784  -1.763 126.565  0.00  0.00    +0.041 C 
ATOM      3  C   LIG A   1      -7.541  -1.600 125.249  0.00  0.00    -0.063 C 
ATOM      4  C   LIG A   1      -7.439  -0.495 124.487  0.00  0.00    -0.022 C 
ATOM      5  C   LIG A   1      -6.566   0.681 124.818  0.00  0.00    +0.057 C 
ATOM      6  C   LIG A   1      -5.752   0.502 126.073  0.00  0.00    -0.072 C 
ATOM      7  C   LIG A   1      -5.856  -0.596 126.845  0.00  0.00    -0.020 C 
ATOM      8  C   LIG A   1      -4.806   1.619 126.401  0.00  0.00    +0.039 C 
ATOM      9  C   LIG A   1      -8.469  -2.733 124.867  0.00  0.00    +0.012 C 
ATOM     10  C   LIG A   1      -9.433  -3.015 126.024  0.00  0.00    +0.008 C 
ATOM     11  C   LIG A   1      -8.726  -3.212 127.366  0.00  0.00    +0.005 C 
ATOM     12  C   LIG A   1      -7.695  -3.982 124.437  0.00  0.00    +0.012 C 
ENDROOT
BRANCH   1  13
ATOM     13  C   LIG A   1      -7.140  -2.200 129.132  0.00  0.00    -0.013 C 
ATOM     14  C   LIG A   1      -7.739  -1.252 130.178  0.00  0.00    +0.007 C 
ATOM     15  C   LIG A   1      -7.177  -3.636 129.665  0.00  0.00    +0.007 C 
ENDBRANCH   1  13
TORSDOF 1
ENDMDL
MODEL 8
REMARK VINA RESULT:      -5.9      1.528      4.215
REMARK  Name = NuBBE_1496
REMARK  5 active torsions:
REMARK  status: ('A' for Active; 'I' for Inactive)
REMARK    1  A    between atoms: C_1  and  C_2
REMARK    2  A    between atoms: C_1  and  C_3
REMARK    3  A    between atoms: C_1  and  C_4
REMARK    4  A    between atoms: C_11  and  C_13
REMARK    5  A    between atoms: C_14  and  C_18
REMARK                            x       y       z     vdW  Elec       q    Type
REMARK                         _______ _______ _______ _____ _____    ______ ____
ROOT
ATOM      1  C   LIG A   1      -6.399  -1.897 124.779  0.00  0.00    +0.002 C 
ATOM      2  C   LIG A   1      -7.933  -1.725 125.032  0.00  0.00    +0.041 C 
ATOM      3  C   LIG A   1      -8.154  -0.848 126.263  0.00  0.00    -0.063 C 
ATOM      4  C   LIG A   1      -8.865   0.294 126.220  0.00  0.00    -0.022 C 
ATOM      5  C   LIG A   1      -9.536   0.825 124.988  0.00  0.00    +0.057 C 
ATOM      6  C   LIG A   1      -9.394  -0.069 123.783  0.00  0.00    -0.072 C 
ATOM      7  C   LIG A   1      -8.677  -1.208 123.816  0.00  0.00    -0.020 C 
ATOM      8  C   LIG A   1     -10.115   0.383 122.548  0.00  0.00    +0.039 C 
ATOM      9  C   LIG A   1      -7.476  -1.304 127.538  0.00  0.00    +0.012 C 
ATOM     10  C   LIG A   1      -5.982  -1.515 127.275  0.00  0.00    +0.008 C 
ATOM     11  C   LIG A   1      -5.701  -2.407 126.065  0.00  0.00    +0.005 C 
ATOM     12  C   LIG A   1      -8.145  -2.551 128.123  0.00  0.00    +0.012 C 
ENDROOT
BRANCH   1  13
ATOM     13  C   LIG A   1      -6.046  -2.773 123.533  0.00  0.00    -0.013 C 
ATOM     14  C   LIG A   1      -5.852  -1.930 122.267  0.00  0.00    +0.007 C 
ATOM     15  C   LIG A   1      -4.829  -3.682 123.732  0.00  0.00    +0.007 C 
ENDBRANCH   1  13
TORSDOF 1
ENDMDL
MODEL 9
REMARK VINA RESULT:      -5.8      1.829      2.988
REMARK  Name = NuBBE_1496
REMARK  5 active torsions:
REMARK  status: ('A' for Active; 'I' for Inactive)
REMARK    1  A    between atoms: C_1  and  C_2
REMARK    2  A    between atoms: C_1  and  C_3
REMARK    3  A    between atoms: C_1  and  C_4
REMARK    4  A    between atoms: C_11  and  C_13
REMARK    5  A    between atoms: C_14  and  C_18
REMARK                            x       y       z     vdW  Elec       q    Type
REMARK                         _______ _______ _______ _____ _____    ______ ____
ROOT
ATOM      1  C   LIG A   1      -6.354  -1.632 125.582  0.00  0.00    +0.002 C 
ATOM      2  C   LIG A   1      -7.745  -1.735 126.291  0.00  0.00    +0.041 C 
ATOM      3  C   LIG A   1      -8.249  -3.175 126.223  0.00  0.00    -0.063 C 
ATOM      4  C   LIG A   1      -8.553  -3.889 127.323  0.00  0.00    -0.022 C 
ATOM      5  C   LIG A   1      -8.460  -3.361 128.724  0.00  0.00    +0.057 C 
ATOM      6  C   LIG A   1      -8.039  -1.916 128.805  0.00  0.00    -0.072 C 
ATOM      7  C   LIG A   1      -7.725  -1.199 127.710  0.00  0.00    -0.020 C 
ATOM      8  C   LIG A   1      -8.007  -1.323 130.182  0.00  0.00    +0.039 C 
ATOM      9  C   LIG A   1      -8.337  -3.787 124.841  0.00  0.00    +0.012 C 
ATOM     10  C   LIG A   1      -6.986  -3.644 124.133  0.00  0.00    +0.008 C 
ATOM     11  C   LIG A   1      -6.443  -2.214 124.149  0.00  0.00    +0.005 C 
ATOM     12  C   LIG A   1      -9.488  -3.189 124.026  0.00  0.00    +0.012 C 
ENDROOT
BRANCH   1  13
ATOM     13  C   LIG A   1      -5.730  -0.199 125.596  0.00  0.00    -0.013 C 
ATOM     14  C   LIG A   1      -6.700   0.862 125.062  0.00  0.00    +0.007 C 
ATOM     15  C   LIG A   1      -5.198   0.239 126.964  0.00  0.00    +0.007 C 
ENDBRANCH   1  13
TORSDOF 1
ENDMDL
