MODEL 1
REMARK VINA RESULT:      -8.3      0.000      0.000
REMARK  Name = NuBBE_1256
REMARK  15 active torsions:
REMARK  status: ('A' for Active; 'I' for Inactive)
REMARK    1  A    between atoms: C_2  and  C_29
REMARK    2  A    between atoms: C_5  and  C_6
REMARK    3  A    between atoms: C_13  and  C_14
REMARK    4  A    between atoms: C_13  and  C_15
REMARK    5  A    between atoms: C_15  and  C_16
REMARK    6  A    between atoms: C_16  and  C_17
REMARK    7  A    between atoms: C_17  and  O_18
REMARK    8  A    between atoms: C_20  and  C_26
REMARK    9  A    between atoms: C_24  and  C_25
REMARK   10  A    between atoms: C_26  and  C_27
REMARK   11  A    between atoms: C_29  and  C_30
REMARK   12  A    between atoms: C_33  and  C_36
REMARK   13  A    between atoms: C_36  and  C_37
REMARK   14  A    between atoms: C_36  and  C_38
REMARK   15  A    between atoms: C_36  and  O_39
REMARK                            x       y       z     vdW  Elec       q    Type
REMARK                         _______ _______ _______ _____ _____    ______ ____
ROOT
ATOM      1  C   LIG A   1      -6.499   2.069 129.842  0.00  0.00    +0.024 C 
ATOM      2  C   LIG A   1      -5.075   1.510 129.720  0.00  0.00    +0.007 C 
ATOM      3  C   LIG A   1      -5.213   0.057 129.298  0.00  0.00    +0.008 C 
ATOM      4  C   LIG A   1      -6.536  -0.072 128.498  0.00  0.00    -0.023 C 
ATOM      5  C   LIG A   1      -7.131  -1.456 128.886  0.00  0.00    +0.012 C 
ATOM      6  C   LIG A   1      -7.436   1.033 129.139  0.00  0.00    +0.001 C 
ATOM      7  C   LIG A   1      -8.543   1.657 128.266  0.00  0.00    +0.005 C 
ATOM      8  C   LIG A   1      -8.390   1.610 126.741  0.00  0.00    +0.005 C 
ATOM      9  C   LIG A   1      -7.792   0.269 126.283  0.00  0.00    +0.002 C 
ATOM     10  C   LIG A   1      -7.947  -0.146 124.750  0.00  0.00    -0.022 C 
ATOM     11  C   LIG A   1      -9.386   0.222 124.295  0.00  0.00    +0.012 C 
ATOM     12  C   LIG A   1      -7.652  -1.717 124.663  0.00  0.00    +0.020 C 
ATOM     13  C   LIG A   1      -6.615  -2.202 125.717  0.00  0.00    +0.009 C 
ATOM     14  C   LIG A   1      -5.660  -1.127 126.249  0.00  0.00    +0.008 C 
ATOM     15  C   LIG A   1      -6.363   0.097 126.909  0.00  0.00    -0.023 C 
ATOM     16  C   LIG A   1      -5.469   1.340 126.620  0.00  0.00    +0.012 C 
ENDROOT
BRANCH   1  17
ATOM     17  C   LIG A   1      -6.899   2.360 131.323  0.00  0.00    +0.070 C 
ATOM     18  C   LIG A   1      -5.660   2.412 132.239  0.00  0.00    +0.042 C 
ATOM     19  C   LIG A   1      -7.931   1.378 131.892  0.00  0.00    +0.037 C 
ATOM     20  C   LIG A   1      -8.702   2.229 132.867  0.00  0.00    +0.037 C 
ATOM     21  C   LIG A   1      -8.729   3.583 132.169  0.00  0.00    +0.150 C 
ATOM     22  O   LIG A   1      -7.515   3.667 131.390  0.00  0.00    -0.367 OA
BRANCH  21  23
ATOM     23  C   LIG A   1      -8.886   4.799 133.118  0.00  0.00    +0.086 C 
ATOM     24  C   LIG A   1      -8.396   4.453 134.529  0.00  0.00    +0.043 C 
ATOM     25  C   LIG A   1      -8.120   6.011 132.580  0.00  0.00    +0.043 C 
BRANCH  23  26
ATOM     26  O   LIG A   1     -10.269   5.176 133.197  0.00  0.00    -0.387 OA
ATOM     27  H   LIG A   1     -10.797   4.471 132.787  0.00  0.00    +0.210 HD
ENDBRANCH  23  26
ENDBRANCH  21  23
ENDBRANCH   1  17
BRANCH  12  28
ATOM     28  C   LIG A   1      -8.865  -2.673 124.624  0.00  0.00    -0.076 C 
ATOM     29  C   LIG A   1      -9.401  -3.169 123.304  0.00  0.00    +0.038 C 
ATOM     30  C   LIG A   1      -9.492  -3.070 125.749  0.00  0.00    +0.007 C 
ENDBRANCH  12  28
BRANCH  10  31
ATOM     31  C   LIG A   1      -6.983   0.627 123.766  0.00  0.00    +0.018 C 
BRANCH  31  32
ATOM     32  C   LIG A   1      -7.566   1.861 123.042  0.00  0.00    +0.121 C 
BRANCH  32  33
ATOM     33  C   LIG A   1      -7.097   3.167 123.646  0.00  0.00    +0.305 C 
ATOM     34  O   LIG A   1      -5.961   3.540 123.823  0.00  0.00    -0.251 OA
BRANCH  33  35
ATOM     35  O   LIG A   1      -8.144   3.959 123.976  0.00  0.00    -0.481 OA
ATOM     36  H   LIG A   1      -8.862   3.332 124.200  0.00  0.00    +0.295 HD
ENDBRANCH  33  35
ENDBRANCH  32  33
ENDBRANCH  31  32
ENDBRANCH  10  31
TORSDOF 8
ENDMDL
MODEL 2
REMARK VINA RESULT:      -8.2      4.309      6.000
REMARK  Name = NuBBE_1256
REMARK  15 active torsions:
REMARK  status: ('A' for Active; 'I' for Inactive)
REMARK    1  A    between atoms: C_2  and  C_29
REMARK    2  A    between atoms: C_5  and  C_6
REMARK    3  A    between atoms: C_13  and  C_14
REMARK    4  A    between atoms: C_13  and  C_15
REMARK    5  A    between atoms: C_15  and  C_16
REMARK    6  A    between atoms: C_16  and  C_17
REMARK    7  A    between atoms: C_17  and  O_18
REMARK    8  A    between atoms: C_20  and  C_26
REMARK    9  A    between atoms: C_24  and  C_25
REMARK   10  A    between atoms: C_26  and  C_27
REMARK   11  A    between atoms: C_29  and  C_30
REMARK   12  A    between atoms: C_33  and  C_36
REMARK   13  A    between atoms: C_36  and  C_37
REMARK   14  A    between atoms: C_36  and  C_38
REMARK   15  A    between atoms: C_36  and  O_39
REMARK                            x       y       z     vdW  Elec       q    Type
REMARK                         _______ _______ _______ _____ _____    ______ ____
ROOT
ATOM      1  C   LIG A   1      -6.114  -2.992 131.351  0.00  0.00    +0.024 C 
ATOM      2  C   LIG A   1      -5.230  -1.745 131.480  0.00  0.00    +0.007 C 
ATOM      3  C   LIG A   1      -4.456  -1.622 130.178  0.00  0.00    +0.008 C 
ATOM      4  C   LIG A   1      -5.319  -2.268 129.062  0.00  0.00    -0.023 C 
ATOM      5  C   LIG A   1      -4.313  -2.978 128.110  0.00  0.00    +0.012 C 
ATOM      6  C   LIG A   1      -6.110  -3.374 129.834  0.00  0.00    +0.001 C 
ATOM      7  C   LIG A   1      -7.481  -3.801 129.274  0.00  0.00    +0.005 C 
ATOM      8  C   LIG A   1      -8.249  -2.818 128.381  0.00  0.00    +0.005 C 
ATOM      9  C   LIG A   1      -7.297  -2.065 127.436  0.00  0.00    +0.002 C 
ATOM     10  C   LIG A   1      -7.918  -1.334 126.161  0.00  0.00    -0.022 C 
ATOM     11  C   LIG A   1      -8.992  -2.270 125.545  0.00  0.00    +0.012 C 
ATOM     12  C   LIG A   1      -6.704  -1.040 125.159  0.00  0.00    +0.020 C 
ATOM     13  C   LIG A   1      -5.358  -0.773 125.893  0.00  0.00    +0.009 C 
ATOM     14  C   LIG A   1      -5.480  -0.282 127.340  0.00  0.00    +0.008 C 
ATOM     15  C   LIG A   1      -6.272  -1.234 128.285  0.00  0.00    -0.023 C 
ATOM     16  C   LIG A   1      -7.004  -0.332 129.324  0.00  0.00    +0.012 C 
ENDROOT
BRANCH   1  17
ATOM     17  C   LIG A   1      -5.644  -4.154 132.281  0.00  0.00    +0.070 C 
ATOM     18  C   LIG A   1      -5.547  -5.486 131.512  0.00  0.00    +0.042 C 
ATOM     19  C   LIG A   1      -6.511  -4.335 133.534  0.00  0.00    +0.037 C 
ATOM     20  C   LIG A   1      -5.524  -4.840 134.555  0.00  0.00    +0.037 C 
ATOM     21  C   LIG A   1      -4.256  -4.081 134.186  0.00  0.00    +0.150 C 
ATOM     22  O   LIG A   1      -4.312  -3.858 132.760  0.00  0.00    -0.367 OA
BRANCH  21  23
ATOM     23  C   LIG A   1      -2.937  -4.781 134.605  0.00  0.00    +0.086 C 
ATOM     24  C   LIG A   1      -2.248  -4.007 135.735  0.00  0.00    +0.043 C 
ATOM     25  C   LIG A   1      -3.203  -6.224 135.045  0.00  0.00    +0.043 C 
BRANCH  23  26
ATOM     26  O   LIG A   1      -2.043  -4.841 133.483  0.00  0.00    -0.387 OA
ATOM     27  H   LIG A   1      -1.547  -5.674 133.538  0.00  0.00    +0.210 HD
ENDBRANCH  23  26
ENDBRANCH  21  23
ENDBRANCH   1  17
BRANCH  12  28
ATOM     28  C   LIG A   1      -6.488  -2.022 123.986  0.00  0.00    -0.076 C 
ATOM     29  C   LIG A   1      -5.765  -3.327 124.208  0.00  0.00    +0.038 C 
ATOM     30  C   LIG A   1      -6.908  -1.739 122.737  0.00  0.00    +0.007 C 
ENDBRANCH  12  28
BRANCH  10  31
ATOM     31  C   LIG A   1      -8.669   0.016 126.487  0.00  0.00    +0.018 C 
BRANCH  31  32
ATOM     32  C   LIG A   1      -8.359   1.226 125.577  0.00  0.00    +0.121 C 
BRANCH  32  33
ATOM     33  C   LIG A   1      -9.490   1.542 124.622  0.00  0.00    +0.305 C 
ATOM     34  O   LIG A   1     -10.191   0.766 124.014  0.00  0.00    -0.251 OA
BRANCH  33  35
ATOM     35  O   LIG A   1      -9.683   2.878 124.516  0.00  0.00    -0.481 OA
ATOM     36  H   LIG A   1      -8.901   3.271 124.955  0.00  0.00    +0.295 HD
ENDBRANCH  33  35
ENDBRANCH  32  33
ENDBRANCH  31  32
ENDBRANCH  10  31
TORSDOF 8
ENDMDL
MODEL 3
REMARK VINA RESULT:      -8.1      3.640      8.620
REMARK  Name = NuBBE_1256
REMARK  15 active torsions:
REMARK  status: ('A' for Active; 'I' for Inactive)
REMARK    1  A    between atoms: C_2  and  C_29
REMARK    2  A    between atoms: C_5  and  C_6
REMARK    3  A    between atoms: C_13  and  C_14
REMARK    4  A    between atoms: C_13  and  C_15
REMARK    5  A    between atoms: C_15  and  C_16
REMARK    6  A    between atoms: C_16  and  C_17
REMARK    7  A    between atoms: C_17  and  O_18
REMARK    8  A    between atoms: C_20  and  C_26
REMARK    9  A    between atoms: C_24  and  C_25
REMARK   10  A    between atoms: C_26  and  C_27
REMARK   11  A    between atoms: C_29  and  C_30
REMARK   12  A    between atoms: C_33  and  C_36
REMARK   13  A    between atoms: C_36  and  C_37
REMARK   14  A    between atoms: C_36  and  C_38
REMARK   15  A    between atoms: C_36  and  O_39
REMARK                            x       y       z     vdW  Elec       q    Type
REMARK                         _______ _______ _______ _____ _____    ______ ____
ROOT
ATOM      1  C   LIG A   1      -7.156  -2.491 126.154  0.00  0.00    +0.024 C 
ATOM      2  C   LIG A   1      -5.812  -1.856 125.774  0.00  0.00    +0.007 C 
ATOM      3  C   LIG A   1      -5.562  -0.736 126.770  0.00  0.00    +0.008 C 
ATOM      4  C   LIG A   1      -6.284  -1.117 128.090  0.00  0.00    -0.023 C 
ATOM      5  C   LIG A   1      -6.840   0.217 128.667  0.00  0.00    +0.012 C 
ATOM      6  C   LIG A   1      -7.498  -1.965 127.587  0.00  0.00    +0.001 C 
ATOM      7  C   LIG A   1      -8.078  -3.027 128.541  0.00  0.00    +0.005 C 
ATOM      8  C   LIG A   1      -7.177  -3.593 129.646  0.00  0.00    +0.005 C 
ATOM      9  C   LIG A   1      -6.289  -2.496 130.257  0.00  0.00    +0.002 C 
ATOM     10  C   LIG A   1      -5.610  -2.773 131.674  0.00  0.00    -0.022 C 
ATOM     11  C   LIG A   1      -6.657  -3.474 132.581  0.00  0.00    +0.012 C 
ATOM     12  C   LIG A   1      -5.144  -1.353 132.249  0.00  0.00    +0.020 C 
ATOM     13  C   LIG A   1      -4.729  -0.350 131.135  0.00  0.00    +0.009 C 
ATOM     14  C   LIG A   1      -4.292  -0.979 129.807  0.00  0.00    +0.008 C 
ATOM     15  C   LIG A   1      -5.358  -1.901 129.143  0.00  0.00    -0.023 C 
ATOM     16  C   LIG A   1      -4.579  -3.029 128.400  0.00  0.00    +0.012 C 
ENDROOT
BRANCH   1  17
ATOM     17  C   LIG A   1      -8.273  -2.195 125.105  0.00  0.00    +0.070 C 
ATOM     18  C   LIG A   1      -9.620  -2.811 125.529  0.00  0.00    +0.042 C 
ATOM     19  C   LIG A   1      -7.918  -2.639 123.680  0.00  0.00    +0.037 C 
ATOM     20  C   LIG A   1      -8.638  -1.627 122.825  0.00  0.00    +0.037 C 
ATOM     21  C   LIG A   1      -8.513  -0.353 123.651  0.00  0.00    +0.150 C 
ATOM     22  O   LIG A   1      -8.479  -0.765 125.036  0.00  0.00    -0.367 OA
BRANCH  21  23
ATOM     23  C   LIG A   1      -9.623   0.698 123.393  0.00  0.00    +0.086 C 
ATOM     24  C   LIG A   1     -10.303   1.102 124.706  0.00  0.00    +0.043 C 
ATOM     25  C   LIG A   1      -9.048   1.937 122.699  0.00  0.00    +0.043 C 
BRANCH  23  26
ATOM     26  O   LIG A   1     -10.617   0.148 122.516  0.00  0.00    -0.387 OA
ATOM     27  H   LIG A   1     -11.492   0.405 122.853  0.00  0.00    +0.210 HD
ENDBRANCH  23  26
ENDBRANCH  21  23
ENDBRANCH   1  17
BRANCH  12  28
ATOM     28  C   LIG A   1      -6.063  -0.660 133.280  0.00  0.00    -0.076 C 
ATOM     29  C   LIG A   1      -7.269   0.120 132.821  0.00  0.00    +0.038 C 
ATOM     30  C   LIG A   1      -5.807  -0.704 134.603  0.00  0.00    +0.007 C 
ENDBRANCH  12  28
BRANCH  10  31
ATOM     31  C   LIG A   1      -4.372  -3.752 131.622  0.00  0.00    +0.018 C 
BRANCH  31  32
ATOM     32  C   LIG A   1      -4.169  -4.685 132.837  0.00  0.00    +0.121 C 
BRANCH  32  33
ATOM     33  C   LIG A   1      -3.055  -4.219 133.750  0.00  0.00    +0.305 C 
ATOM     34  O   LIG A   1      -3.079  -3.315 134.553  0.00  0.00    -0.251 OA
BRANCH  33  35
ATOM     35  O   LIG A   1      -1.945  -4.978 133.596  0.00  0.00    -0.481 OA
ATOM     36  H   LIG A   1      -2.262  -5.780 133.131  0.00  0.00    +0.295 HD
ENDBRANCH  33  35
ENDBRANCH  32  33
ENDBRANCH  31  32
ENDBRANCH  10  31
TORSDOF 8
ENDMDL
MODEL 4
REMARK VINA RESULT:      -7.7      2.327      8.160
REMARK  Name = NuBBE_1256
REMARK  15 active torsions:
REMARK  status: ('A' for Active; 'I' for Inactive)
REMARK    1  A    between atoms: C_2  and  C_29
REMARK    2  A    between atoms: C_5  and  C_6
REMARK    3  A    between atoms: C_13  and  C_14
REMARK    4  A    between atoms: C_13  and  C_15
REMARK    5  A    between atoms: C_15  and  C_16
REMARK    6  A    between atoms: C_16  and  C_17
REMARK    7  A    between atoms: C_17  and  O_18
REMARK    8  A    between atoms: C_20  and  C_26
REMARK    9  A    between atoms: C_24  and  C_25
REMARK   10  A    between atoms: C_26  and  C_27
REMARK   11  A    between atoms: C_29  and  C_30
REMARK   12  A    between atoms: C_33  and  C_36
REMARK   13  A    between atoms: C_36  and  C_37
REMARK   14  A    between atoms: C_36  and  C_38
REMARK   15  A    between atoms: C_36  and  O_39
REMARK                            x       y       z     vdW  Elec       q    Type
REMARK                         _______ _______ _______ _____ _____    ______ ____
ROOT
ATOM      1  C   LIG A   1      -8.213  -1.330 128.421  0.00  0.00    +0.024 C 
ATOM      2  C   LIG A   1      -7.975  -2.095 129.730  0.00  0.00    +0.007 C 
ATOM      3  C   LIG A   1      -6.682  -1.556 130.320  0.00  0.00    +0.008 C 
ATOM      4  C   LIG A   1      -6.528  -0.089 129.841  0.00  0.00    -0.023 C 
ATOM      5  C   LIG A   1      -5.005   0.115 129.591  0.00  0.00    +0.012 C 
ATOM      6  C   LIG A   1      -7.243  -0.103 128.451  0.00  0.00    +0.001 C 
ATOM      7  C   LIG A   1      -7.860   1.216 127.945  0.00  0.00    +0.005 C 
ATOM      8  C   LIG A   1      -8.242   2.290 128.972  0.00  0.00    +0.005 C 
ATOM      9  C   LIG A   1      -7.200   2.377 130.100  0.00  0.00    +0.002 C 
ATOM     10  C   LIG A   1      -7.179   3.686 131.012  0.00  0.00    -0.022 C 
ATOM     11  C   LIG A   1      -7.383   4.919 130.090  0.00  0.00    +0.012 C 
ATOM     12  C   LIG A   1      -5.766   3.702 131.765  0.00  0.00    +0.020 C 
ATOM     13  C   LIG A   1      -5.220   2.277 132.070  0.00  0.00    +0.009 C 
ATOM     14  C   LIG A   1      -6.275   1.166 132.142  0.00  0.00    +0.008 C 
ATOM     15  C   LIG A   1      -7.134   1.002 130.853  0.00  0.00    -0.023 C 
ATOM     16  C   LIG A   1      -8.551   0.543 131.312  0.00  0.00    +0.012 C 
ENDROOT
BRANCH   1  17
ATOM     17  C   LIG A   1      -8.029  -2.233 127.162  0.00  0.00    +0.070 C 
ATOM     18  C   LIG A   1      -8.619  -3.639 127.389  0.00  0.00    +0.042 C 
ATOM     19  C   LIG A   1      -6.575  -2.346 126.685  0.00  0.00    +0.037 C 
ATOM     20  C   LIG A   1      -6.723  -2.512 125.195  0.00  0.00    +0.037 C 
ATOM     21  C   LIG A   1      -7.925  -1.629 124.885  0.00  0.00    +0.150 C 
ATOM     22  O   LIG A   1      -8.764  -1.652 126.061  0.00  0.00    -0.367 OA
BRANCH  21  23
ATOM     23  C   LIG A   1      -8.712  -2.029 123.610  0.00  0.00    +0.086 C 
ATOM     24  C   LIG A   1      -7.779  -2.097 122.396  0.00  0.00    +0.043 C 
ATOM     25  C   LIG A   1      -9.415  -3.376 123.806  0.00  0.00    +0.043 C 
BRANCH  23  26
ATOM     26  O   LIG A   1      -9.733  -1.055 123.347  0.00  0.00    -0.387 OA
ATOM     27  H   LIG A   1     -10.108  -0.775 124.198  0.00  0.00    +0.210 HD
ENDBRANCH  23  26
ENDBRANCH  21  23
ENDBRANCH   1  17
BRANCH  12  28
ATOM     28  C   LIG A   1      -4.648   4.589 131.173  0.00  0.00    -0.076 C 
ATOM     29  C   LIG A   1      -3.818   4.096 130.014  0.00  0.00    +0.038 C 
ATOM     30  C   LIG A   1      -4.361   5.804 131.682  0.00  0.00    +0.007 C 
ENDBRANCH  12  28
BRANCH  10  31
ATOM     31  C   LIG A   1      -8.344   3.756 132.076  0.00  0.00    +0.018 C 
BRANCH  31  32
ATOM     32  C   LIG A   1      -9.669   4.405 131.618  0.00  0.00    +0.121 C 
BRANCH  32  33
ATOM     33  C   LIG A   1     -10.025   5.635 132.425  0.00  0.00    +0.305 C 
ATOM     34  O   LIG A   1      -9.289   6.329 133.089  0.00  0.00    -0.251 OA
BRANCH  33  35
ATOM     35  O   LIG A   1     -11.340   5.933 132.311  0.00  0.00    -0.481 OA
ATOM     36  H   LIG A   1     -11.396   6.880 132.556  0.00  0.00    +0.295 HD
ENDBRANCH  33  35
ENDBRANCH  32  33
ENDBRANCH  31  32
ENDBRANCH  10  31
TORSDOF 8
ENDMDL
MODEL 5
REMARK VINA RESULT:      -7.6      4.072      5.480
REMARK  Name = NuBBE_1256
REMARK  15 active torsions:
REMARK  status: ('A' for Active; 'I' for Inactive)
REMARK    1  A    between atoms: C_2  and  C_29
REMARK    2  A    between atoms: C_5  and  C_6
REMARK    3  A    between atoms: C_13  and  C_14
REMARK    4  A    between atoms: C_13  and  C_15
REMARK    5  A    between atoms: C_15  and  C_16
REMARK    6  A    between atoms: C_16  and  C_17
REMARK    7  A    between atoms: C_17  and  O_18
REMARK    8  A    between atoms: C_20  and  C_26
REMARK    9  A    between atoms: C_24  and  C_25
REMARK   10  A    between atoms: C_26  and  C_27
REMARK   11  A    between atoms: C_29  and  C_30
REMARK   12  A    between atoms: C_33  and  C_36
REMARK   13  A    between atoms: C_36  and  C_37
REMARK   14  A    between atoms: C_36  and  C_38
REMARK   15  A    between atoms: C_36  and  O_39
REMARK                            x       y       z     vdW  Elec       q    Type
REMARK                         _______ _______ _______ _____ _____    ______ ____
ROOT
ATOM      1  C   LIG A   1      -5.910  -2.240 131.547  0.00  0.00    +0.024 C 
ATOM      2  C   LIG A   1      -4.995  -1.015 131.417  0.00  0.00    +0.007 C 
ATOM      3  C   LIG A   1      -4.297  -1.133 130.073  0.00  0.00    +0.008 C 
ATOM      4  C   LIG A   1      -5.235  -1.931 129.129  0.00  0.00    -0.023 C 
ATOM      5  C   LIG A   1      -4.301  -2.819 128.257  0.00  0.00    +0.012 C 
ATOM      6  C   LIG A   1      -6.001  -2.869 130.118  0.00  0.00    +0.001 C 
ATOM      7  C   LIG A   1      -7.411  -3.344 129.713  0.00  0.00    +0.005 C 
ATOM      8  C   LIG A   1      -8.210  -2.502 128.710  0.00  0.00    +0.005 C 
ATOM      9  C   LIG A   1      -7.301  -1.946 127.602  0.00  0.00    +0.002 C 
ATOM     10  C   LIG A   1      -7.979  -1.420 126.257  0.00  0.00    -0.022 C 
ATOM     11  C   LIG A   1      -9.106  -2.415 125.866  0.00  0.00    +0.012 C 
ATOM     12  C   LIG A   1      -6.820  -1.333 125.156  0.00  0.00    +0.020 C 
ATOM     13  C   LIG A   1      -5.429  -0.986 125.761  0.00  0.00    +0.009 C 
ATOM     14  C   LIG A   1      -5.457  -0.257 127.109  0.00  0.00    +0.008 C 
ATOM     15  C   LIG A   1      -6.212  -1.015 128.242  0.00  0.00    -0.023 C 
ATOM     16  C   LIG A   1      -6.864   0.069 129.152  0.00  0.00    +0.012 C 
ENDROOT
BRANCH   1  17
ATOM     17  C   LIG A   1      -5.410  -3.243 132.633  0.00  0.00    +0.070 C 
ATOM     18  C   LIG A   1      -4.111  -2.748 133.299  0.00  0.00    +0.042 C 
ATOM     19  C   LIG A   1      -5.220  -4.675 132.116  0.00  0.00    +0.037 C 
ATOM     20  C   LIG A   1      -5.535  -5.514 133.328  0.00  0.00    +0.037 C 
ATOM     21  C   LIG A   1      -6.647  -4.716 133.997  0.00  0.00    +0.150 C 
ATOM     22  O   LIG A   1      -6.403  -3.327 133.681  0.00  0.00    -0.367 OA
BRANCH  21  23
ATOM     23  C   LIG A   1      -6.778  -4.941 135.526  0.00  0.00    +0.086 C 
ATOM     24  C   LIG A   1      -6.593  -3.623 136.286  0.00  0.00    +0.043 C 
ATOM     25  C   LIG A   1      -8.137  -5.558 135.870  0.00  0.00    +0.043 C 
BRANCH  23  26
ATOM     26  O   LIG A   1      -5.772  -5.866 135.966  0.00  0.00    -0.387 OA
ATOM     27  H   LIG A   1      -5.054  -5.357 136.376  0.00  0.00    +0.210 HD
ENDBRANCH  23  26
ENDBRANCH  21  23
ENDBRANCH   1  17
BRANCH  12  28
ATOM     28  C   LIG A   1      -6.692  -2.503 124.155  0.00  0.00    -0.076 C 
ATOM     29  C   LIG A   1      -7.511  -2.513 122.888  0.00  0.00    +0.038 C 
ATOM     30  C   LIG A   1      -5.879  -3.552 124.389  0.00  0.00    +0.007 C 
ENDBRANCH  12  28
BRANCH  10  31
ATOM     31  C   LIG A   1      -8.685  -0.013 126.391  0.00  0.00    +0.018 C 
BRANCH  31  32
ATOM     32  C   LIG A   1      -8.378   1.029 125.292  0.00  0.00    +0.121 C 
BRANCH  32  33
ATOM     33  C   LIG A   1      -9.630   1.658 124.720  0.00  0.00    +0.305 C 
ATOM     34  O   LIG A   1     -10.626   1.101 124.319  0.00  0.00    -0.251 OA
BRANCH  33  35
ATOM     35  O   LIG A   1      -9.543   3.008 124.717  0.00  0.00    -0.481 OA
ATOM     36  H   LIG A   1      -9.008   3.218 125.510  0.00  0.00    +0.295 HD
ENDBRANCH  33  35
ENDBRANCH  32  33
ENDBRANCH  31  32
ENDBRANCH  10  31
TORSDOF 8
ENDMDL
MODEL 6
REMARK VINA RESULT:      -7.6      3.068      4.052
REMARK  Name = NuBBE_1256
REMARK  15 active torsions:
REMARK  status: ('A' for Active; 'I' for Inactive)
REMARK    1  A    between atoms: C_2  and  C_29
REMARK    2  A    between atoms: C_5  and  C_6
REMARK    3  A    between atoms: C_13  and  C_14
REMARK    4  A    between atoms: C_13  and  C_15
REMARK    5  A    between atoms: C_15  and  C_16
REMARK    6  A    between atoms: C_16  and  C_17
REMARK    7  A    between atoms: C_17  and  O_18
REMARK    8  A    between atoms: C_20  and  C_26
REMARK    9  A    between atoms: C_24  and  C_25
REMARK   10  A    between atoms: C_26  and  C_27
REMARK   11  A    between atoms: C_29  and  C_30
REMARK   12  A    between atoms: C_33  and  C_36
REMARK   13  A    between atoms: C_36  and  C_37
REMARK   14  A    between atoms: C_36  and  C_38
REMARK   15  A    between atoms: C_36  and  O_39
REMARK                            x       y       z     vdW  Elec       q    Type
REMARK                         _______ _______ _______ _____ _____    ______ ____
ROOT
ATOM      1  C   LIG A   1      -4.801   4.347 128.839  0.00  0.00    +0.024 C 
ATOM      2  C   LIG A   1      -3.511   3.918 128.127  0.00  0.00    +0.007 C 
ATOM      3  C   LIG A   1      -3.486   2.399 128.149  0.00  0.00    +0.008 C 
ATOM      4  C   LIG A   1      -4.958   1.910 128.182  0.00  0.00    -0.023 C 
ATOM      5  C   LIG A   1      -4.963   0.652 129.099  0.00  0.00    +0.012 C 
ATOM      6  C   LIG A   1      -5.687   3.062 128.946  0.00  0.00    +0.001 C 
ATOM      7  C   LIG A   1      -7.184   3.286 128.652  0.00  0.00    +0.005 C 
ATOM      8  C   LIG A   1      -7.750   2.803 127.311  0.00  0.00    +0.005 C 
ATOM      9  C   LIG A   1      -7.138   1.452 126.903  0.00  0.00    +0.002 C 
ATOM     10  C   LIG A   1      -7.886   0.587 125.790  0.00  0.00    -0.022 C 
ATOM     11  C   LIG A   1      -9.412   0.660 126.068  0.00  0.00    +0.012 C 
ATOM     12  C   LIG A   1      -7.308  -0.902 125.895  0.00  0.00    +0.020 C 
ATOM     13  C   LIG A   1      -5.819  -0.948 126.347  0.00  0.00    +0.009 C 
ATOM     14  C   LIG A   1      -5.007   0.324 126.080  0.00  0.00    +0.008 C 
ATOM     15  C   LIG A   1      -5.587   1.614 126.734  0.00  0.00    -0.023 C 
ATOM     16  C   LIG A   1      -5.246   2.796 125.776  0.00  0.00    +0.012 C 
ENDROOT
BRANCH   1  17
ATOM     17  C   LIG A   1      -4.524   5.024 130.217  0.00  0.00    +0.070 C 
ATOM     18  C   LIG A   1      -5.071   4.174 131.381  0.00  0.00    +0.042 C 
ATOM     19  C   LIG A   1      -5.055   6.460 130.321  0.00  0.00    +0.037 C 
ATOM     20  C   LIG A   1      -4.067   7.115 131.252  0.00  0.00    +0.037 C 
ATOM     21  C   LIG A   1      -2.756   6.445 130.861  0.00  0.00    +0.150 C 
ATOM     22  O   LIG A   1      -3.094   5.114 130.412  0.00  0.00    -0.367 OA
BRANCH  21  23
ATOM     23  C   LIG A   1      -1.683   6.418 131.980  0.00  0.00    +0.086 C 
ATOM     24  C   LIG A   1      -1.906   7.564 132.974  0.00  0.00    +0.043 C 
ATOM     25  C   LIG A   1      -1.700   5.075 132.716  0.00  0.00    +0.043 C 
BRANCH  23  26
ATOM     26  O   LIG A   1      -0.377   6.564 131.402  0.00  0.00    -0.387 OA
ATOM     27  H   LIG A   1      -0.346   6.033 130.589  0.00  0.00    +0.210 HD
ENDBRANCH  23  26
ENDBRANCH  21  23
ENDBRANCH   1  17
BRANCH  12  28
ATOM     28  C   LIG A   1      -8.139  -1.941 126.681  0.00  0.00    -0.076 C 
ATOM     29  C   LIG A   1      -7.957  -2.091 128.171  0.00  0.00    +0.038 C 
ATOM     30  C   LIG A   1      -9.022  -2.754 126.068  0.00  0.00    +0.007 C 
ENDBRANCH  12  28
BRANCH  10  31
ATOM     31  C   LIG A   1      -7.698   1.122 124.316  0.00  0.00    +0.018 C 
BRANCH  31  32
ATOM     32  C   LIG A   1      -8.949   1.705 123.621  0.00  0.00    +0.121 C 
BRANCH  32  33
ATOM     33  C   LIG A   1      -8.647   2.965 122.838  0.00  0.00    +0.305 C 
ATOM     34  O   LIG A   1      -8.859   3.183 121.667  0.00  0.00    -0.251 OA
BRANCH  33  35
ATOM     35  O   LIG A   1      -8.098   3.915 123.630  0.00  0.00    -0.481 OA
ATOM     36  H   LIG A   1      -8.709   3.977 124.393  0.00  0.00    +0.295 HD
ENDBRANCH  33  35
ENDBRANCH  32  33
ENDBRANCH  31  32
ENDBRANCH  10  31
TORSDOF 8
ENDMDL
MODEL 7
REMARK VINA RESULT:      -7.5      4.309      8.802
REMARK  Name = NuBBE_1256
REMARK  15 active torsions:
REMARK  status: ('A' for Active; 'I' for Inactive)
REMARK    1  A    between atoms: C_2  and  C_29
REMARK    2  A    between atoms: C_5  and  C_6
REMARK    3  A    between atoms: C_13  and  C_14
REMARK    4  A    between atoms: C_13  and  C_15
REMARK    5  A    between atoms: C_15  and  C_16
REMARK    6  A    between atoms: C_16  and  C_17
REMARK    7  A    between atoms: C_17  and  O_18
REMARK    8  A    between atoms: C_20  and  C_26
REMARK    9  A    between atoms: C_24  and  C_25
REMARK   10  A    between atoms: C_26  and  C_27
REMARK   11  A    between atoms: C_29  and  C_30
REMARK   12  A    between atoms: C_33  and  C_36
REMARK   13  A    between atoms: C_36  and  C_37
REMARK   14  A    between atoms: C_36  and  C_38
REMARK   15  A    between atoms: C_36  and  O_39
REMARK                            x       y       z     vdW  Elec       q    Type
REMARK                         _______ _______ _______ _____ _____    ______ ____
ROOT
ATOM      1  C   LIG A   1      -6.171  -0.347 127.459  0.00  0.00    +0.024 C 
ATOM      2  C   LIG A   1      -5.612   0.914 128.131  0.00  0.00    +0.007 C 
ATOM      3  C   LIG A   1      -6.264   1.004 129.500  0.00  0.00    +0.008 C 
ATOM      4  C   LIG A   1      -6.606  -0.441 129.948  0.00  0.00    -0.023 C 
ATOM      5  C   LIG A   1      -7.961  -0.339 130.705  0.00  0.00    +0.012 C 
ATOM      6  C   LIG A   1      -6.869  -1.171 128.591  0.00  0.00    +0.001 C 
ATOM      7  C   LIG A   1      -6.618  -2.690 128.530  0.00  0.00    +0.005 C 
ATOM      8  C   LIG A   1      -5.645  -3.316 129.538  0.00  0.00    +0.005 C 
ATOM      9  C   LIG A   1      -5.796  -2.674 130.928  0.00  0.00    +0.002 C 
ATOM     10  C   LIG A   1      -5.204  -3.451 132.189  0.00  0.00    -0.022 C 
ATOM     11  C   LIG A   1      -5.535  -4.959 132.025  0.00  0.00    +0.012 C 
ATOM     12  C   LIG A   1      -5.879  -2.806 133.490  0.00  0.00    +0.020 C 
ATOM     13  C   LIG A   1      -6.200  -1.292 133.323  0.00  0.00    +0.009 C 
ATOM     14  C   LIG A   1      -5.367  -0.551 132.270  0.00  0.00    +0.008 C 
ATOM     15  C   LIG A   1      -5.463  -1.144 130.833  0.00  0.00    -0.023 C 
ATOM     16  C   LIG A   1      -4.077  -0.911 130.157  0.00  0.00    +0.012 C 
ENDROOT
BRANCH   1  17
ATOM     17  C   LIG A   1      -7.116  -0.016 126.263  0.00  0.00    +0.070 C 
ATOM     18  C   LIG A   1      -6.521   1.088 125.366  0.00  0.00    +0.042 C 
ATOM     19  C   LIG A   1      -8.542   0.363 126.684  0.00  0.00    +0.037 C 
ATOM     20  C   LIG A   1      -9.376  -0.137 125.533  0.00  0.00    +0.037 C 
ATOM     21  C   LIG A   1      -8.643  -1.409 125.127  0.00  0.00    +0.150 C 
ATOM     22  O   LIG A   1      -7.247  -1.193 125.433  0.00  0.00    -0.367 OA
BRANCH  21  23
ATOM     23  C   LIG A   1      -8.847  -1.831 123.649  0.00  0.00    +0.086 C 
ATOM     24  C   LIG A   1      -7.523  -1.764 122.878  0.00  0.00    +0.043 C 
ATOM     25  C   LIG A   1      -9.431  -3.245 123.563  0.00  0.00    +0.043 C 
BRANCH  23  26
ATOM     26  O   LIG A   1      -9.786  -0.948 123.018  0.00  0.00    -0.387 OA
ATOM     27  H   LIG A   1      -9.594  -0.934 122.066  0.00  0.00    +0.210 HD
ENDBRANCH  23  26
ENDBRANCH  21  23
ENDBRANCH   1  17
BRANCH  12  28
ATOM     28  C   LIG A   1      -7.085  -3.544 134.113  0.00  0.00    -0.076 C 
ATOM     29  C   LIG A   1      -6.866  -4.644 135.122  0.00  0.00    +0.038 C 
ATOM     30  C   LIG A   1      -8.354  -3.254 133.761  0.00  0.00    +0.007 C 
ENDBRANCH  12  28
BRANCH  10  31
ATOM     31  C   LIG A   1      -3.632  -3.375 132.320  0.00  0.00    +0.018 C 
BRANCH  31  32
ATOM     32  C   LIG A   1      -3.055  -3.248 133.748  0.00  0.00    +0.121 C 
BRANCH  32  33
ATOM     33  C   LIG A   1      -2.706  -4.588 134.357  0.00  0.00    +0.305 C 
ATOM     34  O   LIG A   1      -3.060  -5.036 135.424  0.00  0.00    -0.251 OA
BRANCH  33  35
ATOM     35  O   LIG A   1      -1.920  -5.314 133.529  0.00  0.00    -0.481 OA
ATOM     36  H   LIG A   1      -1.805  -4.743 132.741  0.00  0.00    +0.295 HD
ENDBRANCH  33  35
ENDBRANCH  32  33
ENDBRANCH  31  32
ENDBRANCH  10  31
TORSDOF 8
ENDMDL
MODEL 8
REMARK VINA RESULT:      -7.5      6.190      9.134
REMARK  Name = NuBBE_1256
REMARK  15 active torsions:
REMARK  status: ('A' for Active; 'I' for Inactive)
REMARK    1  A    between atoms: C_2  and  C_29
REMARK    2  A    between atoms: C_5  and  C_6
REMARK    3  A    between atoms: C_13  and  C_14
REMARK    4  A    between atoms: C_13  and  C_15
REMARK    5  A    between atoms: C_15  and  C_16
REMARK    6  A    between atoms: C_16  and  C_17
REMARK    7  A    between atoms: C_17  and  O_18
REMARK    8  A    between atoms: C_20  and  C_26
REMARK    9  A    between atoms: C_24  and  C_25
REMARK   10  A    between atoms: C_26  and  C_27
REMARK   11  A    between atoms: C_29  and  C_30
REMARK   12  A    between atoms: C_33  and  C_36
REMARK   13  A    between atoms: C_36  and  C_37
REMARK   14  A    between atoms: C_36  and  C_38
REMARK   15  A    between atoms: C_36  and  O_39
REMARK                            x       y       z     vdW  Elec       q    Type
REMARK                         _______ _______ _______ _____ _____    ______ ____
ROOT
ATOM      1  C   LIG A   1      -1.325   8.214 133.095  0.00  0.00    +0.024 C 
ATOM      2  C   LIG A   1      -0.690   7.120 133.963  0.00  0.00    +0.007 C 
ATOM      3  C   LIG A   1      -1.832   6.280 134.510  0.00  0.00    +0.008 C 
ATOM      4  C   LIG A   1      -2.997   6.358 133.489  0.00  0.00    -0.023 C 
ATOM      5  C   LIG A   1      -4.301   6.385 134.338  0.00  0.00    +0.012 C 
ATOM      6  C   LIG A   1      -2.808   7.776 132.857  0.00  0.00    +0.001 C 
ATOM      7  C   LIG A   1      -3.322   7.999 131.421  0.00  0.00    +0.005 C 
ATOM      8  C   LIG A   1      -3.474   6.784 130.498  0.00  0.00    +0.005 C 
ATOM      9  C   LIG A   1      -4.012   5.565 131.266  0.00  0.00    +0.002 C 
ATOM     10  C   LIG A   1      -4.637   4.358 130.430  0.00  0.00    -0.022 C 
ATOM     11  C   LIG A   1      -5.500   4.959 129.288  0.00  0.00    +0.012 C 
ATOM     12  C   LIG A   1      -5.494   3.478 131.457  0.00  0.00    +0.020 C 
ATOM     13  C   LIG A   1      -4.910   3.482 132.899  0.00  0.00    +0.009 C 
ATOM     14  C   LIG A   1      -3.414   3.803 133.007  0.00  0.00    +0.008 C 
ATOM     15  C   LIG A   1      -3.000   5.176 132.400  0.00  0.00    -0.023 C 
ATOM     16  C   LIG A   1      -1.559   5.001 131.831  0.00  0.00    +0.012 C 
ENDROOT
BRANCH   1  17
ATOM     17  C   LIG A   1      -1.195   9.632 133.734  0.00  0.00    +0.070 C 
ATOM     18  C   LIG A   1       0.158   9.801 134.454  0.00  0.00    +0.042 C 
ATOM     19  C   LIG A   1      -2.344   9.993 134.685  0.00  0.00    +0.037 C 
ATOM     20  C   LIG A   1      -2.456  11.487 134.523  0.00  0.00    +0.037 C 
ATOM     21  C   LIG A   1      -2.139  11.680 133.046  0.00  0.00    +0.150 C 
ATOM     22  O   LIG A   1      -1.225  10.622 132.680  0.00  0.00    -0.367 OA
BRANCH  21  23
ATOM     23  C   LIG A   1      -1.574  13.077 132.681  0.00  0.00    +0.086 C 
ATOM     24  C   LIG A   1      -2.415  14.187 133.322  0.00  0.00    +0.043 C 
ATOM     25  C   LIG A   1      -0.113  13.205 133.124  0.00  0.00    +0.043 C 
BRANCH  23  26
ATOM     26  O   LIG A   1      -1.599  13.253 131.256  0.00  0.00    -0.387 OA
ATOM     27  H   LIG A   1      -0.859  13.833 131.012  0.00  0.00    +0.210 HD
ENDBRANCH  23  26
ENDBRANCH  21  23
ENDBRANCH   1  17
BRANCH  12  28
ATOM     28  C   LIG A   1      -7.021   3.706 131.496  0.00  0.00    -0.076 C 
ATOM     29  C   LIG A   1      -7.596   4.887 132.239  0.00  0.00    +0.038 C 
ATOM     30  C   LIG A   1      -7.882   2.857 130.900  0.00  0.00    +0.007 C 
ENDBRANCH  12  28
BRANCH  10  31
ATOM     31  C   LIG A   1      -3.568   3.441 129.715  0.00  0.00    +0.018 C 
BRANCH  31  32
ATOM     32  C   LIG A   1      -3.645   3.350 128.174  0.00  0.00    +0.121 C 
BRANCH  32  33
ATOM     33  C   LIG A   1      -2.359   3.774 127.499  0.00  0.00    +0.305 C 
ATOM     34  O   LIG A   1      -1.577   3.084 126.886  0.00  0.00    -0.251 OA
BRANCH  33  35
ATOM     35  O   LIG A   1      -2.153   5.105 127.630  0.00  0.00    -0.481 OA
ATOM     36  H   LIG A   1      -2.670   5.354 128.423  0.00  0.00    +0.295 HD
ENDBRANCH  33  35
ENDBRANCH  32  33
ENDBRANCH  31  32
ENDBRANCH  10  31
TORSDOF 8
ENDMDL
MODEL 9
REMARK VINA RESULT:      -7.4      5.021      8.130
REMARK  Name = NuBBE_1256
REMARK  15 active torsions:
REMARK  status: ('A' for Active; 'I' for Inactive)
REMARK    1  A    between atoms: C_2  and  C_29
REMARK    2  A    between atoms: C_5  and  C_6
REMARK    3  A    between atoms: C_13  and  C_14
REMARK    4  A    between atoms: C_13  and  C_15
REMARK    5  A    between atoms: C_15  and  C_16
REMARK    6  A    between atoms: C_16  and  C_17
REMARK    7  A    between atoms: C_17  and  O_18
REMARK    8  A    between atoms: C_20  and  C_26
REMARK    9  A    between atoms: C_24  and  C_25
REMARK   10  A    between atoms: C_26  and  C_27
REMARK   11  A    between atoms: C_29  and  C_30
REMARK   12  A    between atoms: C_33  and  C_36
REMARK   13  A    between atoms: C_36  and  C_37
REMARK   14  A    between atoms: C_36  and  C_38
REMARK   15  A    between atoms: C_36  and  O_39
REMARK                            x       y       z     vdW  Elec       q    Type
REMARK                         _______ _______ _______ _____ _____    ______ ____
ROOT
ATOM      1  C   LIG A   1      -3.821   7.566 132.322  0.00  0.00    +0.024 C 
ATOM      2  C   LIG A   1      -3.966   7.823 130.816  0.00  0.00    +0.007 C 
ATOM      3  C   LIG A   1      -4.106   6.462 130.154  0.00  0.00    +0.008 C 
ATOM      4  C   LIG A   1      -4.751   5.505 131.190  0.00  0.00    -0.023 C 
ATOM      5  C   LIG A   1      -4.069   4.123 130.970  0.00  0.00    +0.012 C 
ATOM      6  C   LIG A   1      -4.241   6.078 132.553  0.00  0.00    +0.001 C 
ATOM      7  C   LIG A   1      -5.111   5.842 133.803  0.00  0.00    +0.005 C 
ATOM      8  C   LIG A   1      -6.611   5.579 133.616  0.00  0.00    +0.005 C 
ATOM      9  C   LIG A   1      -6.872   4.690 132.390  0.00  0.00    +0.002 C 
ATOM     10  C   LIG A   1      -8.285   3.959 132.269  0.00  0.00    -0.022 C 
ATOM     11  C   LIG A   1      -8.670   3.421 133.674  0.00  0.00    +0.012 C 
ATOM     12  C   LIG A   1      -8.114   2.794 131.185  0.00  0.00    +0.020 C 
ATOM     13  C   LIG A   1      -7.085   3.143 130.071  0.00  0.00    +0.009 C 
ATOM     14  C   LIG A   1      -6.841   4.640 129.842  0.00  0.00    +0.008 C 
ATOM     15  C   LIG A   1      -6.353   5.418 131.100  0.00  0.00    -0.023 C 
ATOM     16  C   LIG A   1      -6.938   6.859 130.994  0.00  0.00    +0.012 C 
ENDROOT
BRANCH   1  17
ATOM     17  C   LIG A   1      -2.388   7.893 132.846  0.00  0.00    +0.070 C 
ATOM     18  C   LIG A   1      -2.059   9.390 132.685  0.00  0.00    +0.042 C 
ATOM     19  C   LIG A   1      -1.284   7.042 132.206  0.00  0.00    +0.037 C 
ATOM     20  C   LIG A   1      -0.266   6.927 133.311  0.00  0.00    +0.037 C 
ATOM     21  C   LIG A   1      -1.142   6.850 134.555  0.00  0.00    +0.150 C 
ATOM     22  O   LIG A   1      -2.336   7.611 134.263  0.00  0.00    -0.367 OA
BRANCH  21  23
ATOM     23  C   LIG A   1      -0.459   7.333 135.860  0.00  0.00    +0.086 C 
ATOM     24  C   LIG A   1       1.061   7.411 135.680  0.00  0.00    +0.043 C 
ATOM     25  C   LIG A   1      -1.006   8.699 136.287  0.00  0.00    +0.043 C 
BRANCH  23  26
ATOM     26  O   LIG A   1      -0.745   6.414 136.925  0.00  0.00    -0.387 OA
ATOM     27  H   LIG A   1      -0.204   5.619 136.790  0.00  0.00    +0.210 HD
ENDBRANCH  23  26
ENDBRANCH  21  23
ENDBRANCH   1  17
BRANCH  12  28
ATOM     28  C   LIG A   1      -7.873   1.359 131.706  0.00  0.00    -0.076 C 
ATOM     29  C   LIG A   1      -9.019   0.384 131.808  0.00  0.00    +0.038 C 
ATOM     30  C   LIG A   1      -6.655   0.945 132.107  0.00  0.00    +0.007 C 
ENDBRANCH  12  28
BRANCH  10  31
ATOM     31  C   LIG A   1      -9.473   4.908 131.840  0.00  0.00    +0.018 C 
BRANCH  31  32
ATOM     32  C   LIG A   1     -10.465   4.354 130.792  0.00  0.00    +0.121 C 
BRANCH  32  33
ATOM     33  C   LIG A   1     -11.565   5.337 130.454  0.00  0.00    +0.305 C 
ATOM     34  O   LIG A   1     -12.019   5.600 129.365  0.00  0.00    -0.251 OA
BRANCH  33  35
ATOM     35  O   LIG A   1     -12.055   5.926 131.570  0.00  0.00    -0.481 OA
ATOM     36  H   LIG A   1     -11.458   5.626 132.285  0.00  0.00    +0.295 HD
ENDBRANCH  33  35
ENDBRANCH  32  33
ENDBRANCH  31  32
ENDBRANCH  10  31
TORSDOF 8
ENDMDL
