MODEL 1
REMARK VINA RESULT:      -7.7      0.000      0.000
REMARK  Name = NuBBE_1512
REMARK  7 active torsions:
REMARK  status: ('A' for Active; 'I' for Inactive)
REMARK    1  A    between atoms: C_1  and  C_2
REMARK    2  A    between atoms: C_9  and  C_12
REMARK    3  A    between atoms: C_13  and  C_18
REMARK    4  A    between atoms: C_18  and  C_19
REMARK    5  A    between atoms: C_24  and  O_26
REMARK    6  A    between atoms: C_27  and  O_33
REMARK    7  A    between atoms: C_29  and  O_32
REMARK                            x       y       z     vdW  Elec       q    Type
REMARK                         _______ _______ _______ _____ _____    ______ ____
ROOT
ATOM      1  C   LIG A   1      -7.887  -1.770 127.500  0.00  0.00    +0.012 C 
ATOM      2  C   LIG A   1      -7.868  -1.309 126.003  0.00  0.00    -0.021 C 
ATOM      3  C   LIG A   1      -8.019   0.260 125.980  0.00  0.00    -0.001 C 
ATOM      4  C   LIG A   1      -6.903   0.966 126.796  0.00  0.00    -0.003 C 
ATOM      5  C   LIG A   1      -7.018   2.528 126.761  0.00  0.00    +0.006 C 
ATOM      6  C   LIG A   1      -7.330   3.164 125.381  0.00  0.00    -0.019 C 
ATOM      7  C   LIG A   1      -8.375   2.357 124.596  0.00  0.00    +0.008 C 
ATOM      8  C   LIG A   1      -8.142   0.854 124.569  0.00  0.00    +0.005 C 
ATOM      9  C   LIG A   1      -7.920   4.589 125.569  0.00  0.00    +0.012 C 
ATOM     10  C   LIG A   1      -5.929   3.218 124.708  0.00  0.00    +0.061 C 
ATOM     11  C   LIG A   1      -5.055   3.555 125.914  0.00  0.00    +0.137 C 
ATOM     12  O   LIG A   1      -3.915   3.997 125.848  0.00  0.00    -0.297 OA
ATOM     13  C   LIG A   1      -5.753   3.266 127.226  0.00  0.00    +0.079 C 
ATOM     14  C   LIG A   1      -5.507   0.325 126.600  0.00  0.00    +0.004 C 
ATOM     15  C   LIG A   1      -5.390  -0.690 125.472  0.00  0.00    +0.007 C 
ATOM     16  C   LIG A   1      -6.501  -1.764 125.387  0.00  0.00    +0.026 C 
ATOM     17  C   LIG A   1      -6.550  -2.267 123.923  0.00  0.00    +0.149 C 
ATOM     18  C   LIG A   1      -7.734  -3.179 123.628  0.00  0.00    +0.172 C 
ATOM     19  C   LIG A   1      -9.029  -2.433 123.915  0.00  0.00    +0.146 C 
ATOM     20  C   LIG A   1      -9.118  -2.012 125.380  0.00  0.00    +0.041 C 
ENDROOT
BRANCH  10  21
ATOM     21  C   LIG A   1      -5.783   4.210 123.553  0.00  0.00    +0.008 C 
ATOM     22  C   LIG A   1      -6.012   3.554 122.196  0.00  0.00    +0.004 C 
ENDBRANCH  10  21
BRANCH  17  23
ATOM     23  O   LIG A   1      -5.344  -3.005 123.665  0.00  0.00    -0.389 OA
ATOM     24  H   LIG A   1      -5.416  -3.385 122.771  0.00  0.00    +0.210 HD
ENDBRANCH  17  23
BRANCH  19  25
ATOM     25  O   LIG A   1     -10.137  -3.288 123.620  0.00  0.00    -0.389 OA
ATOM     26  H   LIG A   1      -9.921  -4.146 124.038  0.00  0.00    +0.210 HD
ENDBRANCH  19  25
BRANCH  18  27
ATOM     27  O   LIG A   1      -7.668  -4.370 124.428  0.00  0.00    -0.387 OA
ATOM     28  H   LIG A   1      -7.550  -4.061 125.348  0.00  0.00    +0.210 HD
ENDBRANCH  18  27
TORSDOF 4
ENDMDL
MODEL 2
REMARK VINA RESULT:      -7.7      3.001      5.106
REMARK  Name = NuBBE_1512
REMARK  7 active torsions:
REMARK  status: ('A' for Active; 'I' for Inactive)
REMARK    1  A    between atoms: C_1  and  C_2
REMARK    2  A    between atoms: C_9  and  C_12
REMARK    3  A    between atoms: C_13  and  C_18
REMARK    4  A    between atoms: C_18  and  C_19
REMARK    5  A    between atoms: C_24  and  O_26
REMARK    6  A    between atoms: C_27  and  O_33
REMARK    7  A    between atoms: C_29  and  O_32
REMARK                            x       y       z     vdW  Elec       q    Type
REMARK                         _______ _______ _______ _____ _____    ______ ____
ROOT
ATOM      1  C   LIG A   1      -5.595  -3.098 124.433  0.00  0.00    +0.012 C 
ATOM      2  C   LIG A   1      -6.932  -2.591 125.072  0.00  0.00    -0.021 C 
ATOM      3  C   LIG A   1      -6.877  -2.901 126.616  0.00  0.00    -0.001 C 
ATOM      4  C   LIG A   1      -5.647  -2.246 127.300  0.00  0.00    -0.003 C 
ATOM      5  C   LIG A   1      -5.591  -2.519 128.842  0.00  0.00    +0.006 C 
ATOM      6  C   LIG A   1      -6.929  -2.380 129.614  0.00  0.00    -0.019 C 
ATOM      7  C   LIG A   1      -8.111  -2.969 128.832  0.00  0.00    +0.008 C 
ATOM      8  C   LIG A   1      -8.177  -2.572 127.366  0.00  0.00    +0.005 C 
ATOM      9  C   LIG A   1      -6.854  -3.157 130.958  0.00  0.00    +0.012 C 
ATOM     10  C   LIG A   1      -7.023  -0.846 129.854  0.00  0.00    +0.061 C 
ATOM     11  C   LIG A   1      -5.554  -0.514 130.108  0.00  0.00    +0.137 C 
ATOM     12  O   LIG A   1      -5.153   0.514 130.640  0.00  0.00    -0.297 OA
ATOM     13  C   LIG A   1      -4.627  -1.602 129.611  0.00  0.00    +0.079 C 
ATOM     14  C   LIG A   1      -5.362  -0.811 126.794  0.00  0.00    +0.004 C 
ATOM     15  C   LIG A   1      -6.447  -0.177 125.935  0.00  0.00    +0.007 C 
ATOM     16  C   LIG A   1      -7.030  -1.051 124.798  0.00  0.00    +0.026 C 
ATOM     17  C   LIG A   1      -8.443  -0.507 124.473  0.00  0.00    +0.149 C 
ATOM     18  C   LIG A   1      -9.235  -1.391 123.517  0.00  0.00    +0.172 C 
ATOM     19  C   LIG A   1      -9.389  -2.778 124.124  0.00  0.00    +0.146 C 
ATOM     20  C   LIG A   1      -8.033  -3.440 124.357  0.00  0.00    +0.041 C 
ENDROOT
BRANCH  10  21
ATOM     21  C   LIG A   1      -7.953  -0.406 130.988  0.00  0.00    +0.008 C 
ATOM     22  C   LIG A   1      -8.598   0.948 130.712  0.00  0.00    +0.004 C 
ENDBRANCH  10  21
BRANCH  17  23
ATOM     23  O   LIG A   1      -8.295   0.786 123.865  0.00  0.00    -0.389 OA
ATOM     24  H   LIG A   1      -7.428   0.805 123.422  0.00  0.00    +0.210 HD
ENDBRANCH  17  23
BRANCH  19  25
ATOM     25  O   LIG A   1     -10.148  -3.598 123.231  0.00  0.00    -0.389 OA
ATOM     26  H   LIG A   1     -10.818  -4.040 123.792  0.00  0.00    +0.210 HD
ENDBRANCH  19  25
BRANCH  18  27
ATOM     27  O   LIG A   1      -8.572  -1.484 122.247  0.00  0.00    -0.387 OA
ATOM     28  H   LIG A   1      -8.224  -0.587 122.067  0.00  0.00    +0.210 HD
ENDBRANCH  18  27
TORSDOF 4
ENDMDL
MODEL 3
REMARK VINA RESULT:      -7.4      6.378      8.829
REMARK  Name = NuBBE_1512
REMARK  7 active torsions:
REMARK  status: ('A' for Active; 'I' for Inactive)
REMARK    1  A    between atoms: C_1  and  C_2
REMARK    2  A    between atoms: C_9  and  C_12
REMARK    3  A    between atoms: C_13  and  C_18
REMARK    4  A    between atoms: C_18  and  C_19
REMARK    5  A    between atoms: C_24  and  O_26
REMARK    6  A    between atoms: C_27  and  O_33
REMARK    7  A    between atoms: C_29  and  O_32
REMARK                            x       y       z     vdW  Elec       q    Type
REMARK                         _______ _______ _______ _____ _____    ______ ____
ROOT
ATOM      1  C   LIG A   1      -3.090   4.539 131.685  0.00  0.00    +0.012 C 
ATOM      2  C   LIG A   1      -3.943   4.866 130.414  0.00  0.00    -0.021 C 
ATOM      3  C   LIG A   1      -5.354   4.187 130.591  0.00  0.00    -0.001 C 
ATOM      4  C   LIG A   1      -6.072   4.661 131.884  0.00  0.00    -0.003 C 
ATOM      5  C   LIG A   1      -7.490   4.019 132.063  0.00  0.00    +0.006 C 
ATOM      6  C   LIG A   1      -8.382   3.956 130.796  0.00  0.00    -0.019 C 
ATOM      7  C   LIG A   1      -7.582   3.570 129.544  0.00  0.00    +0.008 C 
ATOM      8  C   LIG A   1      -6.268   4.314 129.363  0.00  0.00    +0.005 C 
ATOM      9  C   LIG A   1      -9.484   2.874 130.970  0.00  0.00    +0.012 C 
ATOM     10  C   LIG A   1      -8.998   5.384 130.745  0.00  0.00    +0.061 C 
ATOM     11  C   LIG A   1      -9.201   5.652 132.234  0.00  0.00    +0.137 C 
ATOM     12  O   LIG A   1      -9.933   6.521 132.693  0.00  0.00    -0.297 OA
ATOM     13  C   LIG A   1      -8.376   4.725 133.101  0.00  0.00    +0.079 C 
ATOM     14  C   LIG A   1      -5.911   6.178 132.147  0.00  0.00    +0.004 C 
ATOM     15  C   LIG A   1      -5.328   6.997 131.004  0.00  0.00    +0.007 C 
ATOM     16  C   LIG A   1      -4.065   6.425 130.316  0.00  0.00    +0.026 C 
ATOM     17  C   LIG A   1      -4.003   7.024 128.889  0.00  0.00    +0.149 C 
ATOM     18  C   LIG A   1      -2.929   6.397 128.008  0.00  0.00    +0.172 C 
ATOM     19  C   LIG A   1      -3.189   4.902 127.884  0.00  0.00    +0.146 C 
ATOM     20  C   LIG A   1      -3.137   4.211 129.244  0.00  0.00    +0.041 C 
ENDROOT
BRANCH  10  21
ATOM     21  C   LIG A   1     -10.278   5.527 129.919  0.00  0.00    +0.008 C 
ATOM     22  C   LIG A   1     -10.299   6.815 129.104  0.00  0.00    +0.004 C 
ENDBRANCH  10  21
BRANCH  17  23
ATOM     23  O   LIG A   1      -3.719   8.427 129.006  0.00  0.00    -0.389 OA
ATOM     24  H   LIG A   1      -4.487   8.913 128.655  0.00  0.00    +0.210 HD
ENDBRANCH  17  23
BRANCH  19  25
ATOM     25  O   LIG A   1      -2.188   4.322 127.041  0.00  0.00    -0.389 OA
ATOM     26  H   LIG A   1      -2.107   4.932 126.280  0.00  0.00    +0.210 HD
ENDBRANCH  19  25
BRANCH  18  27
ATOM     27  O   LIG A   1      -1.624   6.622 128.562  0.00  0.00    -0.387 OA
ATOM     28  H   LIG A   1      -0.994   6.390 127.850  0.00  0.00    +0.210 HD
ENDBRANCH  18  27
TORSDOF 4
ENDMDL
MODEL 4
REMARK VINA RESULT:      -7.4      3.289      5.428
REMARK  Name = NuBBE_1512
REMARK  7 active torsions:
REMARK  status: ('A' for Active; 'I' for Inactive)
REMARK    1  A    between atoms: C_1  and  C_2
REMARK    2  A    between atoms: C_9  and  C_12
REMARK    3  A    between atoms: C_13  and  C_18
REMARK    4  A    between atoms: C_18  and  C_19
REMARK    5  A    between atoms: C_24  and  O_26
REMARK    6  A    between atoms: C_27  and  O_33
REMARK    7  A    between atoms: C_29  and  O_32
REMARK                            x       y       z     vdW  Elec       q    Type
REMARK                         _______ _______ _______ _____ _____    ______ ____
ROOT
ATOM      1  C   LIG A   1      -8.140  -0.933 130.169  0.00  0.00    +0.012 C 
ATOM      2  C   LIG A   1      -7.201  -1.864 129.330  0.00  0.00    -0.021 C 
ATOM      3  C   LIG A   1      -7.867  -2.076 127.918  0.00  0.00    -0.001 C 
ATOM      4  C   LIG A   1      -8.119  -0.731 127.184  0.00  0.00    -0.003 C 
ATOM      5  C   LIG A   1      -8.755  -0.921 125.765  0.00  0.00    +0.006 C 
ATOM      6  C   LIG A   1      -8.152  -2.050 124.887  0.00  0.00    -0.019 C 
ATOM      7  C   LIG A   1      -7.845  -3.314 125.703  0.00  0.00    +0.008 C 
ATOM      8  C   LIG A   1      -7.121  -3.073 127.018  0.00  0.00    +0.005 C 
ATOM      9  C   LIG A   1      -9.164  -2.468 123.784  0.00  0.00    +0.012 C 
ATOM     10  C   LIG A   1      -6.897  -1.367 124.272  0.00  0.00    +0.061 C 
ATOM     11  C   LIG A   1      -7.431   0.047 124.051  0.00  0.00    +0.137 C 
ATOM     12  O   LIG A   1      -6.917   0.878 123.313  0.00  0.00    -0.297 OA
ATOM     13  C   LIG A   1      -8.677   0.322 124.865  0.00  0.00    +0.079 C 
ATOM     14  C   LIG A   1      -6.954   0.276 127.341  0.00  0.00    +0.004 C 
ATOM     15  C   LIG A   1      -5.668  -0.277 127.938  0.00  0.00    +0.007 C 
ATOM     16  C   LIG A   1      -5.813  -1.148 129.209  0.00  0.00    +0.026 C 
ATOM     17  C   LIG A   1      -4.566  -2.065 129.288  0.00  0.00    +0.149 C 
ATOM     18  C   LIG A   1      -4.658  -3.131 130.373  0.00  0.00    +0.172 C 
ATOM     19  C   LIG A   1      -5.875  -4.008 130.115  0.00  0.00    +0.146 C 
ATOM     20  C   LIG A   1      -7.167  -3.195 130.151  0.00  0.00    +0.041 C 
ENDROOT
BRANCH  10  21
ATOM     21  C   LIG A   1      -6.343  -2.016 123.001  0.00  0.00    +0.008 C 
ATOM     22  C   LIG A   1      -5.139  -2.907 123.286  0.00  0.00    +0.004 C 
ENDBRANCH  10  21
BRANCH  17  23
ATOM     23  O   LIG A   1      -3.424  -1.240 129.570  0.00  0.00    -0.389 OA
ATOM     24  H   LIG A   1      -3.746  -0.338 129.742  0.00  0.00    +0.210 HD
ENDBRANCH  17  23
BRANCH  19  25
ATOM     25  O   LIG A   1      -5.946  -5.018 131.126  0.00  0.00    -0.389 OA
ATOM     26  H   LIG A   1      -5.122  -5.539 131.029  0.00  0.00    +0.210 HD
ENDBRANCH  19  25
BRANCH  18  27
ATOM     27  O   LIG A   1      -4.756  -2.526 131.671  0.00  0.00    -0.387 OA
ATOM     28  H   LIG A   1      -4.854  -1.567 131.506  0.00  0.00    +0.210 HD
ENDBRANCH  18  27
TORSDOF 4
ENDMDL
MODEL 5
REMARK VINA RESULT:      -7.3      1.898      6.268
REMARK  Name = NuBBE_1512
REMARK  7 active torsions:
REMARK  status: ('A' for Active; 'I' for Inactive)
REMARK    1  A    between atoms: C_1  and  C_2
REMARK    2  A    between atoms: C_9  and  C_12
REMARK    3  A    between atoms: C_13  and  C_18
REMARK    4  A    between atoms: C_18  and  C_19
REMARK    5  A    between atoms: C_24  and  O_26
REMARK    6  A    between atoms: C_27  and  O_33
REMARK    7  A    between atoms: C_29  and  O_32
REMARK                            x       y       z     vdW  Elec       q    Type
REMARK                         _______ _______ _______ _____ _____    ______ ____
ROOT
ATOM      1  C   LIG A   1      -5.325   2.498 127.417  0.00  0.00    +0.012 C 
ATOM      2  C   LIG A   1      -6.036   2.222 126.049  0.00  0.00    -0.021 C 
ATOM      3  C   LIG A   1      -5.856   0.693 125.711  0.00  0.00    -0.001 C 
ATOM      4  C   LIG A   1      -6.423  -0.223 126.830  0.00  0.00    -0.003 C 
ATOM      5  C   LIG A   1      -6.280  -1.747 126.499  0.00  0.00    +0.006 C 
ATOM      6  C   LIG A   1      -6.639  -2.174 125.051  0.00  0.00    -0.019 C 
ATOM      7  C   LIG A   1      -6.123  -1.170 124.009  0.00  0.00    +0.008 C 
ATOM      8  C   LIG A   1      -6.396   0.291 124.331  0.00  0.00    +0.005 C 
ATOM      9  C   LIG A   1      -5.978  -3.540 124.716  0.00  0.00    +0.012 C 
ATOM     10  C   LIG A   1      -8.188  -2.296 125.107  0.00  0.00    +0.061 C 
ATOM     11  C   LIG A   1      -8.371  -2.869 126.511  0.00  0.00    +0.137 C 
ATOM     12  O   LIG A   1      -9.388  -3.419 126.913  0.00  0.00    -0.297 OA
ATOM     13  C   LIG A   1      -7.144  -2.667 127.375  0.00  0.00    +0.079 C 
ATOM     14  C   LIG A   1      -7.767   0.284 127.408  0.00  0.00    +0.004 C 
ATOM     15  C   LIG A   1      -8.444   1.410 126.639  0.00  0.00    +0.007 C 
ATOM     16  C   LIG A   1      -7.547   2.599 126.219  0.00  0.00    +0.026 C 
ATOM     17  C   LIG A   1      -8.219   3.279 125.000  0.00  0.00    +0.149 C 
ATOM     18  C   LIG A   1      -7.352   4.342 124.336  0.00  0.00    +0.172 C 
ATOM     19  C   LIG A   1      -6.050   3.709 123.868  0.00  0.00    +0.146 C 
ATOM     20  C   LIG A   1      -5.259   3.126 125.036  0.00  0.00    +0.041 C 
ENDROOT
BRANCH  10  21
ATOM     21  C   LIG A   1      -8.828  -3.151 124.011  0.00  0.00    +0.008 C 
ATOM     22  C   LIG A   1      -9.359  -2.307 122.858  0.00  0.00    +0.004 C 
ENDBRANCH  10  21
BRANCH  17  23
ATOM     23  O   LIG A   1      -9.429   3.909 125.451  0.00  0.00    -0.389 OA
ATOM     24  H   LIG A   1      -9.260   4.268 126.341  0.00  0.00    +0.210 HD
ENDBRANCH  17  23
BRANCH  19  25
ATOM     25  O   LIG A   1      -5.247   4.707 123.229  0.00  0.00    -0.389 OA
ATOM     26  H   LIG A   1      -5.868   5.219 122.671  0.00  0.00    +0.210 HD
ENDBRANCH  19  25
BRANCH  18  27
ATOM     27  O   LIG A   1      -7.074   5.412 125.251  0.00  0.00    -0.387 OA
ATOM     28  H   LIG A   1      -7.489   6.207 124.858  0.00  0.00    +0.210 HD
ENDBRANCH  18  27
TORSDOF 4
ENDMDL
MODEL 6
REMARK VINA RESULT:      -7.1      7.431      9.116
REMARK  Name = NuBBE_1512
REMARK  7 active torsions:
REMARK  status: ('A' for Active; 'I' for Inactive)
REMARK    1  A    between atoms: C_1  and  C_2
REMARK    2  A    between atoms: C_9  and  C_12
REMARK    3  A    between atoms: C_13  and  C_18
REMARK    4  A    between atoms: C_18  and  C_19
REMARK    5  A    between atoms: C_24  and  O_26
REMARK    6  A    between atoms: C_27  and  O_33
REMARK    7  A    between atoms: C_29  and  O_32
REMARK                            x       y       z     vdW  Elec       q    Type
REMARK                         _______ _______ _______ _____ _____    ______ ____
ROOT
ATOM      1  C   LIG A   1      -7.832   5.236 135.080  0.00  0.00    +0.012 C 
ATOM      2  C   LIG A   1      -7.673   5.022 133.537  0.00  0.00    -0.021 C 
ATOM      3  C   LIG A   1      -6.544   5.997 133.028  0.00  0.00    -0.001 C 
ATOM      4  C   LIG A   1      -5.197   5.767 133.766  0.00  0.00    -0.003 C 
ATOM      5  C   LIG A   1      -4.054   6.707 133.254  0.00  0.00    +0.006 C 
ATOM      6  C   LIG A   1      -3.943   6.882 131.717  0.00  0.00    -0.019 C 
ATOM      7  C   LIG A   1      -5.320   7.011 131.050  0.00  0.00    +0.008 C 
ATOM      8  C   LIG A   1      -6.355   5.993 131.504  0.00  0.00    +0.005 C 
ATOM      9  C   LIG A   1      -3.163   8.183 131.381  0.00  0.00    +0.012 C 
ATOM     10  C   LIG A   1      -3.143   5.618 131.289  0.00  0.00    +0.061 C 
ATOM     11  C   LIG A   1      -2.176   5.491 132.465  0.00  0.00    +0.137 C 
ATOM     12  O   LIG A   1      -1.146   4.828 132.452  0.00  0.00    -0.297 OA
ATOM     13  C   LIG A   1      -2.642   6.272 133.675  0.00  0.00    +0.079 C 
ATOM     14  C   LIG A   1      -4.876   4.269 133.991  0.00  0.00    +0.004 C 
ATOM     15  C   LIG A   1      -5.756   3.277 133.246  0.00  0.00    +0.007 C 
ATOM     16  C   LIG A   1      -7.283   3.522 133.306  0.00  0.00    +0.026 C 
ATOM     17  C   LIG A   1      -7.913   2.838 132.068  0.00  0.00    +0.149 C 
ATOM     18  C   LIG A   1      -9.387   3.166 131.871  0.00  0.00    +0.172 C 
ATOM     19  C   LIG A   1      -9.552   4.671 131.716  0.00  0.00    +0.146 C 
ATOM     20  C   LIG A   1      -9.071   5.417 132.959  0.00  0.00    +0.041 C 
ENDROOT
BRANCH  10  21
ATOM     21  C   LIG A   1      -2.443   5.703 129.931  0.00  0.00    +0.008 C 
ATOM     22  C   LIG A   1      -2.953   4.650 128.953  0.00  0.00    +0.004 C 
ENDBRANCH  10  21
BRANCH  17  23
ATOM     23  O   LIG A   1      -7.791   1.417 132.233  0.00  0.00    -0.389 OA
ATOM     24  H   LIG A   1      -8.513   1.124 132.817  0.00  0.00    +0.210 HD
ENDBRANCH  17  23
BRANCH  19  25
ATOM     25  O   LIG A   1     -10.937   4.972 131.514  0.00  0.00    -0.389 OA
ATOM     26  H   LIG A   1     -11.081   4.888 130.549  0.00  0.00    +0.210 HD
ENDBRANCH  19  25
BRANCH  18  27
ATOM     27  O   LIG A   1     -10.163   2.701 132.985  0.00  0.00    -0.387 OA
ATOM     28  H   LIG A   1      -9.620   2.006 133.410  0.00  0.00    +0.210 HD
ENDBRANCH  18  27
TORSDOF 4
ENDMDL
MODEL 7
REMARK VINA RESULT:      -7.0      6.546      8.455
REMARK  Name = NuBBE_1512
REMARK  7 active torsions:
REMARK  status: ('A' for Active; 'I' for Inactive)
REMARK    1  A    between atoms: C_1  and  C_2
REMARK    2  A    between atoms: C_9  and  C_12
REMARK    3  A    between atoms: C_13  and  C_18
REMARK    4  A    between atoms: C_18  and  C_19
REMARK    5  A    between atoms: C_24  and  O_26
REMARK    6  A    between atoms: C_27  and  O_33
REMARK    7  A    between atoms: C_29  and  O_32
REMARK                            x       y       z     vdW  Elec       q    Type
REMARK                         _______ _______ _______ _____ _____    ______ ____
ROOT
ATOM      1  C   LIG A   1      -9.235   2.543 131.036  0.00  0.00    +0.012 C 
ATOM      2  C   LIG A   1      -8.985   4.089 131.057  0.00  0.00    -0.021 C 
ATOM      3  C   LIG A   1      -7.628   4.349 131.815  0.00  0.00    -0.001 C 
ATOM      4  C   LIG A   1      -6.439   3.600 131.155  0.00  0.00    -0.003 C 
ATOM      5  C   LIG A   1      -5.074   3.869 131.877  0.00  0.00    +0.006 C 
ATOM      6  C   LIG A   1      -4.788   5.340 132.280  0.00  0.00    -0.019 C 
ATOM      7  C   LIG A   1      -6.036   6.039 132.837  0.00  0.00    +0.008 C 
ATOM      8  C   LIG A   1      -7.306   5.836 132.026  0.00  0.00    +0.005 C 
ATOM      9  C   LIG A   1      -3.713   5.387 133.402  0.00  0.00    +0.012 C 
ATOM     10  C   LIG A   1      -4.249   5.955 130.957  0.00  0.00    +0.061 C 
ATOM     11  C   LIG A   1      -3.446   4.776 130.410  0.00  0.00    +0.137 C 
ATOM     12  O   LIG A   1      -2.590   4.861 129.538  0.00  0.00    -0.297 OA
ATOM     13  C   LIG A   1      -3.837   3.467 131.060  0.00  0.00    +0.079 C 
ATOM     14  C   LIG A   1      -6.476   3.643 129.608  0.00  0.00    +0.004 C 
ATOM     15  C   LIG A   1      -7.481   4.603 128.989  0.00  0.00    +0.007 C 
ATOM     16  C   LIG A   1      -8.915   4.575 129.569  0.00  0.00    +0.026 C 
ATOM     17  C   LIG A   1      -9.564   5.950 129.272  0.00  0.00    +0.149 C 
ATOM     18  C   LIG A   1     -10.906   6.156 129.963  0.00  0.00    +0.172 C 
ATOM     19  C   LIG A   1     -10.721   6.035 131.468  0.00  0.00    +0.146 C 
ATOM     20  C   LIG A   1     -10.204   4.652 131.859  0.00  0.00    +0.041 C 
ENDROOT
BRANCH  10  21
ATOM     21  C   LIG A   1      -3.427   7.237 131.106  0.00  0.00    +0.008 C 
ATOM     22  C   LIG A   1      -3.941   8.359 130.211  0.00  0.00    +0.004 C 
ENDBRANCH  10  21
BRANCH  17  23
ATOM     23  O   LIG A   1      -9.773   6.047 127.854  0.00  0.00    -0.389 OA
ATOM     24  H   LIG A   1      -9.717   5.147 127.485  0.00  0.00    +0.210 HD
ENDBRANCH  17  23
BRANCH  19  25
ATOM     25  O   LIG A   1     -11.982   6.247 132.113  0.00  0.00    -0.389 OA
ATOM     26  H   LIG A   1     -11.764   6.445 133.047  0.00  0.00    +0.210 HD
ENDBRANCH  19  25
BRANCH  18  27
ATOM     27  O   LIG A   1     -11.864   5.188 129.508  0.00  0.00    -0.387 OA
ATOM     28  H   LIG A   1     -11.958   5.344 128.546  0.00  0.00    +0.210 HD
ENDBRANCH  18  27
TORSDOF 4
ENDMDL
MODEL 8
REMARK VINA RESULT:      -6.9      2.138      6.221
REMARK  Name = NuBBE_1512
REMARK  7 active torsions:
REMARK  status: ('A' for Active; 'I' for Inactive)
REMARK    1  A    between atoms: C_1  and  C_2
REMARK    2  A    between atoms: C_9  and  C_12
REMARK    3  A    between atoms: C_13  and  C_18
REMARK    4  A    between atoms: C_18  and  C_19
REMARK    5  A    between atoms: C_24  and  O_26
REMARK    6  A    between atoms: C_27  and  O_33
REMARK    7  A    between atoms: C_29  and  O_32
REMARK                            x       y       z     vdW  Elec       q    Type
REMARK                         _______ _______ _______ _____ _____    ______ ____
ROOT
ATOM      1  C   LIG A   1      -5.360   3.423 125.321  0.00  0.00    +0.012 C 
ATOM      2  C   LIG A   1      -6.506   2.751 126.151  0.00  0.00    -0.021 C 
ATOM      3  C   LIG A   1      -7.299   1.789 125.189  0.00  0.00    -0.001 C 
ATOM      4  C   LIG A   1      -6.377   0.720 124.542  0.00  0.00    -0.003 C 
ATOM      5  C   LIG A   1      -7.153  -0.266 123.603  0.00  0.00    +0.006 C 
ATOM      6  C   LIG A   1      -8.510  -0.798 124.135  0.00  0.00    -0.019 C 
ATOM      7  C   LIG A   1      -9.322   0.297 124.842  0.00  0.00    +0.008 C 
ATOM      8  C   LIG A   1      -8.538   1.146 125.830  0.00  0.00    +0.005 C 
ATOM      9  C   LIG A   1      -9.384  -1.308 122.956  0.00  0.00    +0.012 C 
ATOM     10  C   LIG A   1      -8.075  -1.969 125.062  0.00  0.00    +0.061 C 
ATOM     11  C   LIG A   1      -6.897  -2.528 124.268  0.00  0.00    +0.137 C 
ATOM     12  O   LIG A   1      -6.409  -3.640 124.433  0.00  0.00    -0.297 OA
ATOM     13  C   LIG A   1      -6.375  -1.541 123.245  0.00  0.00    +0.079 C 
ATOM     14  C   LIG A   1      -5.339   0.134 125.530  0.00  0.00    +0.004 C 
ATOM     15  C   LIG A   1      -5.544   0.479 126.997  0.00  0.00    +0.007 C 
ATOM     16  C   LIG A   1      -5.835   1.963 127.327  0.00  0.00    +0.026 C 
ATOM     17  C   LIG A   1      -6.582   1.999 128.684  0.00  0.00    +0.149 C 
ATOM     18  C   LIG A   1      -7.124   3.375 129.048  0.00  0.00    +0.172 C 
ATOM     19  C   LIG A   1      -8.086   3.840 127.964  0.00  0.00    +0.146 C 
ATOM     20  C   LIG A   1      -7.390   3.957 126.610  0.00  0.00    +0.041 C 
ENDROOT
BRANCH  10  21
ATOM     21  C   LIG A   1      -9.153  -3.010 125.369  0.00  0.00    +0.008 C 
ATOM     22  C   LIG A   1      -9.119  -3.464 126.824  0.00  0.00    +0.004 C 
ENDBRANCH  10  21
BRANCH  17  23
ATOM     23  O   LIG A   1      -5.661   1.597 129.711  0.00  0.00    -0.389 OA
ATOM     24  H   LIG A   1      -6.105   1.718 130.569  0.00  0.00    +0.210 HD
ENDBRANCH  17  23
BRANCH  19  25
ATOM     25  O   LIG A   1      -8.606   5.125 128.320  0.00  0.00    -0.389 OA
ATOM     26  H   LIG A   1      -8.229   5.321 129.202  0.00  0.00    +0.210 HD
ENDBRANCH  19  25
BRANCH  18  27
ATOM     27  O   LIG A   1      -6.053   4.321 129.189  0.00  0.00    -0.387 OA
ATOM     28  H   LIG A   1      -6.115   4.906 128.407  0.00  0.00    +0.210 HD
ENDBRANCH  18  27
TORSDOF 4
ENDMDL
MODEL 9
REMARK VINA RESULT:      -6.8      3.077      6.138
REMARK  Name = NuBBE_1512
REMARK  7 active torsions:
REMARK  status: ('A' for Active; 'I' for Inactive)
REMARK    1  A    between atoms: C_1  and  C_2
REMARK    2  A    between atoms: C_9  and  C_12
REMARK    3  A    between atoms: C_13  and  C_18
REMARK    4  A    between atoms: C_18  and  C_19
REMARK    5  A    between atoms: C_24  and  O_26
REMARK    6  A    between atoms: C_27  and  O_33
REMARK    7  A    between atoms: C_29  and  O_32
REMARK                            x       y       z     vdW  Elec       q    Type
REMARK                         _______ _______ _______ _____ _____    ______ ____
ROOT
ATOM      1  C   LIG A   1      -4.839  -2.694 129.111  0.00  0.00    +0.012 C 
ATOM      2  C   LIG A   1      -5.571  -1.356 128.753  0.00  0.00    -0.021 C 
ATOM      3  C   LIG A   1      -5.660  -1.259 127.183  0.00  0.00    -0.001 C 
ATOM      4  C   LIG A   1      -6.393  -2.479 126.563  0.00  0.00    -0.003 C 
ATOM      5  C   LIG A   1      -6.517  -2.387 125.004  0.00  0.00    +0.006 C 
ATOM      6  C   LIG A   1      -6.928  -1.006 124.427  0.00  0.00    -0.019 C 
ATOM      7  C   LIG A   1      -6.231   0.153 125.154  0.00  0.00    +0.008 C 
ATOM      8  C   LIG A   1      -6.246   0.066 126.672  0.00  0.00    +0.005 C 
ATOM      9  C   LIG A   1      -6.514  -0.907 122.932  0.00  0.00    +0.012 C 
ATOM     10  C   LIG A   1      -8.475  -1.020 124.585  0.00  0.00    +0.061 C 
ATOM     11  C   LIG A   1      -8.772  -2.486 124.276  0.00  0.00    +0.137 C 
ATOM     12  O   LIG A   1      -9.876  -2.926 123.978  0.00  0.00    -0.297 OA
ATOM     13  C   LIG A   1      -7.540  -3.357 124.393  0.00  0.00    +0.079 C 
ATOM     14  C   LIG A   1      -7.633  -2.922 127.377  0.00  0.00    +0.004 C 
ATOM     15  C   LIG A   1      -8.091  -1.968 128.470  0.00  0.00    +0.007 C 
ATOM     16  C   LIG A   1      -6.994  -1.409 129.407  0.00  0.00    +0.026 C 
ATOM     17  C   LIG A   1      -7.521  -0.076 129.996  0.00  0.00    +0.149 C 
ATOM     18  C   LIG A   1      -6.472   0.705 130.778  0.00  0.00    +0.172 C 
ATOM     19  C   LIG A   1      -5.297   1.022 129.865  0.00  0.00    +0.146 C 
ATOM     20  C   LIG A   1      -4.635  -0.250 129.343  0.00  0.00    +0.041 C 
ENDROOT
BRANCH  10  21
ATOM     21  C   LIG A   1      -9.243  -0.041 123.694  0.00  0.00    +0.008 C 
ATOM     22  C   LIG A   1      -9.827   1.123 124.486  0.00  0.00    +0.004 C 
ENDBRANCH  10  21
BRANCH  17  23
ATOM     23  O   LIG A   1      -8.606  -0.381 130.887  0.00  0.00    -0.389 OA
ATOM     24  H   LIG A   1      -8.656   0.334 131.547  0.00  0.00    +0.210 HD
ENDBRANCH  17  23
BRANCH  19  25
ATOM     25  O   LIG A   1      -4.323   1.772 130.600  0.00  0.00    -0.389 OA
ATOM     26  H   LIG A   1      -3.474   1.612 130.139  0.00  0.00    +0.210 HD
ENDBRANCH  19  25
BRANCH  18  27
ATOM     27  O   LIG A   1      -6.021  -0.049 131.913  0.00  0.00    -0.387 OA
ATOM     28  H   LIG A   1      -6.804  -0.145 132.492  0.00  0.00    +0.210 HD
ENDBRANCH  18  27
TORSDOF 4
ENDMDL
