MODEL 1
REMARK VINA RESULT:      -8.0      0.000      0.000
REMARK  Name = NuBBE_39
REMARK  12 active torsions:
REMARK  status: ('A' for Active; 'I' for Inactive)
REMARK    1  A    between atoms: C_2  and  O_3
REMARK    2  A    between atoms: C_2  and  C_20
REMARK    3  A    between atoms: O_3  and  C_4
REMARK    4  A    between atoms: C_7  and  O_8
REMARK    5  A    between atoms: C_7  and  C_9
REMARK    6  A    between atoms: C_9  and  O_10
REMARK    7  A    between atoms: O_10  and  C_11
REMARK    8  A    between atoms: C_14  and  O_16
REMARK    9  A    between atoms: C_17  and  O_19
REMARK   10  A    between atoms: C_21  and  C_22
REMARK   11  A    between atoms: C_24  and  O_25
REMARK   12  A    between atoms: C_26  and  O_27
REMARK                            x       y       z     vdW  Elec       q    Type
REMARK                         _______ _______ _______ _____ _____    ______ ____
ROOT
ATOM      1  C   LIG A   1      -8.653  -0.877 124.587  0.00  0.00    +0.211 C 
ATOM      2  C   LIG A   1      -8.409  -1.400 126.010  0.00  0.00    +0.093 C 
ATOM      3  C   LIG A   1      -8.950  -2.820 126.200  0.00  0.00    +0.168 C 
ATOM      4  C   LIG A   1      -8.380  -3.783 125.147  0.00  0.00    +0.080 C 
ATOM      5  C   LIG A   1      -8.608  -3.276 123.726  0.00  0.00    +0.150 C 
ATOM      6  C   LIG A   1      -8.076  -1.849 123.539  0.00  0.00    +0.184 C 
ENDROOT
BRANCH   3   7
ATOM      7  O   LIG A   1     -10.375  -2.791 126.011  0.00  0.00    -0.377 OA
ATOM      8  H   LIG A   1     -10.771  -2.922 126.898  0.00  0.00    +0.211 HD
ENDBRANCH   3   7
BRANCH   3   9
ATOM      9  C   LIG A   1      -8.589  -3.334 127.609  0.00  0.00    +0.339 C 
ATOM     10  O   LIG A   1      -8.979  -4.385 128.101  0.00  0.00    -0.248 OA
BRANCH   9  11
ATOM     11  O   LIG A   1      -7.760  -2.436 128.220  0.00  0.00    -0.466 OA
ATOM     12  C   LIG A   1      -6.826  -3.018 129.131  0.00  0.00    +0.280 C 
ENDBRANCH   9  11
ENDBRANCH   3   9
BRANCH   5  13
ATOM     13  O   LIG A   1     -10.003  -3.296 123.384  0.00  0.00    -0.389 OA
ATOM     14  H   LIG A   1     -10.450  -3.929 123.988  0.00  0.00    +0.210 HD
ENDBRANCH   5  13
BRANCH   6  15
ATOM     15  O   LIG A   1      -8.421  -1.399 122.221  0.00  0.00    -0.386 OA
ATOM     16  H   LIG A   1      -8.564  -0.433 122.304  0.00  0.00    +0.210 HD
ENDBRANCH   6  15
BRANCH   1  17
ATOM     17  O   LIG A   1      -7.985   0.392 124.412  0.00  0.00    -0.456 OA
BRANCH  17  19
ATOM     18  O   LIG A   1      -9.713   1.756 125.081  0.00  0.00    -0.246 OA
ATOM     19  C   LIG A   1      -8.778   1.481 124.342  0.00  0.00    +0.332 C 
BRANCH  19  20
ATOM     20  C   LIG A   1      -8.329   2.299 123.201  0.00  0.00    +0.092 C 
ATOM     21  C   LIG A   1      -7.046   2.658 123.064  0.00  0.00    +0.015 C 
BRANCH  21  22
ATOM     22  C   LIG A   1      -6.567   3.509 121.963  0.00  0.00    -0.021 A 
ATOM     23  C   LIG A   1      -5.450   4.348 122.112  0.00  0.00    +0.057 A 
ATOM     24  C   LIG A   1      -5.012   5.116 121.039  0.00  0.00    +0.159 A 
ATOM     25  C   LIG A   1      -5.683   5.073 119.822  0.00  0.00    +0.158 A 
ATOM     26  C   LIG A   1      -6.803   4.273 119.659  0.00  0.00    +0.050 A 
ATOM     27  C   LIG A   1      -7.249   3.495 120.733  0.00  0.00    +0.012 A 
BRANCH  24  28
ATOM     28  O   LIG A   1      -3.914   5.927 121.135  0.00  0.00    -0.503 OA
ATOM     29  H   LIG A   1      -4.206   6.795 121.463  0.00  0.00    +0.292 HD
ENDBRANCH  24  28
BRANCH  25  30
ATOM     30  O   LIG A   1      -5.237   5.824 118.773  0.00  0.00    -0.503 OA
ATOM     31  H   LIG A   1      -4.408   6.228 119.097  0.00  0.00    +0.292 HD
ENDBRANCH  25  30
ENDBRANCH  21  22
ENDBRANCH  19  20
ENDBRANCH  17  19
ENDBRANCH   1  17
TORSDOF 11
ENDMDL
MODEL 2
REMARK VINA RESULT:      -7.4      1.852      2.412
REMARK  Name = NuBBE_39
REMARK  12 active torsions:
REMARK  status: ('A' for Active; 'I' for Inactive)
REMARK    1  A    between atoms: C_2  and  O_3
REMARK    2  A    between atoms: C_2  and  C_20
REMARK    3  A    between atoms: O_3  and  C_4
REMARK    4  A    between atoms: C_7  and  O_8
REMARK    5  A    between atoms: C_7  and  C_9
REMARK    6  A    between atoms: C_9  and  O_10
REMARK    7  A    between atoms: O_10  and  C_11
REMARK    8  A    between atoms: C_14  and  O_16
REMARK    9  A    between atoms: C_17  and  O_19
REMARK   10  A    between atoms: C_21  and  C_22
REMARK   11  A    between atoms: C_24  and  O_25
REMARK   12  A    between atoms: C_26  and  O_27
REMARK                            x       y       z     vdW  Elec       q    Type
REMARK                         _______ _______ _______ _____ _____    ______ ____
ROOT
ATOM      1  C   LIG A   1      -9.049   0.135 124.675  0.00  0.00    +0.211 C 
ATOM      2  C   LIG A   1      -7.643  -0.333 125.081  0.00  0.00    +0.093 C 
ATOM      3  C   LIG A   1      -7.361  -1.767 124.620  0.00  0.00    +0.168 C 
ATOM      4  C   LIG A   1      -7.587  -1.923 123.108  0.00  0.00    +0.080 C 
ATOM      5  C   LIG A   1      -8.977  -1.456 122.686  0.00  0.00    +0.150 C 
ATOM      6  C   LIG A   1      -9.264  -0.025 123.158  0.00  0.00    +0.184 C 
ENDROOT
BRANCH   3   7
ATOM      7  O   LIG A   1      -8.293  -2.644 125.274  0.00  0.00    -0.377 OA
ATOM      8  H   LIG A   1      -7.881  -2.891 126.129  0.00  0.00    +0.211 HD
ENDBRANCH   3   7
BRANCH   3   9
ATOM      9  C   LIG A   1      -5.906  -2.149 124.960  0.00  0.00    +0.339 C 
ATOM     10  O   LIG A   1      -5.396  -2.077 126.071  0.00  0.00    -0.248 OA
BRANCH   9  11
ATOM     11  O   LIG A   1      -5.276  -2.586 123.830  0.00  0.00    -0.466 OA
ATOM     12  C   LIG A   1      -4.721  -3.899 123.931  0.00  0.00    +0.280 C 
ENDBRANCH   9  11
ENDBRANCH   3   9
BRANCH   5  13
ATOM     13  O   LIG A   1      -9.996  -2.325 123.203  0.00  0.00    -0.389 OA
ATOM     14  H   LIG A   1     -10.523  -1.813 123.856  0.00  0.00    +0.210 HD
ENDBRANCH   5  13
BRANCH   6  15
ATOM     15  O   LIG A   1     -10.620   0.305 122.824  0.00  0.00    -0.386 OA
ATOM     16  H   LIG A   1     -10.564   0.823 121.994  0.00  0.00    +0.210 HD
ENDBRANCH   6  15
BRANCH   1  17
ATOM     17  O   LIG A   1      -9.205   1.537 124.988  0.00  0.00    -0.456 OA
BRANCH  17  19
ATOM     18  O   LIG A   1      -7.424   2.183 126.293  0.00  0.00    -0.246 OA
ATOM     19  C   LIG A   1      -8.073   2.220 125.257  0.00  0.00    +0.332 C 
BRANCH  19  20
ATOM     20  C   LIG A   1      -7.745   3.041 124.078  0.00  0.00    +0.092 C 
ATOM     21  C   LIG A   1      -6.691   2.755 123.303  0.00  0.00    +0.015 C 
BRANCH  21  22
ATOM     22  C   LIG A   1      -6.306   3.576 122.143  0.00  0.00    -0.021 A 
ATOM     23  C   LIG A   1      -5.233   4.482 122.204  0.00  0.00    +0.057 A 
ATOM     24  C   LIG A   1      -4.884   5.218 121.078  0.00  0.00    +0.159 A 
ATOM     25  C   LIG A   1      -5.600   5.079 119.895  0.00  0.00    +0.158 A 
ATOM     26  C   LIG A   1      -6.678   4.211 119.818  0.00  0.00    +0.050 A 
ATOM     27  C   LIG A   1      -7.035   3.464 120.946  0.00  0.00    +0.012 A 
BRANCH  24  28
ATOM     28  O   LIG A   1      -3.831   6.092 121.089  0.00  0.00    -0.503 OA
ATOM     29  H   LIG A   1      -3.181   5.778 121.741  0.00  0.00    +0.292 HD
ENDBRANCH  24  28
BRANCH  25  30
ATOM     30  O   LIG A   1      -5.240   5.800 118.793  0.00  0.00    -0.503 OA
ATOM     31  H   LIG A   1      -5.159   6.719 119.119  0.00  0.00    +0.292 HD
ENDBRANCH  25  30
ENDBRANCH  21  22
ENDBRANCH  19  20
ENDBRANCH  17  19
ENDBRANCH   1  17
TORSDOF 11
ENDMDL
MODEL 3
REMARK VINA RESULT:      -6.9      5.797      8.495
REMARK  Name = NuBBE_39
REMARK  12 active torsions:
REMARK  status: ('A' for Active; 'I' for Inactive)
REMARK    1  A    between atoms: C_2  and  O_3
REMARK    2  A    between atoms: C_2  and  C_20
REMARK    3  A    between atoms: O_3  and  C_4
REMARK    4  A    between atoms: C_7  and  O_8
REMARK    5  A    between atoms: C_7  and  C_9
REMARK    6  A    between atoms: C_9  and  O_10
REMARK    7  A    between atoms: O_10  and  C_11
REMARK    8  A    between atoms: C_14  and  O_16
REMARK    9  A    between atoms: C_17  and  O_19
REMARK   10  A    between atoms: C_21  and  C_22
REMARK   11  A    between atoms: C_24  and  O_25
REMARK   12  A    between atoms: C_26  and  O_27
REMARK                            x       y       z     vdW  Elec       q    Type
REMARK                         _______ _______ _______ _____ _____    ______ ____
ROOT
ATOM      1  C   LIG A   1      -7.008   3.962 127.383  0.00  0.00    +0.211 C 
ATOM      2  C   LIG A   1      -7.840   2.886 126.668  0.00  0.00    +0.093 C 
ATOM      3  C   LIG A   1      -8.126   3.256 125.210  0.00  0.00    +0.168 C 
ATOM      4  C   LIG A   1      -6.829   3.559 124.444  0.00  0.00    +0.080 C 
ATOM      5  C   LIG A   1      -5.987   4.621 125.143  0.00  0.00    +0.150 C 
ATOM      6  C   LIG A   1      -5.710   4.256 126.607  0.00  0.00    +0.184 C 
ENDROOT
BRANCH   3   7
ATOM      7  O   LIG A   1      -8.910   4.461 125.195  0.00  0.00    -0.377 OA
ATOM      8  H   LIG A   1      -8.963   4.764 126.126  0.00  0.00    +0.211 HD
ENDBRANCH   3   7
BRANCH   3   9
ATOM      9  C   LIG A   1      -8.873   2.100 124.513  0.00  0.00    +0.339 C 
ATOM     10  O   LIG A   1     -10.085   1.931 124.524  0.00  0.00    -0.248 OA
BRANCH   9  11
ATOM     11  O   LIG A   1      -7.969   1.297 123.875  0.00  0.00    -0.466 OA
ATOM     12  C   LIG A   1      -8.417  -0.042 123.659  0.00  0.00    +0.280 C 
ENDBRANCH   9  11
ENDBRANCH   3   9
BRANCH   5  13
ATOM     13  O   LIG A   1      -6.630   5.905 125.102  0.00  0.00    -0.389 OA
ATOM     14  H   LIG A   1      -6.623   6.214 124.170  0.00  0.00    +0.210 HD
ENDBRANCH   5  13
BRANCH   6  15
ATOM     15  O   LIG A   1      -5.011   5.345 127.227  0.00  0.00    -0.386 OA
ATOM     16  H   LIG A   1      -5.212   5.271 128.184  0.00  0.00    +0.210 HD
ENDBRANCH   6  15
BRANCH   1  17
ATOM     17  O   LIG A   1      -6.630   3.494 128.696  0.00  0.00    -0.456 OA
BRANCH  17  19
ATOM     18  O   LIG A   1      -7.834   2.515 130.394  0.00  0.00    -0.246 OA
ATOM     19  C   LIG A   1      -7.614   3.433 129.617  0.00  0.00    +0.332 C 
BRANCH  19  20
ATOM     20  C   LIG A   1      -8.402   4.675 129.525  0.00  0.00    +0.092 C 
ATOM     21  C   LIG A   1      -9.637   4.755 130.037  0.00  0.00    +0.015 C 
BRANCH  21  22
ATOM     22  C   LIG A   1     -10.471   5.963 129.928  0.00  0.00    -0.021 A 
ATOM     23  C   LIG A   1     -10.203   6.959 128.973  0.00  0.00    +0.057 A 
ATOM     24  C   LIG A   1     -11.031   8.072 128.883  0.00  0.00    +0.159 A 
ATOM     25  C   LIG A   1     -12.114   8.217 129.743  0.00  0.00    +0.158 A 
ATOM     26  C   LIG A   1     -12.381   7.261 130.710  0.00  0.00    +0.050 A 
ATOM     27  C   LIG A   1     -11.555   6.135 130.806  0.00  0.00    +0.012 A 
BRANCH  24  28
ATOM     28  O   LIG A   1     -10.820   9.052 127.951  0.00  0.00    -0.503 OA
ATOM     29  H   LIG A   1     -10.084   8.774 127.379  0.00  0.00    +0.292 HD
ENDBRANCH  24  28
BRANCH  25  30
ATOM     30  O   LIG A   1     -12.925   9.310 129.638  0.00  0.00    -0.503 OA
ATOM     31  H   LIG A   1     -12.921   9.526 128.684  0.00  0.00    +0.292 HD
ENDBRANCH  25  30
ENDBRANCH  21  22
ENDBRANCH  19  20
ENDBRANCH  17  19
ENDBRANCH   1  17
TORSDOF 11
ENDMDL
MODEL 4
REMARK VINA RESULT:      -6.9      9.715     11.825
REMARK  Name = NuBBE_39
REMARK  12 active torsions:
REMARK  status: ('A' for Active; 'I' for Inactive)
REMARK    1  A    between atoms: C_2  and  O_3
REMARK    2  A    between atoms: C_2  and  C_20
REMARK    3  A    between atoms: O_3  and  C_4
REMARK    4  A    between atoms: C_7  and  O_8
REMARK    5  A    between atoms: C_7  and  C_9
REMARK    6  A    between atoms: C_9  and  O_10
REMARK    7  A    between atoms: O_10  and  C_11
REMARK    8  A    between atoms: C_14  and  O_16
REMARK    9  A    between atoms: C_17  and  O_19
REMARK   10  A    between atoms: C_21  and  C_22
REMARK   11  A    between atoms: C_24  and  O_25
REMARK   12  A    between atoms: C_26  and  O_27
REMARK                            x       y       z     vdW  Elec       q    Type
REMARK                         _______ _______ _______ _____ _____    ______ ____
ROOT
ATOM      1  C   LIG A   1      -8.863   6.388 130.948  0.00  0.00    +0.211 C 
ATOM      2  C   LIG A   1      -9.371   7.463 129.976  0.00  0.00    +0.093 C 
ATOM      3  C   LIG A   1     -10.816   7.206 129.539  0.00  0.00    +0.168 C 
ATOM      4  C   LIG A   1     -11.750   7.064 130.751  0.00  0.00    +0.080 C 
ATOM      5  C   LIG A   1     -11.258   6.004 131.731  0.00  0.00    +0.150 C 
ATOM      6  C   LIG A   1      -9.806   6.256 132.160  0.00  0.00    +0.184 C 
ENDROOT
BRANCH   3   7
ATOM      7  O   LIG A   1     -10.859   5.955 128.831  0.00  0.00    -0.377 OA
ATOM      8  H   LIG A   1     -10.254   6.055 128.065  0.00  0.00    +0.211 HD
ENDBRANCH   3   7
BRANCH   3   9
ATOM      9  C   LIG A   1     -11.308   8.365 128.648  0.00  0.00    +0.339 C 
ATOM     10  O   LIG A   1     -10.887   8.626 127.529  0.00  0.00    -0.248 OA
BRANCH   9  11
ATOM     11  O   LIG A   1     -12.293   9.051 129.301  0.00  0.00    -0.466 OA
ATOM     12  C   LIG A   1     -13.431   9.363 128.496  0.00  0.00    +0.280 C 
ENDBRANCH   9  11
ENDBRANCH   3   9
BRANCH   5  13
ATOM     13  O   LIG A   1     -11.349   4.688 131.164  0.00  0.00    -0.389 OA
ATOM     14  H   LIG A   1     -10.801   4.087 131.714  0.00  0.00    +0.210 HD
ENDBRANCH   5  13
BRANCH   6  15
ATOM     15  O   LIG A   1      -9.377   5.167 132.990  0.00  0.00    -0.386 OA
ATOM     16  H   LIG A   1      -8.524   5.455 133.377  0.00  0.00    +0.210 HD
ENDBRANCH   6  15
BRANCH   1  17
ATOM     17  O   LIG A   1      -7.562   6.761 131.453  0.00  0.00    -0.456 OA
BRANCH  17  19
ATOM     18  O   LIG A   1      -6.513   5.629 129.747  0.00  0.00    -0.246 OA
ATOM     19  C   LIG A   1      -6.497   6.254 130.798  0.00  0.00    +0.332 C 
BRANCH  19  20
ATOM     20  C   LIG A   1      -5.288   6.577 131.575  0.00  0.00    +0.092 C 
ATOM     21  C   LIG A   1      -4.104   6.762 130.976  0.00  0.00    +0.015 C 
BRANCH  21  22
ATOM     22  C   LIG A   1      -2.866   7.043 131.722  0.00  0.00    -0.021 A 
ATOM     23  C   LIG A   1      -2.631   8.295 132.315  0.00  0.00    +0.057 A 
ATOM     24  C   LIG A   1      -1.462   8.511 133.035  0.00  0.00    +0.159 A 
ATOM     25  C   LIG A   1      -0.513   7.503 133.158  0.00  0.00    +0.158 A 
ATOM     26  C   LIG A   1      -0.710   6.269 132.559  0.00  0.00    +0.050 A 
ATOM     27  C   LIG A   1      -1.886   6.041 131.834  0.00  0.00    +0.012 A 
BRANCH  24  28
ATOM     28  O   LIG A   1      -1.206   9.707 133.649  0.00  0.00    -0.503 OA
ATOM     29  H   LIG A   1      -0.530   9.560 134.333  0.00  0.00    +0.292 HD
ENDBRANCH  24  28
BRANCH  25  30
ATOM     30  O   LIG A   1       0.627   7.726 133.876  0.00  0.00    -0.503 OA
ATOM     31  H   LIG A   1       1.232   7.007 133.603  0.00  0.00    +0.292 HD
ENDBRANCH  25  30
ENDBRANCH  21  22
ENDBRANCH  19  20
ENDBRANCH  17  19
ENDBRANCH   1  17
TORSDOF 11
ENDMDL
MODEL 5
REMARK VINA RESULT:      -6.8      3.406      4.103
REMARK  Name = NuBBE_39
REMARK  12 active torsions:
REMARK  status: ('A' for Active; 'I' for Inactive)
REMARK    1  A    between atoms: C_2  and  O_3
REMARK    2  A    between atoms: C_2  and  C_20
REMARK    3  A    between atoms: O_3  and  C_4
REMARK    4  A    between atoms: C_7  and  O_8
REMARK    5  A    between atoms: C_7  and  C_9
REMARK    6  A    between atoms: C_9  and  O_10
REMARK    7  A    between atoms: O_10  and  C_11
REMARK    8  A    between atoms: C_14  and  O_16
REMARK    9  A    between atoms: C_17  and  O_19
REMARK   10  A    between atoms: C_21  and  C_22
REMARK   11  A    between atoms: C_24  and  O_25
REMARK   12  A    between atoms: C_26  and  O_27
REMARK                            x       y       z     vdW  Elec       q    Type
REMARK                         _______ _______ _______ _____ _____    ______ ____
ROOT
ATOM      1  C   LIG A   1      -8.097  -0.949 124.798  0.00  0.00    +0.211 C 
ATOM      2  C   LIG A   1      -8.174  -1.544 126.212  0.00  0.00    +0.093 C 
ATOM      3  C   LIG A   1      -8.832  -2.927 126.218  0.00  0.00    +0.168 C 
ATOM      4  C   LIG A   1      -8.126  -3.886 125.247  0.00  0.00    +0.080 C 
ATOM      5  C   LIG A   1      -8.034  -3.309 123.838  0.00  0.00    +0.150 C 
ATOM      6  C   LIG A   1      -7.386  -1.919 123.834  0.00  0.00    +0.184 C 
ENDROOT
BRANCH   3   7
ATOM      7  O   LIG A   1     -10.186  -2.786 125.755  0.00  0.00    -0.377 OA
ATOM      8  H   LIG A   1     -10.137  -2.752 124.775  0.00  0.00    +0.211 HD
ENDBRANCH   3   7
BRANCH   3   9
ATOM      9  C   LIG A   1      -8.792  -3.521 127.641  0.00  0.00    +0.339 C 
ATOM     10  O   LIG A   1      -9.584  -4.338 128.090  0.00  0.00    -0.248 OA
BRANCH   9  11
ATOM     11  O   LIG A   1      -7.728  -2.996 128.320  0.00  0.00    -0.466 OA
ATOM     12  C   LIG A   1      -7.791  -3.164 129.737  0.00  0.00    +0.280 C 
ENDBRANCH   9  11
ENDBRANCH   3   9
BRANCH   5  13
ATOM     13  O   LIG A   1      -9.331  -3.214 123.229  0.00  0.00    -0.389 OA
ATOM     14  H   LIG A   1      -9.842  -2.532 123.717  0.00  0.00    +0.210 HD
ENDBRANCH   5  13
BRANCH   6  15
ATOM     15  O   LIG A   1      -7.433  -1.394 122.499  0.00  0.00    -0.386 OA
ATOM     16  H   LIG A   1      -7.905  -0.538 122.572  0.00  0.00    +0.210 HD
ENDBRANCH   6  15
BRANCH   1  17
ATOM     17  O   LIG A   1      -7.328   0.274 124.825  0.00  0.00    -0.456 OA
BRANCH  17  19
ATOM     18  O   LIG A   1      -9.196   1.613 124.933  0.00  0.00    -0.246 OA
ATOM     19  C   LIG A   1      -8.007   1.401 125.125  0.00  0.00    +0.332 C 
BRANCH  19  20
ATOM     20  C   LIG A   1      -7.059   2.357 125.726  0.00  0.00    +0.092 C 
ATOM     21  C   LIG A   1      -5.736   2.155 125.666  0.00  0.00    +0.015 C 
BRANCH  21  22
ATOM     22  C   LIG A   1      -4.761   3.064 126.291  0.00  0.00    -0.021 A 
ATOM     23  C   LIG A   1      -5.084   4.398 126.593  0.00  0.00    +0.057 A 
ATOM     24  C   LIG A   1      -4.145   5.216 127.209  0.00  0.00    +0.159 A 
ATOM     25  C   LIG A   1      -2.878   4.729 127.513  0.00  0.00    +0.158 A 
ATOM     26  C   LIG A   1      -2.528   3.425 127.201  0.00  0.00    +0.050 A 
ATOM     27  C   LIG A   1      -3.469   2.594 126.583  0.00  0.00    +0.012 A 
BRANCH  24  28
ATOM     28  O   LIG A   1      -4.428   6.513 127.542  0.00  0.00    -0.503 OA
ATOM     29  H   LIG A   1      -4.186   7.080 126.789  0.00  0.00    +0.292 HD
ENDBRANCH  24  28
BRANCH  25  30
ATOM     30  O   LIG A   1      -1.968   5.540 128.127  0.00  0.00    -0.503 OA
ATOM     31  H   LIG A   1      -1.155   5.444 127.592  0.00  0.00    +0.292 HD
ENDBRANCH  25  30
ENDBRANCH  21  22
ENDBRANCH  19  20
ENDBRANCH  17  19
ENDBRANCH   1  17
TORSDOF 11
ENDMDL
MODEL 6
REMARK VINA RESULT:      -6.7      7.759      9.935
REMARK  Name = NuBBE_39
REMARK  12 active torsions:
REMARK  status: ('A' for Active; 'I' for Inactive)
REMARK    1  A    between atoms: C_2  and  O_3
REMARK    2  A    between atoms: C_2  and  C_20
REMARK    3  A    between atoms: O_3  and  C_4
REMARK    4  A    between atoms: C_7  and  O_8
REMARK    5  A    between atoms: C_7  and  C_9
REMARK    6  A    between atoms: C_9  and  O_10
REMARK    7  A    between atoms: O_10  and  C_11
REMARK    8  A    between atoms: C_14  and  O_16
REMARK    9  A    between atoms: C_17  and  O_19
REMARK   10  A    between atoms: C_21  and  C_22
REMARK   11  A    between atoms: C_24  and  O_25
REMARK   12  A    between atoms: C_26  and  O_27
REMARK                            x       y       z     vdW  Elec       q    Type
REMARK                         _______ _______ _______ _____ _____    ______ ____
ROOT
ATOM      1  C   LIG A   1      -8.574   5.689 131.365  0.00  0.00    +0.211 C 
ATOM      2  C   LIG A   1      -9.113   6.957 130.686  0.00  0.00    +0.093 C 
ATOM      3  C   LIG A   1     -10.065   6.630 129.532  0.00  0.00    +0.168 C 
ATOM      4  C   LIG A   1     -11.209   5.714 129.993  0.00  0.00    +0.080 C 
ATOM      5  C   LIG A   1     -10.693   4.452 130.676  0.00  0.00    +0.150 C 
ATOM      6  C   LIG A   1      -9.730   4.780 131.825  0.00  0.00    +0.184 C 
ENDROOT
BRANCH   3   7
ATOM      7  O   LIG A   1      -9.330   5.906 128.530  0.00  0.00    -0.377 OA
ATOM      8  H   LIG A   1      -9.853   5.099 128.338  0.00  0.00    +0.211 HD
ENDBRANCH   3   7
BRANCH   3   9
ATOM      9  C   LIG A   1     -10.655   7.933 128.954  0.00  0.00    +0.339 C 
ATOM     10  O   LIG A   1     -10.205   8.550 127.997  0.00  0.00    -0.248 OA
BRANCH   9  11
ATOM     11  O   LIG A   1     -11.762   8.286 129.672  0.00  0.00    -0.466 OA
ATOM     12  C   LIG A   1     -12.665   9.150 128.981  0.00  0.00    +0.280 C 
ENDBRANCH   9  11
ENDBRANCH   3   9
BRANCH   5  13
ATOM     13  O   LIG A   1     -10.020   3.594 129.742  0.00  0.00    -0.389 OA
ATOM     14  H   LIG A   1     -10.691   2.994 129.350  0.00  0.00    +0.210 HD
ENDBRANCH   5  13
BRANCH   6  15
ATOM     15  O   LIG A   1      -9.202   3.552 132.346  0.00  0.00    -0.386 OA
ATOM     16  H   LIG A   1      -8.366   3.798 132.794  0.00  0.00    +0.210 HD
ENDBRANCH   6  15
BRANCH   1  17
ATOM     17  O   LIG A   1      -7.815   6.050 132.541  0.00  0.00    -0.456 OA
BRANCH  17  19
ATOM     18  O   LIG A   1      -6.339   4.846 133.830  0.00  0.00    -0.246 OA
ATOM     19  C   LIG A   1      -6.691   5.340 132.769  0.00  0.00    +0.332 C 
BRANCH  19  20
ATOM     20  C   LIG A   1      -5.936   5.263 131.506  0.00  0.00    +0.092 C 
ATOM     21  C   LIG A   1      -4.920   4.403 131.353  0.00  0.00    +0.015 C 
BRANCH  21  22
ATOM     22  C   LIG A   1      -4.116   4.327 130.122  0.00  0.00    -0.021 A 
ATOM     23  C   LIG A   1      -3.417   5.442 129.628  0.00  0.00    +0.057 A 
ATOM     24  C   LIG A   1      -2.646   5.322 128.479  0.00  0.00    +0.159 A 
ATOM     25  C   LIG A   1      -2.573   4.110 127.802  0.00  0.00    +0.158 A 
ATOM     26  C   LIG A   1      -3.274   3.004 128.255  0.00  0.00    +0.050 A 
ATOM     27  C   LIG A   1      -4.052   3.115 129.414  0.00  0.00    +0.012 A 
BRANCH  24  28
ATOM     28  O   LIG A   1      -1.931   6.377 127.979  0.00  0.00    -0.503 OA
ATOM     29  H   LIG A   1      -2.358   6.670 127.155  0.00  0.00    +0.292 HD
ENDBRANCH  24  28
BRANCH  25  30
ATOM     30  O   LIG A   1      -1.804   4.003 126.679  0.00  0.00    -0.503 OA
ATOM     31  H   LIG A   1      -0.951   4.412 126.928  0.00  0.00    +0.292 HD
ENDBRANCH  25  30
ENDBRANCH  21  22
ENDBRANCH  19  20
ENDBRANCH  17  19
ENDBRANCH   1  17
TORSDOF 11
ENDMDL
MODEL 7
REMARK VINA RESULT:      -6.7      7.786     10.598
REMARK  Name = NuBBE_39
REMARK  12 active torsions:
REMARK  status: ('A' for Active; 'I' for Inactive)
REMARK    1  A    between atoms: C_2  and  O_3
REMARK    2  A    between atoms: C_2  and  C_20
REMARK    3  A    between atoms: O_3  and  C_4
REMARK    4  A    between atoms: C_7  and  O_8
REMARK    5  A    between atoms: C_7  and  C_9
REMARK    6  A    between atoms: C_9  and  O_10
REMARK    7  A    between atoms: O_10  and  C_11
REMARK    8  A    between atoms: C_14  and  O_16
REMARK    9  A    between atoms: C_17  and  O_19
REMARK   10  A    between atoms: C_21  and  C_22
REMARK   11  A    between atoms: C_24  and  O_25
REMARK   12  A    between atoms: C_26  and  O_27
REMARK                            x       y       z     vdW  Elec       q    Type
REMARK                         _______ _______ _______ _____ _____    ______ ____
ROOT
ATOM      1  C   LIG A   1      -4.477   5.338 129.906  0.00  0.00    +0.211 C 
ATOM      2  C   LIG A   1      -5.274   4.826 128.696  0.00  0.00    +0.093 C 
ATOM      3  C   LIG A   1      -4.508   5.013 127.383  0.00  0.00    +0.168 C 
ATOM      4  C   LIG A   1      -3.117   4.364 127.450  0.00  0.00    +0.080 C 
ATOM      5  C   LIG A   1      -2.313   4.856 128.649  0.00  0.00    +0.150 C 
ATOM      6  C   LIG A   1      -3.085   4.680 129.963  0.00  0.00    +0.184 C 
ENDROOT
BRANCH   3   7
ATOM      7  O   LIG A   1      -4.302   6.420 127.176  0.00  0.00    -0.377 OA
ATOM      8  H   LIG A   1      -4.432   6.847 128.049  0.00  0.00    +0.211 HD
ENDBRANCH   3   7
BRANCH   3   9
ATOM      9  C   LIG A   1      -5.306   4.391 126.218  0.00  0.00    +0.339 C 
ATOM     10  O   LIG A   1      -5.003   3.368 125.619  0.00  0.00    -0.248 OA
BRANCH   9  11
ATOM     11  O   LIG A   1      -6.408   5.158 125.965  0.00  0.00    -0.466 OA
ATOM     12  C   LIG A   1      -7.584   4.414 125.641  0.00  0.00    +0.280 C 
ENDBRANCH   9  11
ENDBRANCH   3   9
BRANCH   5  13
ATOM     13  O   LIG A   1      -1.958   6.240 128.505  0.00  0.00    -0.389 OA
ATOM     14  H   LIG A   1      -2.360   6.566 127.670  0.00  0.00    +0.210 HD
ENDBRANCH   5  13
BRANCH   6  15
ATOM     15  O   LIG A   1      -2.319   5.261 131.028  0.00  0.00    -0.386 OA
ATOM     16  H   LIG A   1      -2.077   4.512 131.613  0.00  0.00    +0.210 HD
ENDBRANCH   6  15
BRANCH   1  17
ATOM     17  O   LIG A   1      -5.168   4.994 131.127  0.00  0.00    -0.456 OA
BRANCH  17  19
ATOM     18  O   LIG A   1      -4.584   6.676 132.583  0.00  0.00    -0.246 OA
ATOM     19  C   LIG A   1      -5.413   6.008 131.982  0.00  0.00    +0.332 C 
BRANCH  19  20
ATOM     20  C   LIG A   1      -6.874   6.177 132.082  0.00  0.00    +0.092 C 
ATOM     21  C   LIG A   1      -7.628   6.375 130.993  0.00  0.00    +0.015 C 
BRANCH  21  22
ATOM     22  C   LIG A   1      -9.083   6.590 131.056  0.00  0.00    -0.021 A 
ATOM     23  C   LIG A   1      -9.781   7.219 130.011  0.00  0.00    +0.057 A 
ATOM     24  C   LIG A   1     -11.159   7.378 130.096  0.00  0.00    +0.159 A 
ATOM     25  C   LIG A   1     -11.851   6.935 131.218  0.00  0.00    +0.158 A 
ATOM     26  C   LIG A   1     -11.180   6.337 132.272  0.00  0.00    +0.050 A 
ATOM     27  C   LIG A   1      -9.793   6.169 132.194  0.00  0.00    +0.012 A 
BRANCH  24  28
ATOM     28  O   LIG A   1     -11.880   7.962 129.090  0.00  0.00    -0.503 OA
ATOM     29  H   LIG A   1     -11.393   8.747 128.785  0.00  0.00    +0.292 HD
ENDBRANCH  24  28
BRANCH  25  30
ATOM     30  O   LIG A   1     -13.206   7.089 131.285  0.00  0.00    -0.503 OA
ATOM     31  H   LIG A   1     -13.370   7.417 132.191  0.00  0.00    +0.292 HD
ENDBRANCH  25  30
ENDBRANCH  21  22
ENDBRANCH  19  20
ENDBRANCH  17  19
ENDBRANCH   1  17
TORSDOF 11
ENDMDL
MODEL 8
REMARK VINA RESULT:      -6.7      8.181     10.988
REMARK  Name = NuBBE_39
REMARK  12 active torsions:
REMARK  status: ('A' for Active; 'I' for Inactive)
REMARK    1  A    between atoms: C_2  and  O_3
REMARK    2  A    between atoms: C_2  and  C_20
REMARK    3  A    between atoms: O_3  and  C_4
REMARK    4  A    between atoms: C_7  and  O_8
REMARK    5  A    between atoms: C_7  and  C_9
REMARK    6  A    between atoms: C_9  and  O_10
REMARK    7  A    between atoms: O_10  and  C_11
REMARK    8  A    between atoms: C_14  and  O_16
REMARK    9  A    between atoms: C_17  and  O_19
REMARK   10  A    between atoms: C_21  and  C_22
REMARK   11  A    between atoms: C_24  and  O_25
REMARK   12  A    between atoms: C_26  and  O_27
REMARK                            x       y       z     vdW  Elec       q    Type
REMARK                         _______ _______ _______ _____ _____    ______ ____
ROOT
ATOM      1  C   LIG A   1      -3.951   5.475 130.636  0.00  0.00    +0.211 C 
ATOM      2  C   LIG A   1      -3.577   4.452 129.554  0.00  0.00    +0.093 C 
ATOM      3  C   LIG A   1      -3.537   5.082 128.158  0.00  0.00    +0.168 C 
ATOM      4  C   LIG A   1      -2.603   6.302 128.121  0.00  0.00    +0.080 C 
ATOM      5  C   LIG A   1      -2.957   7.326 129.194  0.00  0.00    +0.150 C 
ATOM      6  C   LIG A   1      -3.008   6.692 130.590  0.00  0.00    +0.184 C 
ENDROOT
BRANCH   3   7
ATOM      7  O   LIG A   1      -4.856   5.557 127.838  0.00  0.00    -0.377 OA
ATOM      8  H   LIG A   1      -5.370   4.768 127.562  0.00  0.00    +0.211 HD
ENDBRANCH   3   7
BRANCH   3   9
ATOM      9  C   LIG A   1      -3.057   4.040 127.126  0.00  0.00    +0.339 C 
ATOM     10  O   LIG A   1      -1.937   3.549 127.085  0.00  0.00    -0.248 OA
BRANCH   9  11
ATOM     11  O   LIG A   1      -4.081   3.746 126.271  0.00  0.00    -0.466 OA
ATOM     12  C   LIG A   1      -4.530   2.391 126.329  0.00  0.00    +0.280 C 
ENDBRANCH   9  11
ENDBRANCH   3   9
BRANCH   5  13
ATOM     13  O   LIG A   1      -4.223   7.947 128.923  0.00  0.00    -0.389 OA
ATOM     14  H   LIG A   1      -4.204   8.273 127.997  0.00  0.00    +0.210 HD
ENDBRANCH   5  13
BRANCH   6  15
ATOM     15  O   LIG A   1      -3.451   7.684 131.528  0.00  0.00    -0.386 OA
ATOM     16  H   LIG A   1      -2.791   7.670 132.253  0.00  0.00    +0.210 HD
ENDBRANCH   6  15
BRANCH   1  17
ATOM     17  O   LIG A   1      -3.817   4.874 131.943  0.00  0.00    -0.456 OA
BRANCH  17  19
ATOM     18  O   LIG A   1      -4.764   5.018 134.035  0.00  0.00    -0.246 OA
ATOM     19  C   LIG A   1      -4.818   5.110 132.817  0.00  0.00    +0.332 C 
BRANCH  19  20
ATOM     20  C   LIG A   1      -6.014   5.496 132.046  0.00  0.00    +0.092 C 
ATOM     21  C   LIG A   1      -7.132   5.908 132.658  0.00  0.00    +0.015 C 
BRANCH  21  22
ATOM     22  C   LIG A   1      -8.360   6.261 131.926  0.00  0.00    -0.021 A 
ATOM     23  C   LIG A   1      -9.632   5.904 132.404  0.00  0.00    +0.057 A 
ATOM     24  C   LIG A   1     -10.768   6.281 131.698  0.00  0.00    +0.159 A 
ATOM     25  C   LIG A   1     -10.655   6.993 130.510  0.00  0.00    +0.158 A 
ATOM     26  C   LIG A   1      -9.410   7.333 130.004  0.00  0.00    +0.050 A 
ATOM     27  C   LIG A   1      -8.261   6.961 130.710  0.00  0.00    +0.012 A 
BRANCH  24  28
ATOM     28  O   LIG A   1     -12.026   5.975 132.142  0.00  0.00    -0.503 OA
ATOM     29  H   LIG A   1     -12.477   5.463 131.449  0.00  0.00    +0.292 HD
ENDBRANCH  24  28
BRANCH  25  30
ATOM     30  O   LIG A   1     -11.779   7.365 129.831  0.00  0.00    -0.503 OA
ATOM     31  H   LIG A   1     -11.454   7.961 129.127  0.00  0.00    +0.292 HD
ENDBRANCH  25  30
ENDBRANCH  21  22
ENDBRANCH  19  20
ENDBRANCH  17  19
ENDBRANCH   1  17
TORSDOF 11
ENDMDL
MODEL 9
REMARK VINA RESULT:      -6.6      3.612      6.047
REMARK  Name = NuBBE_39
REMARK  12 active torsions:
REMARK  status: ('A' for Active; 'I' for Inactive)
REMARK    1  A    between atoms: C_2  and  O_3
REMARK    2  A    between atoms: C_2  and  C_20
REMARK    3  A    between atoms: O_3  and  C_4
REMARK    4  A    between atoms: C_7  and  O_8
REMARK    5  A    between atoms: C_7  and  C_9
REMARK    6  A    between atoms: C_9  and  O_10
REMARK    7  A    between atoms: O_10  and  C_11
REMARK    8  A    between atoms: C_14  and  O_16
REMARK    9  A    between atoms: C_17  and  O_19
REMARK   10  A    between atoms: C_21  and  C_22
REMARK   11  A    between atoms: C_24  and  O_25
REMARK   12  A    between atoms: C_26  and  O_27
REMARK                            x       y       z     vdW  Elec       q    Type
REMARK                         _______ _______ _______ _____ _____    ______ ____
ROOT
ATOM      1  C   LIG A   1      -6.779   2.477 126.104  0.00  0.00    +0.211 C 
ATOM      2  C   LIG A   1      -5.373   3.049 126.340  0.00  0.00    +0.093 C 
ATOM      3  C   LIG A   1      -5.416   4.389 127.081  0.00  0.00    +0.168 C 
ATOM      4  C   LIG A   1      -6.200   4.276 128.397  0.00  0.00    +0.080 C 
ATOM      5  C   LIG A   1      -7.597   3.703 128.183  0.00  0.00    +0.150 C 
ATOM      6  C   LIG A   1      -7.555   2.367 127.431  0.00  0.00    +0.184 C 
ENDROOT
BRANCH   3   7
ATOM      7  O   LIG A   1      -6.115   5.338 126.259  0.00  0.00    -0.377 OA
ATOM      8  H   LIG A   1      -5.541   5.501 125.480  0.00  0.00    +0.211 HD
ENDBRANCH   3   7
BRANCH   3   9
ATOM      9  C   LIG A   1      -3.980   4.867 127.382  0.00  0.00    +0.339 C 
ATOM     10  O   LIG A   1      -2.989   4.150 127.423  0.00  0.00    -0.248 OA
BRANCH   9  11
ATOM     11  O   LIG A   1      -3.987   6.217 127.589  0.00  0.00    -0.466 OA
ATOM     12  C   LIG A   1      -3.111   6.661 128.626  0.00  0.00    +0.280 C 
ENDBRANCH   9  11
ENDBRANCH   3   9
BRANCH   5  13
ATOM     13  O   LIG A   1      -8.428   4.618 127.451  0.00  0.00    -0.389 OA
ATOM     14  H   LIG A   1      -9.238   4.133 127.179  0.00  0.00    +0.210 HD
ENDBRANCH   5  13
BRANCH   6  15
ATOM     15  O   LIG A   1      -8.901   1.944 127.170  0.00  0.00    -0.386 OA
ATOM     16  H   LIG A   1      -9.452   2.401 127.839  0.00  0.00    +0.210 HD
ENDBRANCH   6  15
BRANCH   1  17
ATOM     17  O   LIG A   1      -6.677   1.146 125.552  0.00  0.00    -0.456 OA
BRANCH  17  19
ATOM     18  O   LIG A   1      -8.472   0.169 124.496  0.00  0.00    -0.246 OA
ATOM     19  C   LIG A   1      -7.473   0.873 124.497  0.00  0.00    +0.332 C 
BRANCH  19  20
ATOM     20  C   LIG A   1      -6.925   1.570 123.320  0.00  0.00    +0.092 C 
ATOM     21  C   LIG A   1      -7.190   2.864 123.091  0.00  0.00    +0.015 C 
BRANCH  21  22
ATOM     22  C   LIG A   1      -6.697   3.583 121.906  0.00  0.00    -0.021 A 
ATOM     23  C   LIG A   1      -7.437   3.632 120.712  0.00  0.00    +0.057 A 
ATOM     24  C   LIG A   1      -6.949   4.346 119.624  0.00  0.00    +0.159 A 
ATOM     25  C   LIG A   1      -5.724   4.998 119.701  0.00  0.00    +0.158 A 
ATOM     26  C   LIG A   1      -4.964   4.941 120.858  0.00  0.00    +0.050 A 
ATOM     27  C   LIG A   1      -5.448   4.227 121.960  0.00  0.00    +0.012 A 
BRANCH  24  28
ATOM     28  O   LIG A   1      -7.650   4.439 118.452  0.00  0.00    -0.503 OA
ATOM     29  H   LIG A   1      -7.121   4.027 117.747  0.00  0.00    +0.292 HD
ENDBRANCH  24  28
BRANCH  25  30
ATOM     30  O   LIG A   1      -5.261   5.704 118.628  0.00  0.00    -0.503 OA
ATOM     31  H   LIG A   1      -5.941   5.573 117.937  0.00  0.00    +0.292 HD
ENDBRANCH  25  30
ENDBRANCH  21  22
ENDBRANCH  19  20
ENDBRANCH  17  19
ENDBRANCH   1  17
TORSDOF 11
ENDMDL
