MODEL 1
REMARK VINA RESULT:      -4.0      0.000      0.000
REMARK  Name = NuBBE_1379
REMARK  5 active torsions:
REMARK  status: ('A' for Active; 'I' for Inactive)
REMARK    1  A    between atoms: C_1  and  C_2
REMARK    2  A    between atoms: C_2  and  C_3
REMARK    3  A    between atoms: C_3  and  C_4
REMARK    4  A    between atoms: C_4  and  C_5
REMARK    5  A    between atoms: C_5  and  C_6
REMARK                            x       y       z     vdW  Elec       q    Type
REMARK                         _______ _______ _______ _____ _____    ______ ____
ROOT
ATOM      1  C   LIG A   1      -5.600  -2.559 123.108  0.00  0.00    +0.007 C 
ENDROOT
BRANCH   1   2
ATOM      2  C   LIG A   1      -7.070  -2.146 123.174  0.00  0.00    +0.000 C 
BRANCH   2   4
ATOM      3  C   LIG A   1      -9.339  -3.184 123.508  0.00  0.00    +0.004 C 
ATOM      4  C   LIG A   1      -7.894  -3.149 123.980  0.00  0.00    -0.003 C 
ENDBRANCH   2   4
ENDBRANCH   1   2
BRANCH   1   5
ATOM      5  C   LIG A   1      -5.305  -3.738 124.030  0.00  0.00    +0.071 C 
BRANCH   5   6
ATOM      6  C   LIG A   1      -4.082  -4.509 123.594  0.00  0.00    +0.223 C 
ATOM      7  O   LIG A   1      -4.104  -5.504 122.879  0.00  0.00    -0.301 OA
ENDBRANCH   5   6
ENDBRANCH   1   5
TORSDOF 4
ENDMDL
MODEL 2
REMARK VINA RESULT:      -4.0     13.712     14.511
REMARK  Name = NuBBE_1379
REMARK  5 active torsions:
REMARK  status: ('A' for Active; 'I' for Inactive)
REMARK    1  A    between atoms: C_1  and  C_2
REMARK    2  A    between atoms: C_2  and  C_3
REMARK    3  A    between atoms: C_3  and  C_4
REMARK    4  A    between atoms: C_4  and  C_5
REMARK    5  A    between atoms: C_5  and  C_6
REMARK                            x       y       z     vdW  Elec       q    Type
REMARK                         _______ _______ _______ _____ _____    ______ ____
ROOT
ATOM      1  C   LIG A   1     -11.280   7.838 129.332  0.00  0.00    +0.007 C 
ENDROOT
BRANCH   1   2
ATOM      2  C   LIG A   1     -12.567   8.430 129.903  0.00  0.00    +0.000 C 
BRANCH   2   4
ATOM      3  C   LIG A   1     -13.429  10.793 129.998  0.00  0.00    +0.004 C 
ATOM      4  C   LIG A   1     -13.031   9.639 129.091  0.00  0.00    -0.003 C 
ENDBRANCH   2   4
ENDBRANCH   1   2
BRANCH   1   5
ATOM      5  C   LIG A   1     -10.857   8.543 128.047  0.00  0.00    +0.071 C 
BRANCH   5   6
ATOM      6  C   LIG A   1     -10.898   7.621 126.852  0.00  0.00    +0.223 C 
ATOM      7  O   LIG A   1     -10.833   7.989 125.685  0.00  0.00    -0.301 OA
ENDBRANCH   5   6
ENDBRANCH   1   5
TORSDOF 4
ENDMDL
MODEL 3
REMARK VINA RESULT:      -3.9     12.742     13.634
REMARK  Name = NuBBE_1379
REMARK  5 active torsions:
REMARK  status: ('A' for Active; 'I' for Inactive)
REMARK    1  A    between atoms: C_1  and  C_2
REMARK    2  A    between atoms: C_2  and  C_3
REMARK    3  A    between atoms: C_3  and  C_4
REMARK    4  A    between atoms: C_4  and  C_5
REMARK    5  A    between atoms: C_5  and  C_6
REMARK                            x       y       z     vdW  Elec       q    Type
REMARK                         _______ _______ _______ _____ _____    ______ ____
ROOT
ATOM      1  C   LIG A   1     -12.362   8.752 128.398  0.00  0.00    +0.007 C 
ENDROOT
BRANCH   1   2
ATOM      2  C   LIG A   1     -13.182   7.511 128.747  0.00  0.00    +0.000 C 
BRANCH   2   4
ATOM      3  C   LIG A   1     -12.834   7.442 131.240  0.00  0.00    +0.004 C 
ATOM      4  C   LIG A   1     -12.562   6.745 129.915  0.00  0.00    -0.003 C 
ENDBRANCH   2   4
ENDBRANCH   1   2
BRANCH   1   5
ATOM      5  C   LIG A   1     -10.956   8.384 127.931  0.00  0.00    +0.071 C 
BRANCH   5   6
ATOM      6  C   LIG A   1     -10.965   7.685 126.593  0.00  0.00    +0.223 C 
ATOM      7  O   LIG A   1     -10.440   6.600 126.369  0.00  0.00    -0.301 OA
ENDBRANCH   5   6
ENDBRANCH   1   5
TORSDOF 4
ENDMDL
MODEL 4
REMARK VINA RESULT:      -3.8      2.872      4.393
REMARK  Name = NuBBE_1379
REMARK  5 active torsions:
REMARK  status: ('A' for Active; 'I' for Inactive)
REMARK    1  A    between atoms: C_1  and  C_2
REMARK    2  A    between atoms: C_2  and  C_3
REMARK    3  A    between atoms: C_3  and  C_4
REMARK    4  A    between atoms: C_4  and  C_5
REMARK    5  A    between atoms: C_5  and  C_6
REMARK                            x       y       z     vdW  Elec       q    Type
REMARK                         _______ _______ _______ _____ _____    ______ ____
ROOT
ATOM      1  C   LIG A   1      -6.901  -3.582 124.346  0.00  0.00    +0.007 C 
ENDROOT
BRANCH   1   2
ATOM      2  C   LIG A   1      -5.987  -2.725 123.472  0.00  0.00    +0.000 C 
BRANCH   2   4
ATOM      3  C   LIG A   1      -4.488  -4.742 123.619  0.00  0.00    +0.004 C 
ATOM      4  C   LIG A   1      -4.544  -3.226 123.518  0.00  0.00    -0.003 C 
ENDBRANCH   2   4
ENDBRANCH   1   2
BRANCH   1   5
ATOM      5  C   LIG A   1      -8.374  -3.319 124.048  0.00  0.00    +0.071 C 
BRANCH   5   6
ATOM      6  C   LIG A   1      -9.172  -3.059 125.304  0.00  0.00    +0.223 C 
ATOM      7  O   LIG A   1      -9.752  -2.010 125.556  0.00  0.00    -0.301 OA
ENDBRANCH   5   6
ENDBRANCH   1   5
TORSDOF 4
ENDMDL
MODEL 5
REMARK VINA RESULT:      -3.8      7.858      8.908
REMARK  Name = NuBBE_1379
REMARK  5 active torsions:
REMARK  status: ('A' for Active; 'I' for Inactive)
REMARK    1  A    between atoms: C_1  and  C_2
REMARK    2  A    between atoms: C_2  and  C_3
REMARK    3  A    between atoms: C_3  and  C_4
REMARK    4  A    between atoms: C_4  and  C_5
REMARK    5  A    between atoms: C_5  and  C_6
REMARK                            x       y       z     vdW  Elec       q    Type
REMARK                         _______ _______ _______ _____ _____    ______ ____
ROOT
ATOM      1  C   LIG A   1      -7.156   3.922 120.474  0.00  0.00    +0.007 C 
ENDROOT
BRANCH   1   2
ATOM      2  C   LIG A   1      -6.061   3.216 121.271  0.00  0.00    +0.000 C 
BRANCH   2   4
ATOM      3  C   LIG A   1      -5.536   4.337 123.463  0.00  0.00    +0.004 C 
ATOM      4  C   LIG A   1      -6.351   3.256 122.771  0.00  0.00    -0.003 C 
ENDBRANCH   2   4
ENDBRANCH   1   2
BRANCH   1   5
ATOM      5  C   LIG A   1      -6.578   4.735 119.320  0.00  0.00    +0.071 C 
BRANCH   5   6
ATOM      6  C   LIG A   1      -5.184   5.235 119.618  0.00  0.00    +0.223 C 
ATOM      7  O   LIG A   1      -4.930   6.298 120.172  0.00  0.00    -0.301 OA
ENDBRANCH   5   6
ENDBRANCH   1   5
TORSDOF 4
ENDMDL
MODEL 6
REMARK VINA RESULT:      -3.7     12.956     13.851
REMARK  Name = NuBBE_1379
REMARK  5 active torsions:
REMARK  status: ('A' for Active; 'I' for Inactive)
REMARK    1  A    between atoms: C_1  and  C_2
REMARK    2  A    between atoms: C_2  and  C_3
REMARK    3  A    between atoms: C_3  and  C_4
REMARK    4  A    between atoms: C_4  and  C_5
REMARK    5  A    between atoms: C_5  and  C_6
REMARK                            x       y       z     vdW  Elec       q    Type
REMARK                         _______ _______ _______ _____ _____    ______ ____
ROOT
ATOM      1  C   LIG A   1     -12.301   8.441 129.653  0.00  0.00    +0.007 C 
ENDROOT
BRANCH   1   2
ATOM      2  C   LIG A   1     -13.235   8.799 128.499  0.00  0.00    +0.000 C 
BRANCH   2   4
ATOM      3  C   LIG A   1     -12.646   7.068 126.768  0.00  0.00    +0.004 C 
ATOM      4  C   LIG A   1     -13.701   7.549 127.752  0.00  0.00    -0.003 C 
ENDBRANCH   2   4
ENDBRANCH   1   2
BRANCH   1   5
ATOM      5  C   LIG A   1     -12.820   7.246 130.448  0.00  0.00    +0.071 C 
BRANCH   5   6
ATOM      6  C   LIG A   1     -11.801   6.136 130.539  0.00  0.00    +0.223 C 
ATOM      7  O   LIG A   1     -11.692   5.222 129.730  0.00  0.00    -0.301 OA
ENDBRANCH   5   6
ENDBRANCH   1   5
TORSDOF 4
ENDMDL
MODEL 7
REMARK VINA RESULT:      -3.7      3.074      4.532
REMARK  Name = NuBBE_1379
REMARK  5 active torsions:
REMARK  status: ('A' for Active; 'I' for Inactive)
REMARK    1  A    between atoms: C_1  and  C_2
REMARK    2  A    between atoms: C_2  and  C_3
REMARK    3  A    between atoms: C_3  and  C_4
REMARK    4  A    between atoms: C_4  and  C_5
REMARK    5  A    between atoms: C_5  and  C_6
REMARK                            x       y       z     vdW  Elec       q    Type
REMARK                         _______ _______ _______ _____ _____    ______ ____
ROOT
ATOM      1  C   LIG A   1      -6.525  -1.620 123.040  0.00  0.00    +0.007 C 
ENDROOT
BRANCH   1   2
ATOM      2  C   LIG A   1      -5.848  -2.590 124.008  0.00  0.00    +0.000 C 
BRANCH   2   4
ATOM      3  C   LIG A   1      -4.516  -4.697 123.662  0.00  0.00    +0.004 C 
ATOM      4  C   LIG A   1      -4.591  -3.203 123.393  0.00  0.00    -0.003 C 
ENDBRANCH   2   4
ENDBRANCH   1   2
BRANCH   1   5
ATOM      5  C   LIG A   1      -7.919  -2.099 122.646  0.00  0.00    +0.071 C 
BRANCH   5   6
ATOM      6  C   LIG A   1      -9.007  -1.266 123.280  0.00  0.00    +0.223 C 
ATOM      7  O   LIG A   1      -9.980  -0.819 122.683  0.00  0.00    -0.301 OA
ENDBRANCH   5   6
ENDBRANCH   1   5
TORSDOF 4
ENDMDL
MODEL 8
REMARK VINA RESULT:      -3.6     13.149     14.048
REMARK  Name = NuBBE_1379
REMARK  5 active torsions:
REMARK  status: ('A' for Active; 'I' for Inactive)
REMARK    1  A    between atoms: C_1  and  C_2
REMARK    2  A    between atoms: C_2  and  C_3
REMARK    3  A    between atoms: C_3  and  C_4
REMARK    4  A    between atoms: C_4  and  C_5
REMARK    5  A    between atoms: C_5  and  C_6
REMARK                            x       y       z     vdW  Elec       q    Type
REMARK                         _______ _______ _______ _____ _____    ______ ____
ROOT
ATOM      1  C   LIG A   1     -12.829   7.447 129.323  0.00  0.00    +0.007 C 
ENDROOT
BRANCH   1   2
ATOM      2  C   LIG A   1     -12.885   7.411 130.849  0.00  0.00    +0.000 C 
BRANCH   2   4
ATOM      3  C   LIG A   1     -11.410   5.410 130.446  0.00  0.00    +0.004 C 
ATOM      4  C   LIG A   1     -11.791   6.511 131.424  0.00  0.00    -0.003 C 
ENDBRANCH   2   4
ENDBRANCH   1   2
BRANCH   1   5
ATOM      5  C   LIG A   1     -12.176   8.729 128.814  0.00  0.00    +0.071 C 
BRANCH   5   6
ATOM      6  C   LIG A   1     -10.831   8.468 128.178  0.00  0.00    +0.223 C 
ATOM      7  O   LIG A   1      -9.805   8.213 128.797  0.00  0.00    -0.301 OA
ENDBRANCH   5   6
ENDBRANCH   1   5
TORSDOF 4
ENDMDL
MODEL 9
REMARK VINA RESULT:      -3.6      3.936      5.040
REMARK  Name = NuBBE_1379
REMARK  5 active torsions:
REMARK  status: ('A' for Active; 'I' for Inactive)
REMARK    1  A    between atoms: C_1  and  C_2
REMARK    2  A    between atoms: C_2  and  C_3
REMARK    3  A    between atoms: C_3  and  C_4
REMARK    4  A    between atoms: C_4  and  C_5
REMARK    5  A    between atoms: C_5  and  C_6
REMARK                            x       y       z     vdW  Elec       q    Type
REMARK                         _______ _______ _______ _____ _____    ______ ____
ROOT
ATOM      1  C   LIG A   1      -9.430  -3.075 125.745  0.00  0.00    +0.007 C 
ENDROOT
BRANCH   1   2
ATOM      2  C   LIG A   1      -8.470  -2.833 126.908  0.00  0.00    +0.000 C 
BRANCH   2   4
ATOM      3  C   LIG A   1      -8.190  -3.235 129.377  0.00  0.00    +0.004 C 
ATOM      4  C   LIG A   1      -8.760  -3.775 128.075  0.00  0.00    -0.003 C 
ENDBRANCH   2   4
ENDBRANCH   1   2
BRANCH   1   5
ATOM      5  C   LIG A   1      -8.704  -3.626 124.521  0.00  0.00    +0.071 C 
BRANCH   5   6
ATOM      6  C   LIG A   1      -9.139  -2.942 123.246  0.00  0.00    +0.223 C 
ATOM      7  O   LIG A   1      -9.876  -1.964 123.196  0.00  0.00    -0.301 OA
ENDBRANCH   5   6
ENDBRANCH   1   5
TORSDOF 4
ENDMDL
