MODEL 1
REMARK VINA RESULT:      -6.4      0.000      0.000
REMARK  Name = NuBBE_440
REMARK  5 active torsions:
REMARK  status: ('A' for Active; 'I' for Inactive)
REMARK    1  A    between atoms: C_5  and  O_6
REMARK    2  A    between atoms: C_14  and  O_16
REMARK    3  A    between atoms: C_17  and  C_19
REMARK    4  A    between atoms: C_19  and  O_20
REMARK    5  A    between atoms: O_20  and  C_21
REMARK                            x       y       z     vdW  Elec       q    Type
REMARK                         _______ _______ _______ _____ _____    ______ ____
ROOT
ATOM      1  C   LIG A   1      -9.804   7.457 129.933  0.00  0.00    +0.041 C 
ATOM      2  C   LIG A   1     -10.157   7.875 128.522  0.00  0.00    -0.023 C 
ATOM      3  C   LIG A   1     -11.496   7.914 128.314  0.00  0.00    +0.006 C 
ATOM      4  C   LIG A   1     -12.234   7.214 129.405  0.00  0.00    +0.115 C 
ATOM      5  C   LIG A   1     -11.193   7.420 130.469  0.00  0.00    +0.091 C 
ATOM      6  C   LIG A   1     -11.612   6.405 131.455  0.00  0.00    +0.260 C 
ATOM      7  O   LIG A   1     -12.949   6.909 131.703  0.00  0.00    -0.348 OA
ATOM      8  C   LIG A   1     -13.403   7.484 130.377  0.00  0.00    +0.202 C 
ATOM      9  O   LIG A   1     -10.612   6.436 132.454  0.00  0.00    -0.322 OA
ATOM     10  C   LIG A   1      -9.381   5.892 131.922  0.00  0.00    +0.264 C 
ATOM     11  C   LIG A   1      -8.997   6.266 130.448  0.00  0.00    +0.161 C 
ENDROOT
BRANCH   4  12
ATOM     12  O   LIG A   1     -12.420   5.879 128.928  0.00  0.00    -0.382 OA
ATOM     13  H   LIG A   1     -11.653   5.325 129.183  0.00  0.00    +0.211 HD
ENDBRANCH   4  12
BRANCH  10  14
ATOM     14  O   LIG A   1      -8.351   6.378 132.774  0.00  0.00    -0.366 OA
ATOM     15  H   LIG A   1      -7.527   6.135 132.315  0.00  0.00    +0.212 HD
ENDBRANCH  10  14
BRANCH  11  16
ATOM     16  C   LIG A   1      -9.095   5.041 129.574  0.00  0.00    +0.315 C 
ATOM     17  O   LIG A   1     -10.013   4.236 129.605  0.00  0.00    -0.250 OA
BRANCH  16  18
ATOM     18  O   LIG A   1      -8.016   4.957 128.748  0.00  0.00    -0.468 OA
ATOM     19  C   LIG A   1      -6.820   4.498 129.382  0.00  0.00    +0.280 C 
ENDBRANCH  16  18
ENDBRANCH  11  16
TORSDOF 4
ENDMDL
MODEL 2
REMARK VINA RESULT:      -5.8      1.969      3.416
REMARK  Name = NuBBE_440
REMARK  5 active torsions:
REMARK  status: ('A' for Active; 'I' for Inactive)
REMARK    1  A    between atoms: C_5  and  O_6
REMARK    2  A    between atoms: C_14  and  O_16
REMARK    3  A    between atoms: C_17  and  C_19
REMARK    4  A    between atoms: C_19  and  O_20
REMARK    5  A    between atoms: O_20  and  C_21
REMARK                            x       y       z     vdW  Elec       q    Type
REMARK                         _______ _______ _______ _____ _____    ______ ____
ROOT
ATOM      1  C   LIG A   1      -8.997   4.814 130.445  0.00  0.00    +0.041 C 
ATOM      2  C   LIG A   1      -9.888   3.607 130.643  0.00  0.00    -0.023 C 
ATOM      3  C   LIG A   1     -11.192   3.879 130.389  0.00  0.00    +0.006 C 
ATOM      4  C   LIG A   1     -11.435   5.349 130.322  0.00  0.00    +0.115 C 
ATOM      5  C   LIG A   1     -10.041   5.730 129.908  0.00  0.00    +0.091 C 
ATOM      6  C   LIG A   1     -10.047   7.169 130.234  0.00  0.00    +0.260 C 
ATOM      7  O   LIG A   1     -11.146   7.564 129.374  0.00  0.00    -0.348 OA
ATOM      8  C   LIG A   1     -12.090   6.378 129.376  0.00  0.00    +0.202 C 
ATOM      9  O   LIG A   1      -8.723   7.601 129.990  0.00  0.00    -0.322 OA
ATOM     10  C   LIG A   1      -7.840   7.039 130.988  0.00  0.00    +0.264 C 
ATOM     11  C   LIG A   1      -8.087   5.553 131.425  0.00  0.00    +0.161 C 
ENDROOT
BRANCH   4  12
ATOM     12  O   LIG A   1     -11.842   5.717 131.643  0.00  0.00    -0.382 OA
ATOM     13  H   LIG A   1     -11.460   6.587 131.879  0.00  0.00    +0.211 HD
ENDBRANCH   4  12
BRANCH  10  14
ATOM     14  O   LIG A   1      -6.536   7.112 130.425  0.00  0.00    -0.366 OA
ATOM     15  H   LIG A   1      -6.552   7.925 129.888  0.00  0.00    +0.212 HD
ENDBRANCH  10  14
BRANCH  11  16
ATOM     16  C   LIG A   1      -8.575   5.520 132.851  0.00  0.00    +0.315 C 
ATOM     17  O   LIG A   1      -9.387   6.300 133.327  0.00  0.00    -0.250 OA
BRANCH  16  18
ATOM     18  O   LIG A   1      -7.983   4.503 133.535  0.00  0.00    -0.468 OA
ATOM     19  C   LIG A   1      -7.886   4.717 134.946  0.00  0.00    +0.280 C 
ENDBRANCH  16  18
ENDBRANCH  11  16
TORSDOF 4
ENDMDL
MODEL 3
REMARK VINA RESULT:      -5.8      8.491     10.403
REMARK  Name = NuBBE_440
REMARK  5 active torsions:
REMARK  status: ('A' for Active; 'I' for Inactive)
REMARK    1  A    between atoms: C_5  and  O_6
REMARK    2  A    between atoms: C_14  and  O_16
REMARK    3  A    between atoms: C_17  and  C_19
REMARK    4  A    between atoms: C_19  and  O_20
REMARK    5  A    between atoms: O_20  and  C_21
REMARK                            x       y       z     vdW  Elec       q    Type
REMARK                         _______ _______ _______ _____ _____    ______ ____
ROOT
ATOM      1  C   LIG A   1      -8.449  -1.153 125.119  0.00  0.00    +0.041 C 
ATOM      2  C   LIG A   1      -7.511  -0.333 125.979  0.00  0.00    -0.023 C 
ATOM      3  C   LIG A   1      -7.486   0.973 125.616  0.00  0.00    +0.006 C 
ATOM      4  C   LIG A   1      -8.110   1.175 124.276  0.00  0.00    +0.115 C 
ATOM      5  C   LIG A   1      -9.016  -0.023 124.332  0.00  0.00    +0.091 C 
ATOM      6  C   LIG A   1      -9.355  -0.172 122.904  0.00  0.00    +0.260 C 
ATOM      7  O   LIG A   1      -9.959   1.132 122.706  0.00  0.00    -0.348 OA
ATOM      8  C   LIG A   1      -9.185   2.064 123.616  0.00  0.00    +0.202 C 
ATOM      9  O   LIG A   1     -10.118  -1.360 122.834  0.00  0.00    -0.322 OA
ATOM     10  C   LIG A   1      -9.263  -2.498 123.091  0.00  0.00    +0.264 C 
ATOM     11  C   LIG A   1      -8.178  -2.355 124.215  0.00  0.00    +0.161 C 
ENDROOT
BRANCH   4  12
ATOM     12  O   LIG A   1      -7.021   1.122 123.350  0.00  0.00    -0.382 OA
ATOM     13  H   LIG A   1      -6.350   1.794 123.588  0.00  0.00    +0.211 HD
ENDBRANCH   4  12
BRANCH  10  14
ATOM     14  O   LIG A   1     -10.139  -3.554 123.469  0.00  0.00    -0.366 OA
ATOM     15  H   LIG A   1     -10.219  -4.096 122.664  0.00  0.00    +0.212 HD
ENDBRANCH  10  14
BRANCH  11  16
ATOM     16  C   LIG A   1      -6.804  -2.352 123.594  0.00  0.00    +0.315 C 
ATOM     17  O   LIG A   1      -6.486  -1.698 122.612  0.00  0.00    -0.250 OA
BRANCH  16  18
ATOM     18  O   LIG A   1      -5.969  -3.181 124.278  0.00  0.00    -0.468 OA
ATOM     19  C   LIG A   1      -4.809  -3.587 123.547  0.00  0.00    +0.280 C 
ENDBRANCH  16  18
ENDBRANCH  11  16
TORSDOF 4
ENDMDL
MODEL 4
REMARK VINA RESULT:      -5.6      7.981     10.496
REMARK  Name = NuBBE_440
REMARK  5 active torsions:
REMARK  status: ('A' for Active; 'I' for Inactive)
REMARK    1  A    between atoms: C_5  and  O_6
REMARK    2  A    between atoms: C_14  and  O_16
REMARK    3  A    between atoms: C_17  and  C_19
REMARK    4  A    between atoms: C_19  and  O_20
REMARK    5  A    between atoms: O_20  and  C_21
REMARK                            x       y       z     vdW  Elec       q    Type
REMARK                         _______ _______ _______ _____ _____    ______ ____
ROOT
ATOM      1  C   LIG A   1      -8.289  -2.577 126.001  0.00  0.00    +0.041 C 
ATOM      2  C   LIG A   1      -7.360  -2.529 127.196  0.00  0.00    -0.023 C 
ATOM      3  C   LIG A   1      -7.130  -1.262 127.622  0.00  0.00    +0.006 C 
ATOM      4  C   LIG A   1      -7.568  -0.262 126.606  0.00  0.00    +0.115 C 
ATOM      5  C   LIG A   1      -8.617  -1.125 125.963  0.00  0.00    +0.091 C 
ATOM      6  C   LIG A   1      -8.807  -0.411 124.686  0.00  0.00    +0.260 C 
ATOM      7  O   LIG A   1      -9.217   0.869 125.232  0.00  0.00    -0.348 OA
ATOM      8  C   LIG A   1      -8.442   1.008 126.526  0.00  0.00    +0.202 C 
ATOM      9  O   LIG A   1      -9.700  -1.221 123.947  0.00  0.00    -0.322 OA
ATOM     10  C   LIG A   1      -9.029  -2.439 123.548  0.00  0.00    +0.264 C 
ATOM     11  C   LIG A   1      -8.069  -3.116 124.589  0.00  0.00    +0.161 C 
ENDROOT
BRANCH   4  12
ATOM     12  O   LIG A   1      -6.396   0.019 125.835  0.00  0.00    -0.382 OA
ATOM     13  H   LIG A   1      -6.476   0.902 125.419  0.00  0.00    +0.211 HD
ENDBRANCH   4  12
BRANCH  10  14
ATOM     14  O   LIG A   1     -10.067  -3.365 123.252  0.00  0.00    -0.366 OA
ATOM     15  H   LIG A   1      -9.616  -4.084 122.775  0.00  0.00    +0.212 HD
ENDBRANCH  10  14
BRANCH  11  16
ATOM     16  C   LIG A   1      -6.644  -3.004 124.110  0.00  0.00    +0.315 C 
ATOM     17  O   LIG A   1      -6.124  -1.974 123.706  0.00  0.00    -0.250 OA
BRANCH  16  18
ATOM     18  O   LIG A   1      -6.018  -4.210 124.186  0.00  0.00    -0.468 OA
ATOM     19  C   LIG A   1      -4.662  -4.202 123.735  0.00  0.00    +0.280 C 
ENDBRANCH  16  18
ENDBRANCH  11  16
TORSDOF 4
ENDMDL
MODEL 5
REMARK VINA RESULT:      -5.4      6.540      9.093
REMARK  Name = NuBBE_440
REMARK  5 active torsions:
REMARK  status: ('A' for Active; 'I' for Inactive)
REMARK    1  A    between atoms: C_5  and  O_6
REMARK    2  A    between atoms: C_14  and  O_16
REMARK    3  A    between atoms: C_17  and  C_19
REMARK    4  A    between atoms: C_19  and  O_20
REMARK    5  A    between atoms: O_20  and  C_21
REMARK                            x       y       z     vdW  Elec       q    Type
REMARK                         _______ _______ _______ _____ _____    ______ ____
ROOT
ATOM      1  C   LIG A   1      -7.097   0.761 124.265  0.00  0.00    +0.041 C 
ATOM      2  C   LIG A   1      -6.405  -0.439 124.876  0.00  0.00    -0.023 C 
ATOM      3  C   LIG A   1      -7.060  -1.599 124.622  0.00  0.00    +0.006 C 
ATOM      4  C   LIG A   1      -8.440  -1.342 124.116  0.00  0.00    +0.115 C 
ATOM      5  C   LIG A   1      -8.152   0.012 123.528  0.00  0.00    +0.091 C 
ATOM      6  C   LIG A   1      -9.522   0.543 123.393  0.00  0.00    +0.260 C 
ATOM      7  O   LIG A   1     -10.048  -0.484 122.514  0.00  0.00    -0.348 OA
ATOM      8  C   LIG A   1      -9.341  -1.758 122.935  0.00  0.00    +0.202 C 
ATOM      9  O   LIG A   1      -9.352   1.876 122.954  0.00  0.00    -0.322 OA
ATOM     10  C   LIG A   1      -8.794   2.670 124.028  0.00  0.00    +0.264 C 
ATOM     11  C   LIG A   1      -7.681   2.013 124.917  0.00  0.00    +0.161 C 
ENDROOT
BRANCH   4  12
ATOM     12  O   LIG A   1      -9.272  -1.380 125.279  0.00  0.00    -0.382 OA
ATOM     13  H   LIG A   1     -10.013  -2.006 125.136  0.00  0.00    +0.211 HD
ENDBRANCH   4  12
BRANCH  10  14
ATOM     14  O   LIG A   1      -8.226   3.813 123.400  0.00  0.00    -0.366 OA
ATOM     15  H   LIG A   1      -7.786   4.290 124.126  0.00  0.00    +0.212 HD
ENDBRANCH  10  14
BRANCH  11  16
ATOM     16  C   LIG A   1      -8.216   1.782 126.307  0.00  0.00    +0.315 C 
ATOM     17  O   LIG A   1      -9.332   1.354 126.562  0.00  0.00    -0.250 OA
BRANCH  16  18
ATOM     18  O   LIG A   1      -7.284   2.119 127.240  0.00  0.00    -0.468 OA
ATOM     19  C   LIG A   1      -6.604   3.350 126.978  0.00  0.00    +0.280 C 
ENDBRANCH  16  18
ENDBRANCH  11  16
TORSDOF 4
ENDMDL
MODEL 6
REMARK VINA RESULT:      -5.4      7.527      9.607
REMARK  Name = NuBBE_440
REMARK  5 active torsions:
REMARK  status: ('A' for Active; 'I' for Inactive)
REMARK    1  A    between atoms: C_5  and  O_6
REMARK    2  A    between atoms: C_14  and  O_16
REMARK    3  A    between atoms: C_17  and  C_19
REMARK    4  A    between atoms: C_19  and  O_20
REMARK    5  A    between atoms: O_20  and  C_21
REMARK                            x       y       z     vdW  Elec       q    Type
REMARK                         _______ _______ _______ _____ _____    ______ ____
ROOT
ATOM      1  C   LIG A   1      -7.768  -0.180 123.625  0.00  0.00    +0.041 C 
ATOM      2  C   LIG A   1      -6.620  -0.997 123.072  0.00  0.00    -0.023 C 
ATOM      3  C   LIG A   1      -6.665  -2.291 123.476  0.00  0.00    +0.006 C 
ATOM      4  C   LIG A   1      -7.617  -2.472 124.609  0.00  0.00    +0.115 C 
ATOM      5  C   LIG A   1      -8.500  -1.303 124.274  0.00  0.00    +0.091 C 
ATOM      6  C   LIG A   1      -9.207  -1.123 125.556  0.00  0.00    +0.260 C 
ATOM      7  O   LIG A   1      -9.816  -2.438 125.634  0.00  0.00    -0.348 OA
ATOM      8  C   LIG A   1      -8.810  -3.373 124.993  0.00  0.00    +0.202 C 
ATOM      9  O   LIG A   1      -9.986   0.044 125.380  0.00  0.00    -0.322 OA
ATOM     10  C   LIG A   1      -9.117   1.199 125.317  0.00  0.00    +0.264 C 
ATOM     11  C   LIG A   1      -7.771   1.055 124.525  0.00  0.00    +0.161 C 
ENDROOT
BRANCH   4  12
ATOM     12  O   LIG A   1      -6.813  -2.361 125.788  0.00  0.00    -0.382 OA
ATOM     13  H   LIG A   1      -7.384  -2.184 126.564  0.00  0.00    +0.211 HD
ENDBRANCH   4  12
BRANCH  10  14
ATOM     14  O   LIG A   1      -9.883   2.217 124.685  0.00  0.00    -0.366 OA
ATOM     15  H   LIG A   1      -9.233   2.708 124.152  0.00  0.00    +0.212 HD
ENDBRANCH  10  14
BRANCH  11  16
ATOM     16  C   LIG A   1      -6.610   1.109 125.486  0.00  0.00    +0.315 C 
ATOM     17  O   LIG A   1      -6.453   0.351 126.431  0.00  0.00    -0.250 OA
BRANCH  16  18
ATOM     18  O   LIG A   1      -5.764   2.123 125.156  0.00  0.00    -0.468 OA
ATOM     19  C   LIG A   1      -4.791   2.432 126.158  0.00  0.00    +0.280 C 
ENDBRANCH  16  18
ENDBRANCH  11  16
TORSDOF 4
ENDMDL
MODEL 7
REMARK VINA RESULT:      -5.4      8.545     10.519
REMARK  Name = NuBBE_440
REMARK  5 active torsions:
REMARK  status: ('A' for Active; 'I' for Inactive)
REMARK    1  A    between atoms: C_5  and  O_6
REMARK    2  A    between atoms: C_14  and  O_16
REMARK    3  A    between atoms: C_17  and  C_19
REMARK    4  A    between atoms: C_19  and  O_20
REMARK    5  A    between atoms: O_20  and  C_21
REMARK                            x       y       z     vdW  Elec       q    Type
REMARK                         _______ _______ _______ _____ _____    ______ ____
ROOT
ATOM      1  C   LIG A   1      -6.390  -1.374 123.699  0.00  0.00    +0.041 C 
ATOM      2  C   LIG A   1      -5.800  -2.693 124.150  0.00  0.00    -0.023 C 
ATOM      3  C   LIG A   1      -6.735  -3.672 124.242  0.00  0.00    +0.006 C 
ATOM      4  C   LIG A   1      -8.115  -3.108 124.210  0.00  0.00    +0.115 C 
ATOM      5  C   LIG A   1      -7.770  -1.867 123.435  0.00  0.00    +0.091 C 
ATOM      6  C   LIG A   1      -8.953  -1.034 123.721  0.00  0.00    +0.260 C 
ATOM      7  O   LIG A   1      -9.960  -1.922 123.172  0.00  0.00    -0.348 OA
ATOM      8  C   LIG A   1      -9.440  -3.319 123.447  0.00  0.00    +0.202 C 
ATOM      9  O   LIG A   1      -8.668   0.217 123.127  0.00  0.00    -0.322 OA
ATOM     10  C   LIG A   1      -7.614   0.875 123.869  0.00  0.00    +0.264 C 
ATOM     11  C   LIG A   1      -6.427  -0.011 124.388  0.00  0.00    +0.161 C 
ENDROOT
BRANCH   4  12
ATOM     12  O   LIG A   1      -8.476  -2.935 125.584  0.00  0.00    -0.382 OA
ATOM     13  H   LIG A   1      -8.915  -3.746 125.916  0.00  0.00    +0.211 HD
ENDBRANCH   4  12
BRANCH  10  14
ATOM     14  O   LIG A   1      -7.072   1.845 122.982  0.00  0.00    -0.366 OA
ATOM     15  H   LIG A   1      -6.124   1.869 123.204  0.00  0.00    +0.212 HD
ENDBRANCH  10  14
BRANCH  11  16
ATOM     16  C   LIG A   1      -6.478  -0.092 125.893  0.00  0.00    +0.315 C 
ATOM     17  O   LIG A   1      -7.481  -0.343 126.544  0.00  0.00    -0.250 OA
BRANCH  16  18
ATOM     18  O   LIG A   1      -5.250   0.158 126.426  0.00  0.00    -0.468 OA
ATOM     19  C   LIG A   1      -4.849   1.529 126.369  0.00  0.00    +0.280 C 
ENDBRANCH  16  18
ENDBRANCH  11  16
TORSDOF 4
ENDMDL
MODEL 8
REMARK VINA RESULT:      -5.3      6.610      8.995
REMARK  Name = NuBBE_440
REMARK  5 active torsions:
REMARK  status: ('A' for Active; 'I' for Inactive)
REMARK    1  A    between atoms: C_5  and  O_6
REMARK    2  A    between atoms: C_14  and  O_16
REMARK    3  A    between atoms: C_17  and  C_19
REMARK    4  A    between atoms: C_19  and  O_20
REMARK    5  A    between atoms: O_20  and  C_21
REMARK                            x       y       z     vdW  Elec       q    Type
REMARK                         _______ _______ _______ _____ _____    ______ ____
ROOT
ATOM      1  C   LIG A   1      -9.161   0.275 125.408  0.00  0.00    +0.041 C 
ATOM      2  C   LIG A   1      -8.364  -0.062 126.650  0.00  0.00    -0.023 C 
ATOM      3  C   LIG A   1      -7.645   0.994 127.105  0.00  0.00    +0.006 C 
ATOM      4  C   LIG A   1      -7.567   2.077 126.083  0.00  0.00    +0.115 C 
ATOM      5  C   LIG A   1      -8.846   1.730 125.373  0.00  0.00    +0.091 C 
ATOM      6  C   LIG A   1      -8.649   2.446 124.099  0.00  0.00    +0.260 C 
ATOM      7  O   LIG A   1      -8.511   3.784 124.641  0.00  0.00    -0.348 OA
ATOM      8  C   LIG A   1      -7.819   3.596 125.976  0.00  0.00    +0.202 C 
ATOM      9  O   LIG A   1      -9.759   2.080 123.303  0.00  0.00    -0.322 OA
ATOM     10  C   LIG A   1      -9.643   0.689 122.922  0.00  0.00    +0.264 C 
ATOM     11  C   LIG A   1      -9.114  -0.319 124.001  0.00  0.00    +0.161 C 
ENDROOT
BRANCH   4  12
ATOM     12  O   LIG A   1      -6.346   1.831 125.378  0.00  0.00    -0.382 OA
ATOM     13  H   LIG A   1      -6.541   1.421 124.510  0.00  0.00    +0.211 HD
ENDBRANCH   4  12
BRANCH  10  14
ATOM     14  O   LIG A   1     -10.957   0.283 122.559  0.00  0.00    -0.366 OA
ATOM     15  H   LIG A   1     -11.372   1.096 122.218  0.00  0.00    +0.212 HD
ENDBRANCH  10  14
BRANCH  11  16
ATOM     16  C   LIG A   1      -7.751  -0.821 123.599  0.00  0.00    +0.315 C 
ATOM     17  O   LIG A   1      -6.864  -0.126 123.126  0.00  0.00    -0.250 OA
BRANCH  16  18
ATOM     18  O   LIG A   1      -7.646  -2.158 123.833  0.00  0.00    -0.468 OA
ATOM     19  C   LIG A   1      -8.794  -2.918 123.445  0.00  0.00    +0.280 C 
ENDBRANCH  16  18
ENDBRANCH  11  16
TORSDOF 4
ENDMDL
MODEL 9
REMARK VINA RESULT:      -5.3      7.212      9.942
REMARK  Name = NuBBE_440
REMARK  5 active torsions:
REMARK  status: ('A' for Active; 'I' for Inactive)
REMARK    1  A    between atoms: C_5  and  O_6
REMARK    2  A    between atoms: C_14  and  O_16
REMARK    3  A    between atoms: C_17  and  C_19
REMARK    4  A    between atoms: C_19  and  O_20
REMARK    5  A    between atoms: O_20  and  C_21
REMARK                            x       y       z     vdW  Elec       q    Type
REMARK                         _______ _______ _______ _____ _____    ______ ____
ROOT
ATOM      1  C   LIG A   1      -7.385  -0.918 125.861  0.00  0.00    +0.041 C 
ATOM      2  C   LIG A   1      -7.600  -1.744 127.112  0.00  0.00    -0.023 C 
ATOM      3  C   LIG A   1      -8.188  -2.937 126.849  0.00  0.00    +0.006 C 
ATOM      4  C   LIG A   1      -8.766  -2.965 125.474  0.00  0.00    +0.115 C 
ATOM      5  C   LIG A   1      -7.834  -1.946 124.881  0.00  0.00    +0.091 C 
ATOM      6  C   LIG A   1      -8.581  -1.575 123.664  0.00  0.00    +0.260 C 
ATOM      7  O   LIG A   1      -8.632  -2.889 123.053  0.00  0.00    -0.348 OA
ATOM      8  C   LIG A   1      -8.729  -3.857 124.215  0.00  0.00    +0.202 C 
ATOM      9  O   LIG A   1      -7.836  -0.520 123.089  0.00  0.00    -0.322 OA
ATOM     10  C   LIG A   1      -7.950   0.660 123.919  0.00  0.00    +0.264 C 
ATOM     11  C   LIG A   1      -7.914   0.462 125.475  0.00  0.00    +0.161 C 
ENDROOT
BRANCH   4  12
ATOM     12  O   LIG A   1     -10.133  -2.576 125.640  0.00  0.00    -0.382 OA
ATOM     13  H   LIG A   1     -10.219  -1.607 125.524  0.00  0.00    +0.211 HD
ENDBRANCH   4  12
BRANCH  10  14
ATOM     14  O   LIG A   1      -6.846   1.483 123.563  0.00  0.00    -0.366 OA
ATOM     15  H   LIG A   1      -6.680   1.268 122.627  0.00  0.00    +0.212 HD
ENDBRANCH  10  14
BRANCH  11  16
ATOM     16  C   LIG A   1      -9.269   0.779 126.056  0.00  0.00    +0.315 C 
ATOM     17  O   LIG A   1     -10.334   0.422 125.574  0.00  0.00    -0.250 OA
BRANCH  16  18
ATOM     18  O   LIG A   1      -9.140   1.520 127.190  0.00  0.00    -0.468 OA
ATOM     19  C   LIG A   1      -8.022   2.412 127.191  0.00  0.00    +0.280 C 
ENDBRANCH  16  18
ENDBRANCH  11  16
TORSDOF 4
ENDMDL
