MODEL 1
REMARK VINA RESULT:      -7.5      0.000      0.000
REMARK  Name = NuBBE_120
REMARK  5 active torsions:
REMARK  status: ('A' for Active; 'I' for Inactive)
REMARK    1  A    between atoms: O_1  and  C_2
REMARK    2  A    between atoms: C_5  and  C_8
REMARK    3  A    between atoms: C_9  and  O_10
REMARK    4  A    between atoms: C_13  and  O_14
REMARK    5  A    between atoms: C_16  and  O_17
REMARK                            x       y       z     vdW  Elec       q    Type
REMARK                         _______ _______ _______ _____ _____    ______ ____
ROOT
ATOM      1  C   LIG A   1      -7.108   2.522 122.862  0.00  0.00    +0.181 A 
ATOM      2  C   LIG A   1      -7.757   2.968 123.954  0.00  0.00    +0.208 A 
ATOM      3  C   LIG A   1      -8.113   1.993 125.011  0.00  0.00    +0.238 A 
ATOM      4  C   LIG A   1      -7.734   0.596 124.799  0.00  0.00    +0.109 A 
ATOM      5  C   LIG A   1      -8.024  -0.396 125.741  0.00  0.00    +0.135 A 
ATOM      6  C   LIG A   1      -7.650  -1.718 125.506  0.00  0.00    +0.091 A 
ATOM      7  C   LIG A   1      -6.986  -2.035 124.324  0.00  0.00    +0.124 A 
ATOM      8  C   LIG A   1      -6.693  -1.053 123.380  0.00  0.00    +0.092 A 
ATOM      9  C   LIG A   1      -7.071   0.267 123.621  0.00  0.00    +0.146 A 
ATOM     10  O   LIG A   1      -6.759   1.191 122.657  0.00  0.00    -0.451 OA
ATOM     11  O   LIG A   1      -8.708   2.358 126.023  0.00  0.00    -0.283 OA
ENDROOT
BRANCH   1  15
ATOM     12  C   LIG A   1      -5.983   5.004 119.559  0.00  0.00    +0.117 A 
ATOM     13  C   LIG A   1      -7.242   4.414 119.585  0.00  0.00    +0.046 A 
ATOM     14  C   LIG A   1      -7.601   3.612 120.672  0.00  0.00    +0.015 A 
ATOM     15  C   LIG A   1      -6.712   3.398 121.739  0.00  0.00    +0.021 A 
ATOM     16  C   LIG A   1      -5.444   3.998 121.680  0.00  0.00    +0.015 A 
ATOM     17  C   LIG A   1      -5.083   4.801 120.595  0.00  0.00    +0.046 A 
BRANCH  12  18
ATOM     18  O   LIG A   1      -5.589   5.792 118.520  0.00  0.00    -0.507 OA
ATOM     19  H   LIG A   1      -4.659   6.042 118.655  0.00  0.00    +0.292 HD
ENDBRANCH  12  18
ENDBRANCH   1  15
BRANCH   2  20
ATOM     20  O   LIG A   1      -8.135   4.282 124.156  0.00  0.00    -0.501 OA
ATOM     21  H   LIG A   1      -8.411   4.332 125.095  0.00  0.00    +0.292 HD
ENDBRANCH   2  20
BRANCH   5  22
ATOM     22  O   LIG A   1      -8.674  -0.142 126.919  0.00  0.00    -0.506 OA
ATOM     23  H   LIG A   1      -8.516   0.798 127.165  0.00  0.00    +0.292 HD
ENDBRANCH   5  22
BRANCH   7  24
ATOM     24  O   LIG A   1      -6.600  -3.313 124.048  0.00  0.00    -0.506 OA
ATOM     25  H   LIG A   1      -6.352  -3.753 124.879  0.00  0.00    +0.292 HD
ENDBRANCH   7  24
TORSDOF 5
ENDMDL
MODEL 2
REMARK VINA RESULT:      -7.4      9.092     10.595
REMARK  Name = NuBBE_120
REMARK  5 active torsions:
REMARK  status: ('A' for Active; 'I' for Inactive)
REMARK    1  A    between atoms: O_1  and  C_2
REMARK    2  A    between atoms: C_5  and  C_8
REMARK    3  A    between atoms: C_9  and  O_10
REMARK    4  A    between atoms: C_13  and  O_14
REMARK    5  A    between atoms: C_16  and  O_17
REMARK                            x       y       z     vdW  Elec       q    Type
REMARK                         _______ _______ _______ _____ _____    ______ ____
ROOT
ATOM      1  C   LIG A   1     -10.505   5.894 131.237  0.00  0.00    +0.181 A 
ATOM      2  C   LIG A   1     -10.592   4.599 130.879  0.00  0.00    +0.208 A 
ATOM      3  C   LIG A   1      -9.808   3.602 131.643  0.00  0.00    +0.238 A 
ATOM      4  C   LIG A   1      -8.981   4.090 132.747  0.00  0.00    +0.109 A 
ATOM      5  C   LIG A   1      -8.209   3.224 133.527  0.00  0.00    +0.135 A 
ATOM      6  C   LIG A   1      -7.432   3.725 134.571  0.00  0.00    +0.091 A 
ATOM      7  C   LIG A   1      -7.436   5.095 134.822  0.00  0.00    +0.124 A 
ATOM      8  C   LIG A   1      -8.202   5.965 134.050  0.00  0.00    +0.092 A 
ATOM      9  C   LIG A   1      -8.977   5.457 133.008  0.00  0.00    +0.146 A 
ATOM     10  O   LIG A   1      -9.710   6.359 132.279  0.00  0.00    -0.451 OA
ATOM     11  O   LIG A   1      -9.856   2.409 131.347  0.00  0.00    -0.283 OA
ENDROOT
BRANCH   1  15
ATOM     12  C   LIG A   1     -12.542   9.078 129.225  0.00  0.00    +0.117 A 
ATOM     13  C   LIG A   1     -11.328   8.614 128.734  0.00  0.00    +0.046 A 
ATOM     14  C   LIG A   1     -10.675   7.569 129.395  0.00  0.00    +0.015 A 
ATOM     15  C   LIG A   1     -11.231   6.979 130.542  0.00  0.00    +0.021 A 
ATOM     16  C   LIG A   1     -12.454   7.475 131.022  0.00  0.00    +0.015 A 
ATOM     17  C   LIG A   1     -13.108   8.519 130.362  0.00  0.00    +0.046 A 
BRANCH  12  18
ATOM     18  O   LIG A   1     -13.214  10.095 128.615  0.00  0.00    -0.507 OA
ATOM     19  H   LIG A   1     -13.649   9.746 127.819  0.00  0.00    +0.292 HD
ENDBRANCH  12  18
ENDBRANCH   1  15
BRANCH   2  20
ATOM     20  O   LIG A   1     -11.355   4.129 129.827  0.00  0.00    -0.501 OA
ATOM     21  H   LIG A   1     -11.308   3.152 129.887  0.00  0.00    +0.292 HD
ENDBRANCH   2  20
BRANCH   5  22
ATOM     22  O   LIG A   1      -8.167   1.872 133.324  0.00  0.00    -0.506 OA
ATOM     23  H   LIG A   1      -7.497   1.682 132.628  0.00  0.00    +0.292 HD
ENDBRANCH   5  22
BRANCH   7  24
ATOM     24  O   LIG A   1      -6.692   5.632 135.830  0.00  0.00    -0.506 OA
ATOM     25  H   LIG A   1      -6.974   6.552 135.974  0.00  0.00    +0.292 HD
ENDBRANCH   7  24
TORSDOF 5
ENDMDL
MODEL 3
REMARK VINA RESULT:      -7.2      7.291      9.141
REMARK  Name = NuBBE_120
REMARK  5 active torsions:
REMARK  status: ('A' for Active; 'I' for Inactive)
REMARK    1  A    between atoms: O_1  and  C_2
REMARK    2  A    between atoms: C_5  and  C_8
REMARK    3  A    between atoms: C_9  and  O_10
REMARK    4  A    between atoms: C_13  and  O_14
REMARK    5  A    between atoms: C_16  and  O_17
REMARK                            x       y       z     vdW  Elec       q    Type
REMARK                         _______ _______ _______ _____ _____    ______ ____
ROOT
ATOM      1  C   LIG A   1     -10.222   5.445 130.869  0.00  0.00    +0.181 A 
ATOM      2  C   LIG A   1      -9.929   5.378 132.181  0.00  0.00    +0.208 A 
ATOM      3  C   LIG A   1      -9.218   4.180 132.685  0.00  0.00    +0.238 A 
ATOM      4  C   LIG A   1      -8.876   3.138 131.718  0.00  0.00    +0.109 A 
ATOM      5  C   LIG A   1      -8.202   1.973 132.098  0.00  0.00    +0.135 A 
ATOM      6  C   LIG A   1      -7.893   1.000 131.149  0.00  0.00    +0.091 A 
ATOM      7  C   LIG A   1      -8.264   1.204 129.823  0.00  0.00    +0.124 A 
ATOM      8  C   LIG A   1      -8.935   2.361 129.435  0.00  0.00    +0.092 A 
ATOM      9  C   LIG A   1      -9.242   3.331 130.389  0.00  0.00    +0.146 A 
ATOM     10  O   LIG A   1      -9.906   4.448 129.952  0.00  0.00    -0.451 OA
ATOM     11  O   LIG A   1      -8.935   4.077 133.878  0.00  0.00    -0.283 OA
ENDROOT
BRANCH   1  15
ATOM     12  C   LIG A   1     -12.231   8.790 129.104  0.00  0.00    +0.117 A 
ATOM     13  C   LIG A   1     -10.930   8.483 128.723  0.00  0.00    +0.046 A 
ATOM     14  C   LIG A   1     -10.286   7.384 129.300  0.00  0.00    +0.015 A 
ATOM     15  C   LIG A   1     -10.937   6.584 130.254  0.00  0.00    +0.021 A 
ATOM     16  C   LIG A   1     -12.246   6.923 130.628  0.00  0.00    +0.015 A 
ATOM     17  C   LIG A   1     -12.892   8.020 130.052  0.00  0.00    +0.046 A 
BRANCH  12  18
ATOM     18  O   LIG A   1     -12.897   9.851 128.570  0.00  0.00    -0.507 OA
ATOM     19  H   LIG A   1     -13.848   9.648 128.559  0.00  0.00    +0.292 HD
ENDBRANCH  12  18
ENDBRANCH   1  15
BRANCH   2  20
ATOM     20  O   LIG A   1     -10.264   6.348 133.107  0.00  0.00    -0.501 OA
ATOM     21  H   LIG A   1     -11.102   6.740 132.782  0.00  0.00    +0.292 HD
ENDBRANCH   2  20
BRANCH   5  22
ATOM     22  O   LIG A   1      -7.814   1.721 133.386  0.00  0.00    -0.506 OA
ATOM     23  H   LIG A   1      -7.314   0.874 133.401  0.00  0.00    +0.292 HD
ENDBRANCH   5  22
BRANCH   7  24
ATOM     24  O   LIG A   1      -7.985   0.282 128.859  0.00  0.00    -0.506 OA
ATOM     25  H   LIG A   1      -7.076  -0.042 128.986  0.00  0.00    +0.292 HD
ENDBRANCH   7  24
TORSDOF 5
ENDMDL
MODEL 4
REMARK VINA RESULT:      -7.2      8.278     10.552
REMARK  Name = NuBBE_120
REMARK  5 active torsions:
REMARK  status: ('A' for Active; 'I' for Inactive)
REMARK    1  A    between atoms: O_1  and  C_2
REMARK    2  A    between atoms: C_5  and  C_8
REMARK    3  A    between atoms: C_9  and  O_10
REMARK    4  A    between atoms: C_13  and  O_14
REMARK    5  A    between atoms: C_16  and  O_17
REMARK                            x       y       z     vdW  Elec       q    Type
REMARK                         _______ _______ _______ _____ _____    ______ ____
ROOT
ATOM      1  C   LIG A   1      -9.141   6.512 130.962  0.00  0.00    +0.181 A 
ATOM      2  C   LIG A   1     -10.301   6.457 131.645  0.00  0.00    +0.208 A 
ATOM      3  C   LIG A   1     -11.566   6.671 130.906  0.00  0.00    +0.238 A 
ATOM      4  C   LIG A   1     -11.477   6.931 129.469  0.00  0.00    +0.109 A 
ATOM      5  C   LIG A   1     -12.617   7.143 128.687  0.00  0.00    +0.135 A 
ATOM      6  C   LIG A   1     -12.494   7.389 127.321  0.00  0.00    +0.091 A 
ATOM      7  C   LIG A   1     -11.224   7.423 126.749  0.00  0.00    +0.124 A 
ATOM      8  C   LIG A   1     -10.084   7.213 127.521  0.00  0.00    +0.092 A 
ATOM      9  C   LIG A   1     -10.214   6.967 128.887  0.00  0.00    +0.146 A 
ATOM     10  O   LIG A   1      -9.058   6.771 129.598  0.00  0.00    -0.451 OA
ATOM     11  O   LIG A   1     -12.647   6.633 131.493  0.00  0.00    -0.283 OA
ENDROOT
BRANCH   1  15
ATOM     12  C   LIG A   1      -5.338   5.994 132.860  0.00  0.00    +0.117 A 
ATOM     13  C   LIG A   1      -6.477   5.431 133.425  0.00  0.00    +0.046 A 
ATOM     14  C   LIG A   1      -7.712   5.601 132.792  0.00  0.00    +0.015 A 
ATOM     15  C   LIG A   1      -7.818   6.325 131.593  0.00  0.00    +0.021 A 
ATOM     16  C   LIG A   1      -6.653   6.891 131.051  0.00  0.00    +0.015 A 
ATOM     17  C   LIG A   1      -5.417   6.723 131.680  0.00  0.00    +0.046 A 
BRANCH  12  18
ATOM     18  O   LIG A   1      -4.113   5.857 133.441  0.00  0.00    -0.507 OA
ATOM     19  H   LIG A   1      -3.434   5.904 132.747  0.00  0.00    +0.292 HD
ENDBRANCH  12  18
ENDBRANCH   1  15
BRANCH   2  20
ATOM     20  O   LIG A   1     -10.395   6.230 133.005  0.00  0.00    -0.501 OA
ATOM     21  H   LIG A   1     -11.356   6.167 133.192  0.00  0.00    +0.292 HD
ENDBRANCH   2  20
BRANCH   5  22
ATOM     22  O   LIG A   1     -13.887   7.122 129.196  0.00  0.00    -0.506 OA
ATOM     23  H   LIG A   1     -13.840   7.318 130.159  0.00  0.00    +0.292 HD
ENDBRANCH   5  22
BRANCH   7  24
ATOM     24  O   LIG A   1     -11.053   7.660 125.418  0.00  0.00    -0.506 OA
ATOM     25  H   LIG A   1     -10.291   7.145 125.101  0.00  0.00    +0.292 HD
ENDBRANCH   7  24
TORSDOF 5
ENDMDL
MODEL 5
REMARK VINA RESULT:      -7.0      3.613      8.061
REMARK  Name = NuBBE_120
REMARK  5 active torsions:
REMARK  status: ('A' for Active; 'I' for Inactive)
REMARK    1  A    between atoms: O_1  and  C_2
REMARK    2  A    between atoms: C_5  and  C_8
REMARK    3  A    between atoms: C_9  and  O_10
REMARK    4  A    between atoms: C_13  and  O_14
REMARK    5  A    between atoms: C_16  and  O_17
REMARK                            x       y       z     vdW  Elec       q    Type
REMARK                         _______ _______ _______ _____ _____    ______ ____
ROOT
ATOM      1  C   LIG A   1      -7.758  -1.776 126.636  0.00  0.00    +0.181 A 
ATOM      2  C   LIG A   1      -8.333  -2.500 125.657  0.00  0.00    +0.208 A 
ATOM      3  C   LIG A   1      -9.016  -1.783 124.556  0.00  0.00    +0.238 A 
ATOM      4  C   LIG A   1      -9.022  -0.321 124.601  0.00  0.00    +0.109 A 
ATOM      5  C   LIG A   1      -9.639   0.443 123.605  0.00  0.00    +0.135 A 
ATOM      6  C   LIG A   1      -9.627   1.835 123.681  0.00  0.00    +0.091 A 
ATOM      7  C   LIG A   1      -8.996   2.450 124.759  0.00  0.00    +0.124 A 
ATOM      8  C   LIG A   1      -8.380   1.697 125.755  0.00  0.00    +0.092 A 
ATOM      9  C   LIG A   1      -8.395   0.305 125.673  0.00  0.00    +0.146 A 
ATOM     10  O   LIG A   1      -7.776  -0.386 126.683  0.00  0.00    -0.451 OA
ATOM     11  O   LIG A   1      -9.556  -2.407 123.644  0.00  0.00    -0.283 OA
ENDROOT
BRANCH   1  15
ATOM     12  C   LIG A   1      -5.686  -3.566 129.928  0.00  0.00    +0.117 A 
ATOM     13  C   LIG A   1      -4.968  -2.930 128.921  0.00  0.00    +0.046 A 
ATOM     14  C   LIG A   1      -5.656  -2.343 127.854  0.00  0.00    +0.015 A 
ATOM     15  C   LIG A   1      -7.059  -2.381 127.790  0.00  0.00    +0.021 A 
ATOM     16  C   LIG A   1      -7.757  -3.038 128.815  0.00  0.00    +0.015 A 
ATOM     17  C   LIG A   1      -7.072  -3.625 129.882  0.00  0.00    +0.046 A 
BRANCH  12  18
ATOM     18  O   LIG A   1      -5.059  -4.153 130.985  0.00  0.00    -0.507 OA
ATOM     19  H   LIG A   1      -5.673  -4.173 131.738  0.00  0.00    +0.292 HD
ENDBRANCH  12  18
ENDBRANCH   1  15
BRANCH   2  20
ATOM     20  O   LIG A   1      -8.348  -3.882 125.614  0.00  0.00    -0.501 OA
ATOM     21  H   LIG A   1      -8.867  -4.161 126.398  0.00  0.00    +0.292 HD
ENDBRANCH   2  20
BRANCH   5  22
ATOM     22  O   LIG A   1     -10.273  -0.108 122.525  0.00  0.00    -0.506 OA
ATOM     23  H   LIG A   1     -10.193   0.513 121.766  0.00  0.00    +0.292 HD
ENDBRANCH   5  22
BRANCH   7  24
ATOM     24  O   LIG A   1      -8.958   3.808 124.878  0.00  0.00    -0.506 OA
ATOM     25  H   LIG A   1      -9.664   4.191 124.330  0.00  0.00    +0.292 HD
ENDBRANCH   7  24
TORSDOF 5
ENDMDL
MODEL 6
REMARK VINA RESULT:      -7.0      9.712     10.522
REMARK  Name = NuBBE_120
REMARK  5 active torsions:
REMARK  status: ('A' for Active; 'I' for Inactive)
REMARK    1  A    between atoms: O_1  and  C_2
REMARK    2  A    between atoms: C_5  and  C_8
REMARK    3  A    between atoms: C_9  and  O_10
REMARK    4  A    between atoms: C_13  and  O_14
REMARK    5  A    between atoms: C_16  and  O_17
REMARK                            x       y       z     vdW  Elec       q    Type
REMARK                         _______ _______ _______ _____ _____    ______ ____
ROOT
ATOM      1  C   LIG A   1      -9.306   6.754 131.128  0.00  0.00    +0.181 A 
ATOM      2  C   LIG A   1      -9.428   6.032 132.258  0.00  0.00    +0.208 A 
ATOM      3  C   LIG A   1      -8.198   5.656 132.993  0.00  0.00    +0.238 A 
ATOM      4  C   LIG A   1      -6.917   6.098 132.440  0.00  0.00    +0.109 A 
ATOM      5  C   LIG A   1      -5.702   5.795 133.064  0.00  0.00    +0.135 A 
ATOM      6  C   LIG A   1      -4.501   6.230 132.508  0.00  0.00    +0.091 A 
ATOM      7  C   LIG A   1      -4.528   6.968 131.327  0.00  0.00    +0.124 A 
ATOM      8  C   LIG A   1      -5.732   7.274 130.699  0.00  0.00    +0.092 A 
ATOM      9  C   LIG A   1      -6.931   6.835 131.260  0.00  0.00    +0.146 A 
ATOM     10  O   LIG A   1      -8.087   7.163 130.598  0.00  0.00    -0.451 OA
ATOM     11  O   LIG A   1      -8.264   4.994 134.027  0.00  0.00    -0.283 OA
ENDROOT
BRANCH   1  15
ATOM     12  C   LIG A   1     -12.617   8.052 128.744  0.00  0.00    +0.117 A 
ATOM     13  C   LIG A   1     -11.317   8.304 128.320  0.00  0.00    +0.046 A 
ATOM     14  C   LIG A   1     -10.244   7.869 129.104  0.00  0.00    +0.015 A 
ATOM     15  C   LIG A   1     -10.460   7.177 130.307  0.00  0.00    +0.021 A 
ATOM     16  C   LIG A   1     -11.782   6.945 130.715  0.00  0.00    +0.015 A 
ATOM     17  C   LIG A   1     -12.857   7.378 129.933  0.00  0.00    +0.046 A 
BRANCH  12  18
ATOM     18  O   LIG A   1     -13.694   8.458 128.014  0.00  0.00    -0.507 OA
ATOM     19  H   LIG A   1     -14.331   8.884 128.613  0.00  0.00    +0.292 HD
ENDBRANCH  12  18
ENDBRANCH   1  15
BRANCH   2  20
ATOM     20  O   LIG A   1     -10.631   5.595 132.779  0.00  0.00    -0.501 OA
ATOM     21  H   LIG A   1     -10.502   4.641 132.968  0.00  0.00    +0.292 HD
ENDBRANCH   2  20
BRANCH   5  22
ATOM     22  O   LIG A   1      -5.617   5.074 134.224  0.00  0.00    -0.506 OA
ATOM     23  H   LIG A   1      -5.920   5.643 134.967  0.00  0.00    +0.292 HD
ENDBRANCH   5  22
BRANCH   7  24
ATOM     24  O   LIG A   1      -3.379   7.415 130.744  0.00  0.00    -0.506 OA
ATOM     25  H   LIG A   1      -3.231   6.921 129.920  0.00  0.00    +0.292 HD
ENDBRANCH   7  24
TORSDOF 5
ENDMDL
MODEL 7
REMARK VINA RESULT:      -6.8      5.127      8.459
REMARK  Name = NuBBE_120
REMARK  5 active torsions:
REMARK  status: ('A' for Active; 'I' for Inactive)
REMARK    1  A    between atoms: O_1  and  C_2
REMARK    2  A    between atoms: C_5  and  C_8
REMARK    3  A    between atoms: C_9  and  O_10
REMARK    4  A    between atoms: C_13  and  O_14
REMARK    5  A    between atoms: C_16  and  O_17
REMARK                            x       y       z     vdW  Elec       q    Type
REMARK                         _______ _______ _______ _____ _____    ______ ____
ROOT
ATOM      1  C   LIG A   1      -7.132  -1.816 128.083  0.00  0.00    +0.181 A 
ATOM      2  C   LIG A   1      -6.040  -1.313 127.478  0.00  0.00    +0.208 A 
ATOM      3  C   LIG A   1      -5.967  -1.361 125.999  0.00  0.00    +0.238 A 
ATOM      4  C   LIG A   1      -7.095  -1.956 125.284  0.00  0.00    +0.109 A 
ATOM      5  C   LIG A   1      -7.119  -2.044 123.888  0.00  0.00    +0.135 A 
ATOM      6  C   LIG A   1      -8.210  -2.619 123.240  0.00  0.00    +0.091 A 
ATOM      7  C   LIG A   1      -9.272  -3.105 124.000  0.00  0.00    +0.124 A 
ATOM      8  C   LIG A   1      -9.257  -3.022 125.390  0.00  0.00    +0.092 A 
ATOM      9  C   LIG A   1      -8.162  -2.446 126.032  0.00  0.00    +0.146 A 
ATOM     10  O   LIG A   1      -8.199  -2.393 127.402  0.00  0.00    -0.451 OA
ATOM     11  O   LIG A   1      -4.985  -0.915 125.407  0.00  0.00    -0.283 OA
ENDROOT
BRANCH   1  15
ATOM     12  C   LIG A   1      -7.690  -1.936 132.327  0.00  0.00    +0.117 A 
ATOM     13  C   LIG A   1      -7.184  -3.048 131.663  0.00  0.00    +0.046 A 
ATOM     14  C   LIG A   1      -6.999  -2.995 130.278  0.00  0.00    +0.015 A 
ATOM     15  C   LIG A   1      -7.311  -1.834 129.551  0.00  0.00    +0.021 A 
ATOM     16  C   LIG A   1      -7.831  -0.731 130.246  0.00  0.00    +0.015 A 
ATOM     17  C   LIG A   1      -8.015  -0.781 131.630  0.00  0.00    +0.046 A 
BRANCH  12  18
ATOM     18  O   LIG A   1      -7.888  -1.943 133.675  0.00  0.00    -0.507 OA
ATOM     19  H   LIG A   1      -7.043  -2.141 134.112  0.00  0.00    +0.292 HD
ENDBRANCH  12  18
ENDBRANCH   1  15
BRANCH   2  20
ATOM     20  O   LIG A   1      -4.961  -0.765 128.144  0.00  0.00    -0.501 OA
ATOM     21  H   LIG A   1      -4.169  -1.065 127.651  0.00  0.00    +0.292 HD
ENDBRANCH   2  20
BRANCH   5  22
ATOM     22  O   LIG A   1      -6.104  -1.584 123.094  0.00  0.00    -0.506 OA
ATOM     23  H   LIG A   1      -6.419  -0.781 122.619  0.00  0.00    +0.292 HD
ENDBRANCH   5  22
BRANCH   7  24
ATOM     24  O   LIG A   1     -10.361  -3.677 123.412  0.00  0.00    -0.506 OA
ATOM     25  H   LIG A   1     -11.165  -3.338 123.841  0.00  0.00    +0.292 HD
ENDBRANCH   7  24
TORSDOF 5
ENDMDL
MODEL 8
REMARK VINA RESULT:      -6.8      9.219     10.286
REMARK  Name = NuBBE_120
REMARK  5 active torsions:
REMARK  status: ('A' for Active; 'I' for Inactive)
REMARK    1  A    between atoms: O_1  and  C_2
REMARK    2  A    between atoms: C_5  and  C_8
REMARK    3  A    between atoms: C_9  and  O_10
REMARK    4  A    between atoms: C_13  and  O_14
REMARK    5  A    between atoms: C_16  and  O_17
REMARK                            x       y       z     vdW  Elec       q    Type
REMARK                         _______ _______ _______ _____ _____    ______ ____
ROOT
ATOM      1  C   LIG A   1      -7.251   6.401 131.037  0.00  0.00    +0.181 A 
ATOM      2  C   LIG A   1      -7.829   5.739 132.058  0.00  0.00    +0.208 A 
ATOM      3  C   LIG A   1      -9.302   5.803 132.198  0.00  0.00    +0.238 A 
ATOM      4  C   LIG A   1     -10.043   6.588 131.211  0.00  0.00    +0.109 A 
ATOM      5  C   LIG A   1     -11.436   6.704 131.259  0.00  0.00    +0.135 A 
ATOM      6  C   LIG A   1     -12.109   7.462 130.302  0.00  0.00    +0.091 A 
ATOM      7  C   LIG A   1     -11.377   8.099 129.303  0.00  0.00    +0.124 A 
ATOM      8  C   LIG A   1      -9.990   7.988 129.248  0.00  0.00    +0.092 A 
ATOM      9  C   LIG A   1      -9.323   7.229 130.208  0.00  0.00    +0.146 A 
ATOM     10  O   LIG A   1      -7.957   7.157 130.107  0.00  0.00    -0.451 OA
ATOM     11  O   LIG A   1      -9.868   5.215 133.118  0.00  0.00    -0.283 OA
ENDROOT
BRANCH   1  15
ATOM     12  C   LIG A   1      -3.015   6.400 130.418  0.00  0.00    +0.117 A 
ATOM     13  C   LIG A   1      -3.709   5.196 130.463  0.00  0.00    +0.046 A 
ATOM     14  C   LIG A   1      -5.093   5.209 130.658  0.00  0.00    +0.015 A 
ATOM     15  C   LIG A   1      -5.792   6.419 130.804  0.00  0.00    +0.021 A 
ATOM     16  C   LIG A   1      -5.064   7.619 130.765  0.00  0.00    +0.015 A 
ATOM     17  C   LIG A   1      -3.681   7.608 130.569  0.00  0.00    +0.046 A 
BRANCH  12  18
ATOM     18  O   LIG A   1      -1.665   6.436 130.231  0.00  0.00    -0.507 OA
ATOM     19  H   LIG A   1      -1.275   7.024 130.900  0.00  0.00    +0.292 HD
ENDBRANCH  12  18
ENDBRANCH   1  15
BRANCH   2  20
ATOM     20  O   LIG A   1      -7.137   5.009 133.006  0.00  0.00    -0.501 OA
ATOM     21  H   LIG A   1      -7.824   4.576 133.554  0.00  0.00    +0.292 HD
ENDBRANCH   2  20
BRANCH   5  22
ATOM     22  O   LIG A   1     -12.204   6.101 132.217  0.00  0.00    -0.506 OA
ATOM     23  H   LIG A   1     -12.426   6.769 132.905  0.00  0.00    +0.292 HD
ENDBRANCH   5  22
BRANCH   7  24
ATOM     24  O   LIG A   1     -11.991   8.852 128.346  0.00  0.00    -0.506 OA
ATOM     25  H   LIG A   1     -11.367   9.528 128.029  0.00  0.00    +0.292 HD
ENDBRANCH   7  24
TORSDOF 5
ENDMDL
MODEL 9
REMARK VINA RESULT:      -6.7      7.425     10.315
REMARK  Name = NuBBE_120
REMARK  5 active torsions:
REMARK  status: ('A' for Active; 'I' for Inactive)
REMARK    1  A    between atoms: O_1  and  C_2
REMARK    2  A    between atoms: C_5  and  C_8
REMARK    3  A    between atoms: C_9  and  O_10
REMARK    4  A    between atoms: C_13  and  O_14
REMARK    5  A    between atoms: C_16  and  O_17
REMARK                            x       y       z     vdW  Elec       q    Type
REMARK                         _______ _______ _______ _____ _____    ______ ____
ROOT
ATOM      1  C   LIG A   1      -9.678   4.896 130.666  0.00  0.00    +0.181 A 
ATOM      2  C   LIG A   1     -10.416   5.538 131.592  0.00  0.00    +0.208 A 
ATOM      3  C   LIG A   1     -11.212   6.713 131.170  0.00  0.00    +0.238 A 
ATOM      4  C   LIG A   1     -11.147   7.106 129.762  0.00  0.00    +0.109 A 
ATOM      5  C   LIG A   1     -11.865   8.199 129.269  0.00  0.00    +0.135 A 
ATOM      6  C   LIG A   1     -11.778   8.546 127.921  0.00  0.00    +0.091 A 
ATOM      7  C   LIG A   1     -10.966   7.791 127.078  0.00  0.00    +0.124 A 
ATOM      8  C   LIG A   1     -10.247   6.701 127.561  0.00  0.00    +0.092 A 
ATOM      9  C   LIG A   1     -10.339   6.359 128.910  0.00  0.00    +0.146 A 
ATOM     10  O   LIG A   1      -9.607   5.279 129.331  0.00  0.00    -0.451 OA
ATOM     11  O   LIG A   1     -11.898   7.329 131.984  0.00  0.00    -0.283 OA
ENDROOT
BRANCH   1  15
ATOM     12  C   LIG A   1      -7.296   1.462 131.599  0.00  0.00    +0.117 A 
ATOM     13  C   LIG A   1      -8.614   1.300 131.187  0.00  0.00    +0.046 A 
ATOM     14  C   LIG A   1      -9.380   2.428 130.879  0.00  0.00    +0.015 A 
ATOM     15  C   LIG A   1      -8.836   3.720 130.972  0.00  0.00    +0.021 A 
ATOM     16  C   LIG A   1      -7.506   3.854 131.400  0.00  0.00    +0.015 A 
ATOM     17  C   LIG A   1      -6.738   2.728 131.708  0.00  0.00    +0.046 A 
BRANCH  12  18
ATOM     18  O   LIG A   1      -6.513   0.392 131.911  0.00  0.00    -0.507 OA
ATOM     19  H   LIG A   1      -6.873  -0.396 131.471  0.00  0.00    +0.292 HD
ENDBRANCH  12  18
ENDBRANCH   1  15
BRANCH   2  20
ATOM     20  O   LIG A   1     -10.471   5.186 132.927  0.00  0.00    -0.501 OA
ATOM     21  H   LIG A   1     -11.254   5.653 133.287  0.00  0.00    +0.292 HD
ENDBRANCH   2  20
BRANCH   5  22
ATOM     22  O   LIG A   1     -12.676   8.975 130.052  0.00  0.00    -0.506 OA
ATOM     23  H   LIG A   1     -12.592   8.672 130.984  0.00  0.00    +0.292 HD
ENDBRANCH   5  22
BRANCH   7  24
ATOM     24  O   LIG A   1     -10.847   8.092 125.754  0.00  0.00    -0.506 OA
ATOM     25  H   LIG A   1     -10.834   7.264 125.243  0.00  0.00    +0.292 HD
ENDBRANCH   7  24
TORSDOF 5
ENDMDL
