MODEL 1
REMARK VINA RESULT:      -7.5      0.000      0.000
REMARK  Name = NuBBE_1719
REMARK  10 active torsions:
REMARK  status: ('A' for Active; 'I' for Inactive)
REMARK    1  A    between atoms: C_1  and  C_2
REMARK    2  A    between atoms: C_7  and  C_9
REMARK    3  A    between atoms: C_9  and  O_11
REMARK    4  A    between atoms: O_11  and  C_12
REMARK    5  A    between atoms: C_19  and  O_35
REMARK    6  A    between atoms: C_21  and  O_31
REMARK    7  A    between atoms: C_25  and  C_26
REMARK    8  A    between atoms: C_25  and  C_27
REMARK    9  A    between atoms: O_31  and  C_32
REMARK   10  A    between atoms: C_32  and  C_34
REMARK                            x       y       z     vdW  Elec       q    Type
REMARK                         _______ _______ _______ _____ _____    ______ ____
ROOT
ATOM      1  C   LIG A   1      -8.627   5.937 134.075  0.00  0.00    +0.012 C 
ATOM      2  C   LIG A   1      -8.041   4.796 133.179  0.00  0.00    -0.022 C 
ATOM      3  C   LIG A   1      -6.588   5.179 132.681  0.00  0.00    +0.009 C 
ATOM      4  C   LIG A   1      -6.601   6.434 131.727  0.00  0.00    +0.043 C 
ATOM      5  C   LIG A   1      -5.171   6.906 131.231  0.00  0.00    +0.137 C 
ATOM      6  C   LIG A   1      -4.156   6.799 132.325  0.00  0.00    +0.008 A 
ATOM      7  C   LIG A   1      -4.373   6.059 133.459  0.00  0.00    +0.109 A 
ATOM      8  C   LIG A   1      -5.588   5.338 133.873  0.00  0.00    +0.079 C 
ATOM      9  O   LIG A   1      -3.275   6.028 134.249  0.00  0.00    -0.468 OA
ATOM     10  C   LIG A   1      -2.323   6.755 133.601  0.00  0.00    +0.195 A 
ATOM     11  C   LIG A   1      -2.821   7.264 132.421  0.00  0.00    +0.045 A 
ATOM     12  C   LIG A   1      -7.606   6.275 130.562  0.00  0.00    +0.160 C 
ATOM     13  C   LIG A   1      -9.002   5.736 130.943  0.00  0.00    +0.209 C 
ATOM     14  C   LIG A   1      -9.019   4.549 131.960  0.00  0.00    +0.044 C 
ATOM     15  C   LIG A   1      -9.002   3.091 131.312  0.00  0.00    -0.028 C 
ATOM     16  C   LIG A   1     -10.337   2.848 130.555  0.00  0.00    +0.011 C 
ATOM     17  C   LIG A   1      -7.885   2.805 130.294  0.00  0.00    +0.011 C 
ATOM     18  C   LIG A   1      -8.928   2.005 132.414  0.00  0.00    +0.007 C 
ATOM     19  C   LIG A   1      -7.797   2.241 133.397  0.00  0.00    +0.001 C 
ATOM     20  C   LIG A   1      -8.031   3.554 134.115  0.00  0.00    +0.007 C 
ENDROOT
BRANCH   5  21
ATOM     21  C   LIG A   1      -4.651   6.187 129.984  0.00  0.00    +0.315 C 
ATOM     22  O   LIG A   1      -4.347   4.997 129.957  0.00  0.00    -0.250 OA
BRANCH  21  23
ATOM     23  O   LIG A   1      -4.527   7.053 128.939  0.00  0.00    -0.468 OA
ATOM     24  C   LIG A   1      -3.193   7.282 128.499  0.00  0.00    +0.280 C 
ENDBRANCH  21  23
ENDBRANCH   5  21
BRANCH  12  25
ATOM     25  O   LIG A   1      -7.073   5.413 129.572  0.00  0.00    -0.388 OA
ATOM     26  H   LIG A   1      -7.057   5.906 128.728  0.00  0.00    +0.210 HD
ENDBRANCH  12  25
BRANCH  13  27
ATOM     27  O   LIG A   1      -9.792   6.814 131.508  0.00  0.00    -0.459 OA
BRANCH  27  28
ATOM     28  C   LIG A   1     -11.118   6.813 131.196  0.00  0.00    +0.304 C 
ATOM     29  O   LIG A   1     -12.009   6.393 131.907  0.00  0.00    -0.251 OA
ATOM     30  C   LIG A   1     -11.318   7.365 129.814  0.00  0.00    +0.136 C 
ENDBRANCH  27  28
ENDBRANCH  13  27
TORSDOF 5
ENDMDL
MODEL 2
REMARK VINA RESULT:      -7.3      5.481      8.276
REMARK  Name = NuBBE_1719
REMARK  10 active torsions:
REMARK  status: ('A' for Active; 'I' for Inactive)
REMARK    1  A    between atoms: C_1  and  C_2
REMARK    2  A    between atoms: C_7  and  C_9
REMARK    3  A    between atoms: C_9  and  O_11
REMARK    4  A    between atoms: O_11  and  C_12
REMARK    5  A    between atoms: C_19  and  O_35
REMARK    6  A    between atoms: C_21  and  O_31
REMARK    7  A    between atoms: C_25  and  C_26
REMARK    8  A    between atoms: C_25  and  C_27
REMARK    9  A    between atoms: O_31  and  C_32
REMARK   10  A    between atoms: C_32  and  C_34
REMARK                            x       y       z     vdW  Elec       q    Type
REMARK                         _______ _______ _______ _____ _____    ______ ____
ROOT
ATOM      1  C   LIG A   1      -7.968  -3.263 128.748  0.00  0.00    +0.012 C 
ATOM      2  C   LIG A   1      -6.791  -2.768 129.653  0.00  0.00    -0.022 C 
ATOM      3  C   LIG A   1      -7.044  -1.276 130.117  0.00  0.00    +0.009 C 
ATOM      4  C   LIG A   1      -7.031  -0.269 128.904  0.00  0.00    +0.043 C 
ATOM      5  C   LIG A   1      -7.330   1.240 129.291  0.00  0.00    +0.137 C 
ATOM      6  C   LIG A   1      -8.396   1.329 130.337  0.00  0.00    +0.008 A 
ATOM      7  C   LIG A   1      -8.777   0.250 131.092  0.00  0.00    +0.109 A 
ATOM      8  C   LIG A   1      -8.333  -1.151 130.993  0.00  0.00    +0.079 C 
ATOM      9  O   LIG A   1      -9.677   0.601 132.039  0.00  0.00    -0.468 OA
ATOM     10  C   LIG A   1      -9.869   1.941 131.899  0.00  0.00    +0.195 A 
ATOM     11  C   LIG A   1      -9.117   2.434 130.855  0.00  0.00    +0.045 A 
ATOM     12  C   LIG A   1      -5.760  -0.414 128.035  0.00  0.00    +0.160 C 
ATOM     13  C   LIG A   1      -5.345  -1.859 127.681  0.00  0.00    +0.209 C 
ATOM     14  C   LIG A   1      -5.435  -2.897 128.846  0.00  0.00    +0.044 C 
ATOM     15  C   LIG A   1      -4.104  -3.081 129.707  0.00  0.00    -0.028 C 
ATOM     16  C   LIG A   1      -3.004  -3.729 128.821  0.00  0.00    +0.011 C 
ATOM     17  C   LIG A   1      -3.478  -1.800 130.284  0.00  0.00    +0.011 C 
ATOM     18  C   LIG A   1      -4.345  -4.061 130.881  0.00  0.00    +0.007 C 
ATOM     19  C   LIG A   1      -5.557  -3.692 131.717  0.00  0.00    +0.001 C 
ATOM     20  C   LIG A   1      -6.796  -3.762 130.849  0.00  0.00    +0.007 C 
ENDROOT
BRANCH   5  21
ATOM     21  C   LIG A   1      -6.107   2.044 129.740  0.00  0.00    +0.315 C 
ATOM     22  O   LIG A   1      -5.536   1.877 130.814  0.00  0.00    -0.250 OA
BRANCH  21  23
ATOM     23  O   LIG A   1      -5.782   2.993 128.817  0.00  0.00    -0.468 OA
ATOM     24  C   LIG A   1      -6.086   4.331 129.191  0.00  0.00    +0.280 C 
ENDBRANCH  21  23
ENDBRANCH   5  21
BRANCH  12  25
ATOM     25  O   LIG A   1      -4.656   0.201 128.676  0.00  0.00    -0.388 OA
ATOM     26  H   LIG A   1      -4.373   0.953 128.119  0.00  0.00    +0.210 HD
ENDBRANCH  12  25
BRANCH  13  27
ATOM     27  O   LIG A   1      -6.173  -2.341 126.593  0.00  0.00    -0.459 OA
BRANCH  27  28
ATOM     28  C   LIG A   1      -5.770  -2.002 125.336  0.00  0.00    +0.304 C 
ATOM     29  O   LIG A   1      -5.842  -0.893 124.848  0.00  0.00    -0.251 OA
ATOM     30  C   LIG A   1      -5.262  -3.219 124.617  0.00  0.00    +0.136 C 
ENDBRANCH  27  28
ENDBRANCH  13  27
TORSDOF 5
ENDMDL
MODEL 3
REMARK VINA RESULT:      -7.0      3.064      5.730
REMARK  Name = NuBBE_1719
REMARK  10 active torsions:
REMARK  status: ('A' for Active; 'I' for Inactive)
REMARK    1  A    between atoms: C_1  and  C_2
REMARK    2  A    between atoms: C_7  and  C_9
REMARK    3  A    between atoms: C_9  and  O_11
REMARK    4  A    between atoms: O_11  and  C_12
REMARK    5  A    between atoms: C_19  and  O_35
REMARK    6  A    between atoms: C_21  and  O_31
REMARK    7  A    between atoms: C_25  and  C_26
REMARK    8  A    between atoms: C_25  and  C_27
REMARK    9  A    between atoms: O_31  and  C_32
REMARK   10  A    between atoms: C_32  and  C_34
REMARK                            x       y       z     vdW  Elec       q    Type
REMARK                         _______ _______ _______ _____ _____    ______ ____
ROOT
ATOM      1  C   LIG A   1      -8.643   2.566 129.694  0.00  0.00    +0.012 C 
ATOM      2  C   LIG A   1      -8.208   4.068 129.756  0.00  0.00    -0.022 C 
ATOM      3  C   LIG A   1      -7.213   4.402 128.572  0.00  0.00    +0.009 C 
ATOM      4  C   LIG A   1      -5.853   3.614 128.702  0.00  0.00    +0.043 C 
ATOM      5  C   LIG A   1      -4.826   3.861 127.520  0.00  0.00    +0.137 C 
ATOM      6  C   LIG A   1      -5.529   3.943 126.202  0.00  0.00    +0.008 A 
ATOM      7  C   LIG A   1      -6.882   4.140 126.101  0.00  0.00    +0.109 A 
ATOM      8  C   LIG A   1      -7.887   4.212 127.174  0.00  0.00    +0.079 C 
ATOM      9  O   LIG A   1      -7.267   4.284 124.812  0.00  0.00    -0.468 OA
ATOM     10  C   LIG A   1      -6.132   4.193 124.066  0.00  0.00    +0.195 A 
ATOM     11  C   LIG A   1      -5.037   3.966 124.872  0.00  0.00    +0.045 A 
ATOM     12  C   LIG A   1      -5.203   3.793 130.095  0.00  0.00    +0.160 C 
ATOM     13  C   LIG A   1      -6.151   3.654 131.306  0.00  0.00    +0.209 C 
ATOM     14  C   LIG A   1      -7.543   4.352 131.163  0.00  0.00    +0.044 C 
ATOM     15  C   LIG A   1      -7.617   5.852 131.702  0.00  0.00    -0.028 C 
ATOM     16  C   LIG A   1      -7.445   5.853 133.247  0.00  0.00    +0.011 C 
ATOM     17  C   LIG A   1      -6.559   6.828 131.161  0.00  0.00    +0.011 C 
ATOM     18  C   LIG A   1      -9.012   6.463 131.424  0.00  0.00    +0.007 C 
ATOM     19  C   LIG A   1      -9.439   6.321 129.974  0.00  0.00    +0.001 C 
ATOM     20  C   LIG A   1      -9.547   4.850 129.633  0.00  0.00    +0.007 C 
ENDROOT
BRANCH   5  21
ATOM     21  C   LIG A   1      -3.926   5.087 127.693  0.00  0.00    +0.315 C 
ATOM     22  O   LIG A   1      -4.323   6.245 127.600  0.00  0.00    -0.250 OA
BRANCH  21  23
ATOM     23  O   LIG A   1      -2.633   4.715 127.911  0.00  0.00    -0.468 OA
ATOM     24  C   LIG A   1      -2.262   3.463 127.348  0.00  0.00    +0.280 C 
ENDBRANCH  21  23
ENDBRANCH   5  21
BRANCH  12  25
ATOM     25  O   LIG A   1      -4.582   5.063 130.185  0.00  0.00    -0.388 OA
ATOM     26  H   LIG A   1      -5.075   5.675 129.603  0.00  0.00    +0.210 HD
ENDBRANCH  12  25
BRANCH  13  27
ATOM     27  O   LIG A   1      -6.386   2.247 131.570  0.00  0.00    -0.459 OA
BRANCH  27  28
ATOM     28  C   LIG A   1      -6.848   1.940 132.815  0.00  0.00    +0.304 C 
ATOM     29  O   LIG A   1      -7.887   1.361 133.057  0.00  0.00    -0.251 OA
ATOM     30  C   LIG A   1      -5.901   2.466 133.855  0.00  0.00    +0.136 C 
ENDBRANCH  27  28
ENDBRANCH  13  27
TORSDOF 5
ENDMDL
MODEL 4
REMARK VINA RESULT:      -6.9      2.420      4.736
REMARK  Name = NuBBE_1719
REMARK  10 active torsions:
REMARK  status: ('A' for Active; 'I' for Inactive)
REMARK    1  A    between atoms: C_1  and  C_2
REMARK    2  A    between atoms: C_7  and  C_9
REMARK    3  A    between atoms: C_9  and  O_11
REMARK    4  A    between atoms: O_11  and  C_12
REMARK    5  A    between atoms: C_19  and  O_35
REMARK    6  A    between atoms: C_21  and  O_31
REMARK    7  A    between atoms: C_25  and  C_26
REMARK    8  A    between atoms: C_25  and  C_27
REMARK    9  A    between atoms: O_31  and  C_32
REMARK   10  A    between atoms: C_32  and  C_34
REMARK                            x       y       z     vdW  Elec       q    Type
REMARK                         _______ _______ _______ _____ _____    ______ ____
ROOT
ATOM      1  C   LIG A   1      -4.882   7.629 130.437  0.00  0.00    +0.012 C 
ATOM      2  C   LIG A   1      -4.803   6.295 131.252  0.00  0.00    -0.022 C 
ATOM      3  C   LIG A   1      -4.577   5.068 130.278  0.00  0.00    +0.009 C 
ATOM      4  C   LIG A   1      -5.805   4.844 129.314  0.00  0.00    +0.043 C 
ATOM      5  C   LIG A   1      -5.625   3.661 128.274  0.00  0.00    +0.137 C 
ATOM      6  C   LIG A   1      -4.227   3.617 127.741  0.00  0.00    +0.008 A 
ATOM      7  C   LIG A   1      -3.188   4.274 128.348  0.00  0.00    +0.109 A 
ATOM      8  C   LIG A   1      -3.219   5.178 129.510  0.00  0.00    +0.079 C 
ATOM      9  O   LIG A   1      -2.008   3.998 127.746  0.00  0.00    -0.468 OA
ATOM     10  C   LIG A   1      -2.293   3.132 126.736  0.00  0.00    +0.195 A 
ATOM     11  C   LIG A   1      -3.647   2.878 126.680  0.00  0.00    +0.045 A 
ATOM     12  C   LIG A   1      -7.145   4.756 130.082  0.00  0.00    +0.160 C 
ATOM     13  C   LIG A   1      -7.367   5.821 131.178  0.00  0.00    +0.209 C 
ATOM     14  C   LIG A   1      -6.134   6.126 132.090  0.00  0.00    +0.044 C 
ATOM     15  C   LIG A   1      -6.036   5.257 133.424  0.00  0.00    -0.028 C 
ATOM     16  C   LIG A   1      -7.206   5.639 134.374  0.00  0.00    +0.011 C 
ATOM     17  C   LIG A   1      -6.113   3.730 133.256  0.00  0.00    +0.011 C 
ATOM     18  C   LIG A   1      -4.733   5.585 134.193  0.00  0.00    +0.007 C 
ATOM     19  C   LIG A   1      -3.495   5.491 133.321  0.00  0.00    +0.001 C 
ATOM     20  C   LIG A   1      -3.596   6.513 132.209  0.00  0.00    +0.007 C 
ENDROOT
BRANCH   5  21
ATOM     21  C   LIG A   1      -6.013   2.276 128.799  0.00  0.00    +0.315 C 
ATOM     22  O   LIG A   1      -5.331   1.629 129.588  0.00  0.00    -0.250 OA
BRANCH  21  23
ATOM     23  O   LIG A   1      -7.178   1.851 128.234  0.00  0.00    -0.468 OA
ATOM     24  C   LIG A   1      -7.544   2.515 127.030  0.00  0.00    +0.280 C 
ENDBRANCH  21  23
ENDBRANCH   5  21
BRANCH  12  25
ATOM     25  O   LIG A   1      -7.275   3.484 130.693  0.00  0.00    -0.388 OA
ATOM     26  H   LIG A   1      -7.125   3.600 131.652  0.00  0.00    +0.210 HD
ENDBRANCH  12  25
BRANCH  13  27
ATOM     27  O   LIG A   1      -7.778   7.066 130.557  0.00  0.00    -0.459 OA
BRANCH  27  28
ATOM     28  C   LIG A   1      -9.108   7.194 130.293  0.00  0.00    +0.304 C 
ATOM     29  O   LIG A   1      -9.586   7.815 129.365  0.00  0.00    -0.251 OA
ATOM     30  C   LIG A   1      -9.909   6.490 131.351  0.00  0.00    +0.136 C 
ENDBRANCH  27  28
ENDBRANCH  13  27
TORSDOF 5
ENDMDL
MODEL 5
REMARK VINA RESULT:      -6.8      5.150      8.430
REMARK  Name = NuBBE_1719
REMARK  10 active torsions:
REMARK  status: ('A' for Active; 'I' for Inactive)
REMARK    1  A    between atoms: C_1  and  C_2
REMARK    2  A    between atoms: C_7  and  C_9
REMARK    3  A    between atoms: C_9  and  O_11
REMARK    4  A    between atoms: O_11  and  C_12
REMARK    5  A    between atoms: C_19  and  O_35
REMARK    6  A    between atoms: C_21  and  O_31
REMARK    7  A    between atoms: C_25  and  C_26
REMARK    8  A    between atoms: C_25  and  C_27
REMARK    9  A    between atoms: O_31  and  C_32
REMARK   10  A    between atoms: C_32  and  C_34
REMARK                            x       y       z     vdW  Elec       q    Type
REMARK                         _______ _______ _______ _____ _____    ______ ____
ROOT
ATOM      1  C   LIG A   1      -8.732   2.134 129.172  0.00  0.00    +0.012 C 
ATOM      2  C   LIG A   1      -7.259   1.655 128.946  0.00  0.00    -0.022 C 
ATOM      3  C   LIG A   1      -7.238   0.141 128.485  0.00  0.00    +0.009 C 
ATOM      4  C   LIG A   1      -7.778  -0.827 129.606  0.00  0.00    +0.043 C 
ATOM      5  C   LIG A   1      -7.833  -2.357 129.193  0.00  0.00    +0.137 C 
ATOM      6  C   LIG A   1      -8.282  -2.518 127.774  0.00  0.00    +0.008 A 
ATOM      7  C   LIG A   1      -8.283  -1.478 126.881  0.00  0.00    +0.109 A 
ATOM      8  C   LIG A   1      -7.964  -0.059 127.114  0.00  0.00    +0.079 C 
ATOM      9  O   LIG A   1      -8.628  -1.890 125.640  0.00  0.00    -0.468 OA
ATOM     10  C   LIG A   1      -8.839  -3.232 125.733  0.00  0.00    +0.195 A 
ATOM     11  C   LIG A   1      -8.655  -3.664 127.029  0.00  0.00    +0.045 A 
ATOM     12  C   LIG A   1      -7.066  -0.608 130.962  0.00  0.00    +0.160 C 
ATOM     13  C   LIG A   1      -6.891   0.861 131.404  0.00  0.00    +0.209 C 
ATOM     14  C   LIG A   1      -6.443   1.859 130.287  0.00  0.00    +0.044 C 
ATOM     15  C   LIG A   1      -4.868   2.065 130.142  0.00  0.00    -0.028 C 
ATOM     16  C   LIG A   1      -4.323   2.780 131.409  0.00  0.00    +0.011 C 
ATOM     17  C   LIG A   1      -4.021   0.790 129.983  0.00  0.00    +0.011 C 
ATOM     18  C   LIG A   1      -4.547   2.999 128.949  0.00  0.00    +0.007 C 
ATOM     19  C   LIG A   1      -5.218   2.560 127.661  0.00  0.00    +0.001 C 
ATOM     20  C   LIG A   1      -6.720   2.611 127.844  0.00  0.00    +0.007 C 
ENDROOT
BRANCH   5  21
ATOM     21  C   LIG A   1      -6.528  -3.129 129.404  0.00  0.00    +0.315 C 
ATOM     22  O   LIG A   1      -5.511  -2.947 128.741  0.00  0.00    -0.250 OA
BRANCH  21  23
ATOM     23  O   LIG A   1      -6.672  -4.069 130.381  0.00  0.00    -0.468 OA
ATOM     24  C   LIG A   1      -5.482  -4.765 130.730  0.00  0.00    +0.280 C 
ENDBRANCH  21  23
ENDBRANCH   5  21
BRANCH  12  25
ATOM     25  O   LIG A   1      -5.780  -1.202 130.940  0.00  0.00    -0.388 OA
ATOM     26  H   LIG A   1      -5.854  -2.050 130.460  0.00  0.00    +0.210 HD
ENDBRANCH  12  25
BRANCH  13  27
ATOM     27  O   LIG A   1      -8.142   1.346 131.955  0.00  0.00    -0.459 OA
BRANCH  27  28
ATOM     28  C   LIG A   1      -8.049   2.075 133.103  0.00  0.00    +0.304 C 
ATOM     29  O   LIG A   1      -7.169   1.973 133.933  0.00  0.00    -0.251 OA
ATOM     30  C   LIG A   1      -9.228   2.999 133.218  0.00  0.00    +0.136 C 
ENDBRANCH  27  28
ENDBRANCH  13  27
TORSDOF 5
ENDMDL
MODEL 6
REMARK VINA RESULT:      -6.7      4.552      7.345
REMARK  Name = NuBBE_1719
REMARK  10 active torsions:
REMARK  status: ('A' for Active; 'I' for Inactive)
REMARK    1  A    between atoms: C_1  and  C_2
REMARK    2  A    between atoms: C_7  and  C_9
REMARK    3  A    between atoms: C_9  and  O_11
REMARK    4  A    between atoms: O_11  and  C_12
REMARK    5  A    between atoms: C_19  and  O_35
REMARK    6  A    between atoms: C_21  and  O_31
REMARK    7  A    between atoms: C_25  and  C_26
REMARK    8  A    between atoms: C_25  and  C_27
REMARK    9  A    between atoms: O_31  and  C_32
REMARK   10  A    between atoms: C_32  and  C_34
REMARK                            x       y       z     vdW  Elec       q    Type
REMARK                         _______ _______ _______ _____ _____    ______ ____
ROOT
ATOM      1  C   LIG A   1      -3.967   2.176 126.583  0.00  0.00    +0.012 C 
ATOM      2  C   LIG A   1      -5.234   2.942 126.075  0.00  0.00    -0.022 C 
ATOM      3  C   LIG A   1      -5.938   3.695 127.276  0.00  0.00    +0.009 C 
ATOM      4  C   LIG A   1      -6.514   2.692 128.348  0.00  0.00    +0.043 C 
ATOM      5  C   LIG A   1      -7.190   3.379 129.606  0.00  0.00    +0.137 C 
ATOM      6  C   LIG A   1      -6.422   4.589 130.038  0.00  0.00    +0.008 A 
ATOM      7  C   LIG A   1      -5.495   5.198 129.233  0.00  0.00    +0.109 A 
ATOM      8  C   LIG A   1      -5.008   4.783 127.906  0.00  0.00    +0.079 C 
ATOM      9  O   LIG A   1      -5.013   6.329 129.798  0.00  0.00    -0.468 OA
ATOM     10  C   LIG A   1      -5.657   6.459 130.990  0.00  0.00    +0.195 A 
ATOM     11  C   LIG A   1      -6.523   5.405 131.193  0.00  0.00    +0.045 A 
ATOM     12  C   LIG A   1      -7.418   1.609 127.712  0.00  0.00    +0.160 C 
ATOM     13  C   LIG A   1      -6.874   0.944 126.427  0.00  0.00    +0.209 C 
ATOM     14  C   LIG A   1      -6.216   1.910 125.388  0.00  0.00    +0.044 C 
ATOM     15  C   LIG A   1      -7.198   2.489 124.272  0.00  0.00    -0.028 C 
ATOM     16  C   LIG A   1      -7.664   1.332 123.344  0.00  0.00    +0.011 C 
ATOM     17  C   LIG A   1      -8.485   3.167 124.775  0.00  0.00    +0.011 C 
ATOM     18  C   LIG A   1      -6.455   3.498 123.363  0.00  0.00    +0.007 C 
ATOM     19  C   LIG A   1      -5.732   4.577 124.148  0.00  0.00    +0.001 C 
ATOM     20  C   LIG A   1      -4.672   3.930 125.014  0.00  0.00    +0.007 C 
ENDROOT
BRANCH   5  21
ATOM     21  C   LIG A   1      -8.664   3.751 129.424  0.00  0.00    +0.315 C 
ATOM     22  O   LIG A   1      -9.054   4.674 128.715  0.00  0.00    -0.250 OA
BRANCH  21  23
ATOM     23  O   LIG A   1      -9.464   2.956 130.190  0.00  0.00    -0.468 OA
ATOM     24  C   LIG A   1     -10.727   3.516 130.527  0.00  0.00    +0.280 C 
ENDBRANCH  21  23
ENDBRANCH   5  21
BRANCH  12  25
ATOM     25  O   LIG A   1      -8.689   2.153 127.403  0.00  0.00    -0.388 OA
ATOM     26  H   LIG A   1      -8.585   3.122 127.329  0.00  0.00    +0.210 HD
ENDBRANCH  12  25
BRANCH  13  27
ATOM     27  O   LIG A   1      -5.889  -0.056 126.788  0.00  0.00    -0.459 OA
BRANCH  27  28
ATOM     28  C   LIG A   1      -6.145  -1.328 126.371  0.00  0.00    +0.304 C 
ATOM     29  O   LIG A   1      -6.764  -2.164 126.998  0.00  0.00    -0.251 OA
ATOM     30  C   LIG A   1      -5.505  -1.566 125.033  0.00  0.00    +0.136 C 
ENDBRANCH  27  28
ENDBRANCH  13  27
TORSDOF 5
ENDMDL
MODEL 7
REMARK VINA RESULT:      -6.7      5.366      8.621
REMARK  Name = NuBBE_1719
REMARK  10 active torsions:
REMARK  status: ('A' for Active; 'I' for Inactive)
REMARK    1  A    between atoms: C_1  and  C_2
REMARK    2  A    between atoms: C_7  and  C_9
REMARK    3  A    between atoms: C_9  and  O_11
REMARK    4  A    between atoms: O_11  and  C_12
REMARK    5  A    between atoms: C_19  and  O_35
REMARK    6  A    between atoms: C_21  and  O_31
REMARK    7  A    between atoms: C_25  and  C_26
REMARK    8  A    between atoms: C_25  and  C_27
REMARK    9  A    between atoms: O_31  and  C_32
REMARK   10  A    between atoms: C_32  and  C_34
REMARK                            x       y       z     vdW  Elec       q    Type
REMARK                         _______ _______ _______ _____ _____    ______ ____
ROOT
ATOM      1  C   LIG A   1      -7.571   3.479 126.115  0.00  0.00    +0.012 C 
ATOM      2  C   LIG A   1      -6.403   2.594 126.664  0.00  0.00    -0.022 C 
ATOM      3  C   LIG A   1      -6.635   1.076 126.282  0.00  0.00    +0.009 C 
ATOM      4  C   LIG A   1      -7.916   0.480 126.982  0.00  0.00    +0.043 C 
ATOM      5  C   LIG A   1      -8.240  -1.026 126.604  0.00  0.00    +0.137 C 
ATOM      6  C   LIG A   1      -7.981  -1.286 125.153  0.00  0.00    +0.008 A 
ATOM      7  C   LIG A   1      -7.232  -0.440 124.376  0.00  0.00    +0.109 A 
ATOM      8  C   LIG A   1      -6.639   0.860 124.733  0.00  0.00    +0.079 C 
ATOM      9  O   LIG A   1      -7.050  -0.939 123.132  0.00  0.00    -0.468 OA
ATOM     10  C   LIG A   1      -7.686  -2.143 123.112  0.00  0.00    +0.195 A 
ATOM     11  C   LIG A   1      -8.289  -2.395 124.326  0.00  0.00    +0.045 A 
ATOM     12  C   LIG A   1      -7.911   0.715 128.511  0.00  0.00    +0.160 C 
ATOM     13  C   LIG A   1      -7.521   2.136 128.975  0.00  0.00    +0.209 C 
ATOM     14  C   LIG A   1      -6.309   2.785 128.232  0.00  0.00    +0.044 C 
ATOM     15  C   LIG A   1      -4.881   2.537 128.900  0.00  0.00    -0.028 C 
ATOM     16  C   LIG A   1      -4.817   3.275 130.266  0.00  0.00    +0.011 C 
ATOM     17  C   LIG A   1      -4.506   1.075 129.194  0.00  0.00    +0.011 C 
ATOM     18  C   LIG A   1      -3.758   3.148 128.027  0.00  0.00    +0.007 C 
ATOM     19  C   LIG A   1      -3.830   2.704 126.578  0.00  0.00    +0.001 C 
ATOM     20  C   LIG A   1      -5.136   3.183 125.979  0.00  0.00    +0.007 C 
ENDROOT
BRANCH   5  21
ATOM     21  C   LIG A   1      -7.509  -2.074 127.447  0.00  0.00    +0.315 C 
ATOM     22  O   LIG A   1      -6.311  -2.320 127.343  0.00  0.00    -0.250 OA
BRANCH  21  23
ATOM     23  O   LIG A   1      -8.375  -2.720 128.278  0.00  0.00    -0.468 OA
ATOM     24  C   LIG A   1      -9.001  -3.870 127.723  0.00  0.00    +0.280 C 
ENDBRANCH  21  23
ENDBRANCH   5  21
BRANCH  12  25
ATOM     25  O   LIG A   1      -7.028  -0.196 129.143  0.00  0.00    -0.388 OA
ATOM     26  H   LIG A   1      -7.272  -0.235 130.089  0.00  0.00    +0.210 HD
ENDBRANCH  12  25
BRANCH  13  27
ATOM     27  O   LIG A   1      -8.661   3.018 128.819  0.00  0.00    -0.459 OA
BRANCH  27  28
ATOM     28  C   LIG A   1      -9.395   3.254 129.943  0.00  0.00    +0.304 C 
ATOM     29  O   LIG A   1     -10.591   3.462 129.973  0.00  0.00    -0.251 OA
ATOM     30  C   LIG A   1      -8.497   3.267 131.146  0.00  0.00    +0.136 C 
ENDBRANCH  27  28
ENDBRANCH  13  27
TORSDOF 5
ENDMDL
MODEL 8
REMARK VINA RESULT:      -6.6      1.884      2.903
REMARK  Name = NuBBE_1719
REMARK  10 active torsions:
REMARK  status: ('A' for Active; 'I' for Inactive)
REMARK    1  A    between atoms: C_1  and  C_2
REMARK    2  A    between atoms: C_7  and  C_9
REMARK    3  A    between atoms: C_9  and  O_11
REMARK    4  A    between atoms: O_11  and  C_12
REMARK    5  A    between atoms: C_19  and  O_35
REMARK    6  A    between atoms: C_21  and  O_31
REMARK    7  A    between atoms: C_25  and  C_26
REMARK    8  A    between atoms: C_25  and  C_27
REMARK    9  A    between atoms: O_31  and  C_32
REMARK   10  A    between atoms: C_32  and  C_34
REMARK                            x       y       z     vdW  Elec       q    Type
REMARK                         _______ _______ _______ _____ _____    ______ ____
ROOT
ATOM      1  C   LIG A   1     -10.010   2.337 132.320  0.00  0.00    +0.012 C 
ATOM      2  C   LIG A   1      -8.661   2.146 131.551  0.00  0.00    -0.022 C 
ATOM      3  C   LIG A   1      -7.556   3.120 132.130  0.00  0.00    +0.009 C 
ATOM      4  C   LIG A   1      -7.915   4.636 131.883  0.00  0.00    +0.043 C 
ATOM      5  C   LIG A   1      -6.874   5.671 132.484  0.00  0.00    +0.137 C 
ATOM      6  C   LIG A   1      -6.373   5.220 133.820  0.00  0.00    +0.008 A 
ATOM      7  C   LIG A   1      -6.523   3.932 134.266  0.00  0.00    +0.109 A 
ATOM      8  C   LIG A   1      -7.237   2.812 133.630  0.00  0.00    +0.079 C 
ATOM      9  O   LIG A   1      -5.898   3.741 135.450  0.00  0.00    -0.468 OA
ATOM     10  C   LIG A   1      -5.319   4.931 135.767  0.00  0.00    +0.195 A 
ATOM     11  C   LIG A   1      -5.596   5.879 134.805  0.00  0.00    +0.045 A 
ATOM     12  C   LIG A   1      -8.246   4.926 130.400  0.00  0.00    +0.160 C 
ATOM     13  C   LIG A   1      -9.187   3.916 129.708  0.00  0.00    +0.209 C 
ATOM     14  C   LIG A   1      -8.907   2.408 130.010  0.00  0.00    +0.044 C 
ATOM     15  C   LIG A   1      -7.920   1.676 128.992  0.00  0.00    -0.028 C 
ATOM     16  C   LIG A   1      -8.600   1.574 127.599  0.00  0.00    +0.011 C 
ATOM     17  C   LIG A   1      -6.561   2.353 128.748  0.00  0.00    +0.011 C 
ATOM     18  C   LIG A   1      -7.650   0.220 129.446  0.00  0.00    +0.007 C 
ATOM     19  C   LIG A   1      -7.200   0.128 130.893  0.00  0.00    +0.001 C 
ATOM     20  C   LIG A   1      -8.305   0.650 131.788  0.00  0.00    +0.007 C 
ENDROOT
BRANCH   5  21
ATOM     21  C   LIG A   1      -5.684   5.989 131.575  0.00  0.00    +0.315 C 
ATOM     22  O   LIG A   1      -4.747   5.221 131.382  0.00  0.00    -0.250 OA
BRANCH  21  23
ATOM     23  O   LIG A   1      -5.788   7.248 131.063  0.00  0.00    -0.468 OA
ATOM     24  C   LIG A   1      -4.654   7.698 130.331  0.00  0.00    +0.280 C 
ENDBRANCH  21  23
ENDBRANCH   5  21
BRANCH  12  25
ATOM     25  O   LIG A   1      -7.054   4.988 129.637  0.00  0.00    -0.388 OA
ATOM     26  H   LIG A   1      -7.273   4.715 128.724  0.00  0.00    +0.210 HD
ENDBRANCH  12  25
BRANCH  13  27
ATOM     27  O   LIG A   1     -10.557   4.198 130.094  0.00  0.00    -0.459 OA
BRANCH  27  28
ATOM     28  C   LIG A   1     -10.980   5.479 129.907  0.00  0.00    +0.304 C 
ATOM     29  O   LIG A   1     -10.942   6.088 128.857  0.00  0.00    -0.251 OA
ATOM     30  C   LIG A   1     -11.462   6.053 131.208  0.00  0.00    +0.136 C 
ENDBRANCH  27  28
ENDBRANCH  13  27
TORSDOF 5
ENDMDL
MODEL 9
REMARK VINA RESULT:      -6.6      4.978      8.373
REMARK  Name = NuBBE_1719
REMARK  10 active torsions:
REMARK  status: ('A' for Active; 'I' for Inactive)
REMARK    1  A    between atoms: C_1  and  C_2
REMARK    2  A    between atoms: C_7  and  C_9
REMARK    3  A    between atoms: C_9  and  O_11
REMARK    4  A    between atoms: O_11  and  C_12
REMARK    5  A    between atoms: C_19  and  O_35
REMARK    6  A    between atoms: C_21  and  O_31
REMARK    7  A    between atoms: C_25  and  C_26
REMARK    8  A    between atoms: C_25  and  C_27
REMARK    9  A    between atoms: O_31  and  C_32
REMARK   10  A    between atoms: C_32  and  C_34
REMARK                            x       y       z     vdW  Elec       q    Type
REMARK                         _______ _______ _______ _____ _____    ______ ____
ROOT
ATOM      1  C   LIG A   1      -5.342  -0.426 128.957  0.00  0.00    +0.012 C 
ATOM      2  C   LIG A   1      -6.812   0.051 129.202  0.00  0.00    -0.022 C 
ATOM      3  C   LIG A   1      -7.711  -0.268 127.939  0.00  0.00    +0.009 C 
ATOM      4  C   LIG A   1      -7.259   0.552 126.669  0.00  0.00    +0.043 C 
ATOM      5  C   LIG A   1      -8.085   0.243 125.351  0.00  0.00    +0.137 C 
ATOM      6  C   LIG A   1      -8.397  -1.216 125.238  0.00  0.00    +0.008 A 
ATOM      7  C   LIG A   1      -8.295  -2.075 126.301  0.00  0.00    +0.109 A 
ATOM      8  C   LIG A   1      -7.803  -1.804 127.663  0.00  0.00    +0.079 C 
ATOM      9  O   LIG A   1      -8.730  -3.315 125.981  0.00  0.00    -0.468 OA
ATOM     10  C   LIG A   1      -9.135  -3.249 124.684  0.00  0.00    +0.195 A 
ATOM     11  C   LIG A   1      -8.936  -1.984 124.175  0.00  0.00    +0.045 A 
ATOM     12  C   LIG A   1      -7.154   2.068 126.957  0.00  0.00    +0.160 C 
ATOM     13  C   LIG A   1      -6.438   2.458 128.269  0.00  0.00    +0.209 C 
ATOM     14  C   LIG A   1      -6.802   1.600 129.524  0.00  0.00    +0.044 C 
ATOM     15  C   LIG A   1      -8.008   2.155 130.409  0.00  0.00    -0.028 C 
ATOM     16  C   LIG A   1      -7.581   3.490 131.080  0.00  0.00    +0.011 C 
ATOM     17  C   LIG A   1      -9.320   2.460 129.667  0.00  0.00    +0.011 C 
ATOM     18  C   LIG A   1      -8.332   1.177 131.564  0.00  0.00    +0.007 C 
ATOM     19  C   LIG A   1      -8.542  -0.248 131.087  0.00  0.00    +0.001 C 
ATOM     20  C   LIG A   1      -7.261  -0.752 130.457  0.00  0.00    +0.007 C 
ENDROOT
BRANCH   5  21
ATOM     21  C   LIG A   1      -9.375   1.053 125.194  0.00  0.00    +0.315 C 
ATOM     22  O   LIG A   1     -10.425   0.784 125.771  0.00  0.00    -0.250 OA
BRANCH  21  23
ATOM     23  O   LIG A   1      -9.207   2.065 124.296  0.00  0.00    -0.468 OA
ATOM     24  C   LIG A   1      -9.362   1.694 122.932  0.00  0.00    +0.280 C 
ENDBRANCH  21  23
ENDBRANCH   5  21
BRANCH  12  25
ATOM     25  O   LIG A   1      -8.445   2.651 126.988  0.00  0.00    -0.388 OA
ATOM     26  H   LIG A   1      -8.680   2.895 126.071  0.00  0.00    +0.210 HD
ENDBRANCH  12  25
BRANCH  13  27
ATOM     27  O   LIG A   1      -5.003   2.371 128.074  0.00  0.00    -0.459 OA
BRANCH  27  28
ATOM     28  C   LIG A   1      -4.394   3.493 127.599  0.00  0.00    +0.304 C 
ATOM     29  O   LIG A   1      -4.720   4.635 127.854  0.00  0.00    -0.251 OA
ATOM     30  C   LIG A   1      -3.278   3.113 126.668  0.00  0.00    +0.136 C 
ENDBRANCH  27  28
ENDBRANCH  13  27
TORSDOF 5
ENDMDL
