MODEL 1
REMARK VINA RESULT:      -8.3      0.000      0.000
REMARK  Name = NuBBE_978
REMARK  16 active torsions:
REMARK  status: ('A' for Active; 'I' for Inactive)
REMARK    1  A    between atoms: C_2  and  C_28
REMARK    2  A    between atoms: N_3  and  C_4
REMARK    3  A    between atoms: C_4  and  C_5
REMARK    4  A    between atoms: C_5  and  C_6
REMARK    5  A    between atoms: C_9  and  O_10
REMARK    6  A    between atoms: O_10  and  C_11
REMARK    7  A    between atoms: C_11  and  C_12
REMARK    8  A    between atoms: C_13  and  C_14
REMARK    9  A    between atoms: C_13  and  C_15
REMARK   10  A    between atoms: C_15  and  O_16
REMARK   11  A    between atoms: C_15  and  C_20
REMARK   12  A    between atoms: O_16  and  C_17
REMARK   13  A    between atoms: C_17  and  C_18
REMARK   14  A    between atoms: C_20  and  C_21
REMARK   15  A    between atoms: C_22  and  C_23
REMARK   16  A    between atoms: C_22  and  C_24
REMARK                            x       y       z     vdW  Elec       q    Type
REMARK                         _______ _______ _______ _____ _____    ______ ____
ROOT
ATOM      1  C   LIG A   1      -8.906   2.806 131.302  0.00  0.00    -0.046 A 
ATOM      2  C   LIG A   1      -7.744   2.815 130.522  0.00  0.00    +0.007 A 
ATOM      3  C   LIG A   1      -7.117   1.614 130.181  0.00  0.00    +0.046 A 
ATOM      4  C   LIG A   1      -7.656   0.392 130.593  0.00  0.00    +0.121 A 
ATOM      5  C   LIG A   1      -8.808   0.380 131.374  0.00  0.00    +0.046 A 
ATOM      6  C   LIG A   1      -9.429   1.579 131.727  0.00  0.00    +0.007 A 
ENDROOT
BRANCH   1   7
ATOM      7  C   LIG A   1      -9.587   4.088 131.701  0.00  0.00    +0.054 C 
BRANCH   7   8
ATOM      8  C   LIG A   1      -9.048   5.317 130.966  0.00  0.00    +0.109 C 
BRANCH   8  11
ATOM      9  O   LIG A   1      -9.533   5.965 128.243  0.00  0.00    -0.270 OA
ATOM     10  C   LIG A   1     -10.278   6.392 129.109  0.00  0.00    +0.244 C 
ATOM     11  N   LIG A   1     -10.136   6.135 130.455  0.00  0.00    -0.311 N 
ATOM     12  H   LIG A   1     -10.907   6.342 131.080  0.00  0.00    +0.149 HD
BRANCH  10  13
ATOM     13  C   LIG A   1     -11.462   7.247 128.743  0.00  0.00    +0.037 A 
ATOM     14  C   LIG A   1     -12.457   6.789 127.866  0.00  0.00    +0.013 A 
ATOM     15  C   LIG A   1     -13.571   7.584 127.587  0.00  0.00    +0.001 A 
ATOM     16  C   LIG A   1     -13.700   8.838 128.180  0.00  0.00    +0.000 A 
ATOM     17  C   LIG A   1     -12.715   9.302 129.052  0.00  0.00    +0.001 A 
ATOM     18  C   LIG A   1     -11.601   8.509 129.338  0.00  0.00    +0.013 A 
ENDBRANCH  10  13
ENDBRANCH   8  11
ENDBRANCH   7   8
ENDBRANCH   1   7
BRANCH   4  19
ATOM     19  O   LIG A   1      -6.943  -0.715 130.240  0.00  0.00    -0.488 OA
BRANCH  19  20
ATOM     20  C   LIG A   1      -7.675  -1.861 129.794  0.00  0.00    +0.257 C 
BRANCH  20  21
ATOM     21  C   LIG A   1      -7.722  -1.791 128.300  0.00  0.00    +0.016 C 
ATOM     22  C   LIG A   1      -8.208  -2.716 127.449  0.00  0.00    -0.033 C 
ATOM     23  C   LIG A   1      -8.945  -3.950 127.900  0.00  0.00    +0.043 C 
BRANCH  22  24
ATOM     24  C   LIG A   1      -7.951  -2.545 125.951  0.00  0.00    +0.206 C 
BRANCH  24  25
ATOM     25  O   LIG A   1      -8.992  -1.703 125.400  0.00  0.00    -0.457 OA
BRANCH  25  26
ATOM     26  C   LIG A   1      -9.033  -1.649 124.048  0.00  0.00    +0.304 C 
ATOM     27  C   LIG A   1      -9.363  -3.010 123.488  0.00  0.00    +0.136 C 
ATOM     28  O   LIG A   1      -8.819  -0.664 123.345  0.00  0.00    -0.251 OA
ENDBRANCH  25  26
ENDBRANCH  24  25
BRANCH  24  29
ATOM     29  C   LIG A   1      -6.551  -1.961 125.665  0.00  0.00    +0.076 C 
BRANCH  29  30
ATOM     30  C   LIG A   1      -5.579  -2.998 125.143  0.00  0.00    -0.024 C 
ATOM     31  C   LIG A   1      -5.212  -3.203 123.861  0.00  0.00    -0.080 C 
ATOM     32  C   LIG A   1      -5.734  -2.429 122.681  0.00  0.00    +0.038 C 
ATOM     33  C   LIG A   1      -4.177  -4.241 123.506  0.00  0.00    +0.038 C 
ENDBRANCH  29  30
ENDBRANCH  24  29
ENDBRANCH  22  24
ENDBRANCH  20  21
ENDBRANCH  19  20
ENDBRANCH   4  19
TORSDOF 12
ENDMDL
MODEL 2
REMARK VINA RESULT:      -8.2      1.610      1.933
REMARK  Name = NuBBE_978
REMARK  16 active torsions:
REMARK  status: ('A' for Active; 'I' for Inactive)
REMARK    1  A    between atoms: C_2  and  C_28
REMARK    2  A    between atoms: N_3  and  C_4
REMARK    3  A    between atoms: C_4  and  C_5
REMARK    4  A    between atoms: C_5  and  C_6
REMARK    5  A    between atoms: C_9  and  O_10
REMARK    6  A    between atoms: O_10  and  C_11
REMARK    7  A    between atoms: C_11  and  C_12
REMARK    8  A    between atoms: C_13  and  C_14
REMARK    9  A    between atoms: C_13  and  C_15
REMARK   10  A    between atoms: C_15  and  O_16
REMARK   11  A    between atoms: C_15  and  C_20
REMARK   12  A    between atoms: O_16  and  C_17
REMARK   13  A    between atoms: C_17  and  C_18
REMARK   14  A    between atoms: C_20  and  C_21
REMARK   15  A    between atoms: C_22  and  C_23
REMARK   16  A    between atoms: C_22  and  C_24
REMARK                            x       y       z     vdW  Elec       q    Type
REMARK                         _______ _______ _______ _____ _____    ______ ____
ROOT
ATOM      1  C   LIG A   1      -8.731   2.779 133.100  0.00  0.00    -0.046 A 
ATOM      2  C   LIG A   1      -7.523   2.081 133.214  0.00  0.00    +0.007 A 
ATOM      3  C   LIG A   1      -7.376   0.827 132.617  0.00  0.00    +0.046 A 
ATOM      4  C   LIG A   1      -8.423   0.267 131.880  0.00  0.00    +0.121 A 
ATOM      5  C   LIG A   1      -9.628   0.955 131.769  0.00  0.00    +0.046 A 
ATOM      6  C   LIG A   1      -9.782   2.202 132.377  0.00  0.00    +0.007 A 
ENDROOT
BRANCH   1   7
ATOM      7  C   LIG A   1      -8.922   4.121 133.754  0.00  0.00    +0.054 C 
BRANCH   7   8
ATOM      8  C   LIG A   1      -8.394   5.287 132.914  0.00  0.00    +0.109 C 
BRANCH   8  11
ATOM      9  O   LIG A   1      -8.051   7.089 130.744  0.00  0.00    -0.270 OA
ATOM     10  C   LIG A   1      -9.172   6.721 131.055  0.00  0.00    +0.244 C 
ATOM     11  N   LIG A   1      -9.448   5.848 132.084  0.00  0.00    -0.311 N 
ATOM     12  H   LIG A   1     -10.369   5.427 132.140  0.00  0.00    +0.149 HD
BRANCH  10  13
ATOM     13  C   LIG A   1     -10.374   7.202 130.286  0.00  0.00    +0.037 A 
ATOM     14  C   LIG A   1     -11.679   7.013 130.766  0.00  0.00    +0.013 A 
ATOM     15  C   LIG A   1     -12.771   7.518 130.057  0.00  0.00    +0.001 A 
ATOM     16  C   LIG A   1     -12.569   8.214 128.866  0.00  0.00    +0.000 A 
ATOM     17  C   LIG A   1     -11.275   8.404 128.380  0.00  0.00    +0.001 A 
ATOM     18  C   LIG A   1     -10.179   7.905 129.089  0.00  0.00    +0.013 A 
ENDBRANCH  10  13
ENDBRANCH   8  11
ENDBRANCH   7   8
ENDBRANCH   1   7
BRANCH   4  19
ATOM     19  O   LIG A   1      -8.188  -0.977 131.374  0.00  0.00    -0.488 OA
BRANCH  19  20
ATOM     20  C   LIG A   1      -6.976  -1.177 130.641  0.00  0.00    +0.257 C 
BRANCH  20  21
ATOM     21  C   LIG A   1      -7.315  -1.024 129.191  0.00  0.00    +0.016 C 
ATOM     22  C   LIG A   1      -7.751  -1.978 128.345  0.00  0.00    -0.033 C 
ATOM     23  C   LIG A   1      -8.121  -3.369 128.784  0.00  0.00    +0.043 C 
BRANCH  22  24
ATOM     24  C   LIG A   1      -7.819  -1.658 126.850  0.00  0.00    +0.206 C 
BRANCH  24  25
ATOM     25  O   LIG A   1      -8.807  -0.619 126.648  0.00  0.00    -0.457 OA
BRANCH  25  26
ATOM     26  C   LIG A   1      -9.061  -0.312 125.355  0.00  0.00    +0.304 C 
ATOM     27  C   LIG A   1      -8.768   1.147 125.104  0.00  0.00    +0.136 C 
ATOM     28  O   LIG A   1      -9.487  -1.072 124.488  0.00  0.00    -0.251 OA
ENDBRANCH  25  26
ENDBRANCH  24  25
BRANCH  24  29
ATOM     29  C   LIG A   1      -6.446  -1.241 126.282  0.00  0.00    +0.076 C 
BRANCH  29  30
ATOM     30  C   LIG A   1      -5.708  -2.391 125.631  0.00  0.00    -0.024 C 
ATOM     31  C   LIG A   1      -5.598  -2.651 124.312  0.00  0.00    -0.080 C 
ATOM     32  C   LIG A   1      -6.226  -1.832 123.217  0.00  0.00    +0.038 C 
ATOM     33  C   LIG A   1      -4.768  -3.809 123.814  0.00  0.00    +0.038 C 
ENDBRANCH  29  30
ENDBRANCH  24  29
ENDBRANCH  22  24
ENDBRANCH  20  21
ENDBRANCH  19  20
ENDBRANCH   4  19
TORSDOF 12
ENDMDL
MODEL 3
REMARK VINA RESULT:      -8.2      1.838      2.676
REMARK  Name = NuBBE_978
REMARK  16 active torsions:
REMARK  status: ('A' for Active; 'I' for Inactive)
REMARK    1  A    between atoms: C_2  and  C_28
REMARK    2  A    between atoms: N_3  and  C_4
REMARK    3  A    between atoms: C_4  and  C_5
REMARK    4  A    between atoms: C_5  and  C_6
REMARK    5  A    between atoms: C_9  and  O_10
REMARK    6  A    between atoms: O_10  and  C_11
REMARK    7  A    between atoms: C_11  and  C_12
REMARK    8  A    between atoms: C_13  and  C_14
REMARK    9  A    between atoms: C_13  and  C_15
REMARK   10  A    between atoms: C_15  and  O_16
REMARK   11  A    between atoms: C_15  and  C_20
REMARK   12  A    between atoms: O_16  and  C_17
REMARK   13  A    between atoms: C_17  and  C_18
REMARK   14  A    between atoms: C_20  and  C_21
REMARK   15  A    between atoms: C_22  and  C_23
REMARK   16  A    between atoms: C_22  and  C_24
REMARK                            x       y       z     vdW  Elec       q    Type
REMARK                         _______ _______ _______ _____ _____    ______ ____
ROOT
ATOM      1  C   LIG A   1      -8.482   3.163 133.381  0.00  0.00    -0.046 A 
ATOM      2  C   LIG A   1      -7.282   2.514 133.695  0.00  0.00    +0.007 A 
ATOM      3  C   LIG A   1      -7.046   1.215 133.238  0.00  0.00    +0.046 A 
ATOM      4  C   LIG A   1      -7.992   0.560 132.445  0.00  0.00    +0.121 A 
ATOM      5  C   LIG A   1      -9.188   1.201 132.136  0.00  0.00    +0.046 A 
ATOM      6  C   LIG A   1      -9.432   2.494 132.602  0.00  0.00    +0.007 A 
ENDROOT
BRANCH   1   7
ATOM      7  C   LIG A   1      -8.769   4.554 133.881  0.00  0.00    +0.054 C 
BRANCH   7   8
ATOM      8  C   LIG A   1      -8.264   5.653 132.943  0.00  0.00    +0.109 C 
BRANCH   8  11
ATOM      9  O   LIG A   1      -8.267   6.275 130.171  0.00  0.00    -0.270 OA
ATOM     10  C   LIG A   1      -9.257   6.507 130.845  0.00  0.00    +0.244 C 
ATOM     11  N   LIG A   1      -9.362   6.240 132.192  0.00  0.00    -0.311 N 
ATOM     12  H   LIG A   1     -10.277   6.259 132.628  0.00  0.00    +0.149 HD
BRANCH  10  13
ATOM     13  C   LIG A   1     -10.487   7.105 130.214  0.00  0.00    +0.037 A 
ATOM     14  C   LIG A   1     -11.770   6.860 130.727  0.00  0.00    +0.013 A 
ATOM     15  C   LIG A   1     -12.887   7.471 130.152  0.00  0.00    +0.001 A 
ATOM     16  C   LIG A   1     -12.731   8.329 129.065  0.00  0.00    +0.000 A 
ATOM     17  C   LIG A   1     -11.459   8.576 128.547  0.00  0.00    +0.001 A 
ATOM     18  C   LIG A   1     -10.338   7.970 129.122  0.00  0.00    +0.013 A 
ENDBRANCH  10  13
ENDBRANCH   8  11
ENDBRANCH   7   8
ENDBRANCH   1   7
BRANCH   4  19
ATOM     19  O   LIG A   1      -7.678  -0.717 132.087  0.00  0.00    -0.488 OA
BRANCH  19  20
ATOM     20  C   LIG A   1      -6.587  -0.904 131.181  0.00  0.00    +0.257 C 
BRANCH  20  21
ATOM     21  C   LIG A   1      -7.174  -0.985 129.807  0.00  0.00    +0.016 C 
ATOM     22  C   LIG A   1      -7.680  -2.073 129.193  0.00  0.00    -0.033 C 
ATOM     23  C   LIG A   1      -7.878  -3.396 129.883  0.00  0.00    +0.043 C 
BRANCH  22  24
ATOM     24  C   LIG A   1      -8.019  -1.985 127.704  0.00  0.00    +0.206 C 
BRANCH  24  25
ATOM     25  O   LIG A   1      -6.816  -1.632 126.980  0.00  0.00    -0.457 OA
BRANCH  25  26
ATOM     26  C   LIG A   1      -6.903  -0.505 126.236  0.00  0.00    +0.304 C 
ATOM     27  C   LIG A   1      -5.671  -0.357 125.378  0.00  0.00    +0.136 C 
ATOM     28  O   LIG A   1      -7.821   0.312 126.244  0.00  0.00    -0.251 OA
ENDBRANCH  25  26
ENDBRANCH  24  25
BRANCH  24  29
ATOM     29  C   LIG A   1      -8.627  -3.299 127.168  0.00  0.00    +0.076 C 
BRANCH  29  30
ATOM     30  C   LIG A   1      -9.293  -3.129 125.819  0.00  0.00    -0.024 C 
ATOM     31  C   LIG A   1      -8.753  -3.364 124.605  0.00  0.00    -0.080 C 
ATOM     32  C   LIG A   1      -7.344  -3.833 124.365  0.00  0.00    +0.038 C 
ATOM     33  C   LIG A   1      -9.572  -3.208 123.347  0.00  0.00    +0.038 C 
ENDBRANCH  29  30
ENDBRANCH  24  29
ENDBRANCH  22  24
ENDBRANCH  20  21
ENDBRANCH  19  20
ENDBRANCH   4  19
TORSDOF 12
ENDMDL
MODEL 4
REMARK VINA RESULT:      -8.1      1.510      2.055
REMARK  Name = NuBBE_978
REMARK  16 active torsions:
REMARK  status: ('A' for Active; 'I' for Inactive)
REMARK    1  A    between atoms: C_2  and  C_28
REMARK    2  A    between atoms: N_3  and  C_4
REMARK    3  A    between atoms: C_4  and  C_5
REMARK    4  A    between atoms: C_5  and  C_6
REMARK    5  A    between atoms: C_9  and  O_10
REMARK    6  A    between atoms: O_10  and  C_11
REMARK    7  A    between atoms: C_11  and  C_12
REMARK    8  A    between atoms: C_13  and  C_14
REMARK    9  A    between atoms: C_13  and  C_15
REMARK   10  A    between atoms: C_15  and  O_16
REMARK   11  A    between atoms: C_15  and  C_20
REMARK   12  A    between atoms: O_16  and  C_17
REMARK   13  A    between atoms: C_17  and  C_18
REMARK   14  A    between atoms: C_20  and  C_21
REMARK   15  A    between atoms: C_22  and  C_23
REMARK   16  A    between atoms: C_22  and  C_24
REMARK                            x       y       z     vdW  Elec       q    Type
REMARK                         _______ _______ _______ _____ _____    ______ ____
ROOT
ATOM      1  C   LIG A   1      -8.493   1.851 131.446  0.00  0.00    -0.046 A 
ATOM      2  C   LIG A   1      -8.831   0.493 131.416  0.00  0.00    +0.007 A 
ATOM      3  C   LIG A   1      -8.002  -0.423 130.764  0.00  0.00    +0.046 A 
ATOM      4  C   LIG A   1      -6.817   0.001 130.157  0.00  0.00    +0.121 A 
ATOM      5  C   LIG A   1      -6.481   1.351 130.180  0.00  0.00    +0.046 A 
ATOM      6  C   LIG A   1      -7.314   2.271 130.819  0.00  0.00    +0.007 A 
ENDROOT
BRANCH   1   7
ATOM      7  C   LIG A   1      -9.381   2.861 132.122  0.00  0.00    +0.054 C 
BRANCH   7   8
ATOM      8  C   LIG A   1      -8.791   4.272 132.143  0.00  0.00    +0.109 C 
BRANCH   8  11
ATOM      9  O   LIG A   1     -10.313   6.582 132.791  0.00  0.00    -0.270 OA
ATOM     10  C   LIG A   1     -10.202   6.237 131.626  0.00  0.00    +0.244 C 
ATOM     11  N   LIG A   1      -9.484   5.139 131.204  0.00  0.00    -0.311 N 
ATOM     12  H   LIG A   1      -9.261   5.045 130.220  0.00  0.00    +0.149 HD
BRANCH  10  13
ATOM     13  C   LIG A   1     -10.851   7.037 130.528  0.00  0.00    +0.037 A 
ATOM     14  C   LIG A   1     -12.225   7.324 130.541  0.00  0.00    +0.013 A 
ATOM     15  C   LIG A   1     -12.789   8.113 129.537  0.00  0.00    +0.001 A 
ATOM     16  C   LIG A   1     -11.989   8.621 128.515  0.00  0.00    +0.000 A 
ATOM     17  C   LIG A   1     -10.623   8.338 128.493  0.00  0.00    +0.001 A 
ATOM     18  C   LIG A   1     -10.053   7.553 129.499  0.00  0.00    +0.013 A 
ENDBRANCH  10  13
ENDBRANCH   8  11
ENDBRANCH   7   8
ENDBRANCH   1   7
BRANCH   4  19
ATOM     19  O   LIG A   1      -6.104  -0.968 129.515  0.00  0.00    -0.488 OA
BRANCH  19  20
ATOM     20  C   LIG A   1      -6.816  -2.121 129.055  0.00  0.00    +0.257 C 
BRANCH  20  21
ATOM     21  C   LIG A   1      -7.480  -1.737 127.770  0.00  0.00    +0.016 C 
ATOM     22  C   LIG A   1      -8.356  -2.464 127.049  0.00  0.00    -0.033 C 
ATOM     23  C   LIG A   1      -8.940  -3.768 127.525  0.00  0.00    +0.043 C 
BRANCH  22  24
ATOM     24  C   LIG A   1      -8.738  -1.979 125.649  0.00  0.00    +0.206 C 
BRANCH  24  25
ATOM     25  O   LIG A   1      -8.023  -0.749 125.380  0.00  0.00    -0.457 OA
BRANCH  25  26
ATOM     26  C   LIG A   1      -8.693   0.152 124.624  0.00  0.00    +0.304 C 
ATOM     27  C   LIG A   1      -7.727   1.139 124.020  0.00  0.00    +0.136 C 
ATOM     28  O   LIG A   1      -9.909   0.203 124.447  0.00  0.00    -0.251 OA
ENDBRANCH  25  26
ENDBRANCH  24  25
BRANCH  24  29
ATOM     29  C   LIG A   1      -8.449  -3.041 124.567  0.00  0.00    +0.076 C 
BRANCH  29  30
ATOM     30  C   LIG A   1      -6.979  -3.390 124.465  0.00  0.00    -0.024 C 
ATOM     31  C   LIG A   1      -6.085  -2.911 123.576  0.00  0.00    -0.080 C 
ATOM     32  C   LIG A   1      -6.400  -1.930 122.481  0.00  0.00    +0.038 C 
ATOM     33  C   LIG A   1      -4.631  -3.309 123.645  0.00  0.00    +0.038 C 
ENDBRANCH  29  30
ENDBRANCH  24  29
ENDBRANCH  22  24
ENDBRANCH  20  21
ENDBRANCH  19  20
ENDBRANCH   4  19
TORSDOF 12
ENDMDL
MODEL 5
REMARK VINA RESULT:      -7.9      1.953      2.797
REMARK  Name = NuBBE_978
REMARK  16 active torsions:
REMARK  status: ('A' for Active; 'I' for Inactive)
REMARK    1  A    between atoms: C_2  and  C_28
REMARK    2  A    between atoms: N_3  and  C_4
REMARK    3  A    between atoms: C_4  and  C_5
REMARK    4  A    between atoms: C_5  and  C_6
REMARK    5  A    between atoms: C_9  and  O_10
REMARK    6  A    between atoms: O_10  and  C_11
REMARK    7  A    between atoms: C_11  and  C_12
REMARK    8  A    between atoms: C_13  and  C_14
REMARK    9  A    between atoms: C_13  and  C_15
REMARK   10  A    between atoms: C_15  and  O_16
REMARK   11  A    between atoms: C_15  and  C_20
REMARK   12  A    between atoms: O_16  and  C_17
REMARK   13  A    between atoms: C_17  and  C_18
REMARK   14  A    between atoms: C_20  and  C_21
REMARK   15  A    between atoms: C_22  and  C_23
REMARK   16  A    between atoms: C_22  and  C_24
REMARK                            x       y       z     vdW  Elec       q    Type
REMARK                         _______ _______ _______ _____ _____    ______ ____
ROOT
ATOM      1  C   LIG A   1      -8.706   2.823 133.113  0.00  0.00    -0.046 A 
ATOM      2  C   LIG A   1      -9.794   2.347 132.372  0.00  0.00    +0.007 A 
ATOM      3  C   LIG A   1      -9.715   1.114 131.721  0.00  0.00    +0.046 A 
ATOM      4  C   LIG A   1      -8.561   0.333 131.820  0.00  0.00    +0.121 A 
ATOM      5  C   LIG A   1      -7.475   0.806 132.551  0.00  0.00    +0.046 A 
ATOM      6  C   LIG A   1      -7.546   2.044 133.192  0.00  0.00    +0.007 A 
ENDROOT
BRANCH   1   7
ATOM      7  C   LIG A   1      -8.758   4.159 133.805  0.00  0.00    +0.054 C 
BRANCH   7   8
ATOM      8  C   LIG A   1      -8.268   5.316 132.932  0.00  0.00    +0.109 C 
BRANCH   8  11
ATOM      9  O   LIG A   1      -8.051   6.777 130.505  0.00  0.00    -0.270 OA
ATOM     10  C   LIG A   1      -9.148   6.592 131.005  0.00  0.00    +0.244 C 
ATOM     11  N   LIG A   1      -9.364   5.896 132.173  0.00  0.00    -0.311 N 
ATOM     12  H   LIG A   1     -10.307   5.603 132.406  0.00  0.00    +0.149 HD
BRANCH  10  13
ATOM     13  C   LIG A   1     -10.390   7.119 130.336  0.00  0.00    +0.037 A 
ATOM     14  C   LIG A   1     -11.665   6.912 130.884  0.00  0.00    +0.013 A 
ATOM     15  C   LIG A   1     -12.794   7.458 130.269  0.00  0.00    +0.001 A 
ATOM     16  C   LIG A   1     -12.658   8.214 129.106  0.00  0.00    +0.000 A 
ATOM     17  C   LIG A   1     -11.395   8.424 128.554  0.00  0.00    +0.001 A 
ATOM     18  C   LIG A   1     -10.262   7.882 129.168  0.00  0.00    +0.013 A 
ENDBRANCH  10  13
ENDBRANCH   8  11
ENDBRANCH   7   8
ENDBRANCH   1   7
BRANCH   4  19
ATOM     19  O   LIG A   1      -8.575  -0.833 131.113  0.00  0.00    -0.488 OA
BRANCH  19  20
ATOM     20  C   LIG A   1      -7.323  -1.339 130.642  0.00  0.00    +0.257 C 
BRANCH  20  21
ATOM     21  C   LIG A   1      -7.340  -1.221 129.151  0.00  0.00    +0.016 C 
ATOM     22  C   LIG A   1      -7.752  -2.144 128.259  0.00  0.00    -0.033 C 
ATOM     23  C   LIG A   1      -8.426  -3.432 128.651  0.00  0.00    +0.043 C 
BRANCH  22  24
ATOM     24  C   LIG A   1      -7.470  -1.908 126.774  0.00  0.00    +0.206 C 
BRANCH  24  25
ATOM     25  O   LIG A   1      -8.555  -2.479 126.005  0.00  0.00    -0.457 OA
BRANCH  25  26
ATOM     26  C   LIG A   1      -8.183  -3.102 124.862  0.00  0.00    +0.304 C 
ATOM     27  C   LIG A   1      -9.347  -3.161 123.904  0.00  0.00    +0.136 C 
ATOM     28  O   LIG A   1      -7.079  -3.581 124.611  0.00  0.00    -0.251 OA
ENDBRANCH  25  26
ENDBRANCH  24  25
BRANCH  24  29
ATOM     29  C   LIG A   1      -7.283  -0.410 126.449  0.00  0.00    +0.076 C 
BRANCH  29  30
ATOM     30  C   LIG A   1      -8.560   0.250 125.972  0.00  0.00    -0.024 C 
ATOM     31  C   LIG A   1      -8.813   0.752 124.746  0.00  0.00    -0.080 C 
ATOM     32  C   LIG A   1      -7.836   0.766 123.603  0.00  0.00    +0.038 C 
ATOM     33  C   LIG A   1     -10.166   1.324 124.405  0.00  0.00    +0.038 C 
ENDBRANCH  29  30
ENDBRANCH  24  29
ENDBRANCH  22  24
ENDBRANCH  20  21
ENDBRANCH  19  20
ENDBRANCH   4  19
TORSDOF 12
ENDMDL
MODEL 6
REMARK VINA RESULT:      -7.9      3.883      7.087
REMARK  Name = NuBBE_978
REMARK  16 active torsions:
REMARK  status: ('A' for Active; 'I' for Inactive)
REMARK    1  A    between atoms: C_2  and  C_28
REMARK    2  A    between atoms: N_3  and  C_4
REMARK    3  A    between atoms: C_4  and  C_5
REMARK    4  A    between atoms: C_5  and  C_6
REMARK    5  A    between atoms: C_9  and  O_10
REMARK    6  A    between atoms: O_10  and  C_11
REMARK    7  A    between atoms: C_11  and  C_12
REMARK    8  A    between atoms: C_13  and  C_14
REMARK    9  A    between atoms: C_13  and  C_15
REMARK   10  A    between atoms: C_15  and  O_16
REMARK   11  A    between atoms: C_15  and  C_20
REMARK   12  A    between atoms: O_16  and  C_17
REMARK   13  A    between atoms: C_17  and  C_18
REMARK   14  A    between atoms: C_20  and  C_21
REMARK   15  A    between atoms: C_22  and  C_23
REMARK   16  A    between atoms: C_22  and  C_24
REMARK                            x       y       z     vdW  Elec       q    Type
REMARK                         _______ _______ _______ _____ _____    ______ ____
ROOT
ATOM      1  C   LIG A   1      -7.684  -2.866 128.376  0.00  0.00    -0.046 A 
ATOM      2  C   LIG A   1      -6.526  -2.201 127.955  0.00  0.00    +0.007 A 
ATOM      3  C   LIG A   1      -6.299  -1.980 126.595  0.00  0.00    +0.046 A 
ATOM      4  C   LIG A   1      -7.232  -2.398 125.643  0.00  0.00    +0.121 A 
ATOM      5  C   LIG A   1      -8.382  -3.064 126.058  0.00  0.00    +0.046 A 
ATOM      6  C   LIG A   1      -8.605  -3.299 127.415  0.00  0.00    +0.007 A 
ENDROOT
BRANCH   1   7
ATOM      7  C   LIG A   1      -7.941  -3.137 129.834  0.00  0.00    +0.054 C 
BRANCH   7   8
ATOM      8  C   LIG A   1      -6.997  -2.377 130.769  0.00  0.00    +0.109 C 
BRANCH   8  11
ATOM      9  O   LIG A   1      -5.695  -0.176 132.007  0.00  0.00    -0.270 OA
ATOM     10  C   LIG A   1      -6.908  -0.168 131.878  0.00  0.00    +0.244 C 
ATOM     11  N   LIG A   1      -7.635  -1.179 131.290  0.00  0.00    -0.311 N 
ATOM     12  H   LIG A   1      -8.600  -1.004 131.029  0.00  0.00    +0.149 HD
BRANCH  10  13
ATOM     13  C   LIG A   1      -7.718   1.008 132.356  0.00  0.00    +0.037 A 
ATOM     14  C   LIG A   1      -9.052   1.191 131.962  0.00  0.00    +0.013 A 
ATOM     15  C   LIG A   1      -9.794   2.262 132.464  0.00  0.00    +0.001 A 
ATOM     16  C   LIG A   1      -9.212   3.156 133.361  0.00  0.00    +0.000 A 
ATOM     17  C   LIG A   1      -7.885   2.983 133.756  0.00  0.00    +0.001 A 
ATOM     18  C   LIG A   1      -7.140   1.910 133.260  0.00  0.00    +0.013 A 
ENDBRANCH  10  13
ENDBRANCH   8  11
ENDBRANCH   7   8
ENDBRANCH   1   7
BRANCH   4  19
ATOM     19  O   LIG A   1      -6.892  -2.168 124.343  0.00  0.00    -0.488 OA
BRANCH  19  20
ATOM     20  C   LIG A   1      -7.850  -1.504 123.513  0.00  0.00    +0.257 C 
BRANCH  20  21
ATOM     21  C   LIG A   1      -7.559  -0.039 123.600  0.00  0.00    +0.016 C 
ATOM     22  C   LIG A   1      -8.256   0.899 124.271  0.00  0.00    -0.033 C 
ATOM     23  C   LIG A   1      -9.398   0.575 125.199  0.00  0.00    +0.043 C 
BRANCH  22  24
ATOM     24  C   LIG A   1      -7.918   2.372 124.040  0.00  0.00    +0.206 C 
BRANCH  24  25
ATOM     25  O   LIG A   1      -7.494   2.948 125.299  0.00  0.00    -0.457 OA
BRANCH  25  26
ATOM     26  C   LIG A   1      -7.742   4.272 125.438  0.00  0.00    +0.304 C 
ATOM     27  C   LIG A   1      -6.451   5.048 125.374  0.00  0.00    +0.136 C 
ATOM     28  O   LIG A   1      -8.839   4.799 125.612  0.00  0.00    -0.251 OA
ENDBRANCH  25  26
ENDBRANCH  24  25
BRANCH  24  29
ATOM     29  C   LIG A   1      -6.841   2.557 122.950  0.00  0.00    +0.076 C 
BRANCH  29  30
ATOM     30  C   LIG A   1      -7.382   3.209 121.696  0.00  0.00    -0.024 C 
ATOM     31  C   LIG A   1      -6.676   3.805 120.713  0.00  0.00    -0.080 C 
ATOM     32  C   LIG A   1      -5.178   3.950 120.695  0.00  0.00    +0.038 C 
ATOM     33  C   LIG A   1      -7.361   4.355 119.487  0.00  0.00    +0.038 C 
ENDBRANCH  29  30
ENDBRANCH  24  29
ENDBRANCH  22  24
ENDBRANCH  20  21
ENDBRANCH  19  20
ENDBRANCH   4  19
TORSDOF 12
ENDMDL
MODEL 7
REMARK VINA RESULT:      -7.9      3.710      4.489
REMARK  Name = NuBBE_978
REMARK  16 active torsions:
REMARK  status: ('A' for Active; 'I' for Inactive)
REMARK    1  A    between atoms: C_2  and  C_28
REMARK    2  A    between atoms: N_3  and  C_4
REMARK    3  A    between atoms: C_4  and  C_5
REMARK    4  A    between atoms: C_5  and  C_6
REMARK    5  A    between atoms: C_9  and  O_10
REMARK    6  A    between atoms: O_10  and  C_11
REMARK    7  A    between atoms: C_11  and  C_12
REMARK    8  A    between atoms: C_13  and  C_14
REMARK    9  A    between atoms: C_13  and  C_15
REMARK   10  A    between atoms: C_15  and  O_16
REMARK   11  A    between atoms: C_15  and  C_20
REMARK   12  A    between atoms: O_16  and  C_17
REMARK   13  A    between atoms: C_17  and  C_18
REMARK   14  A    between atoms: C_20  and  C_21
REMARK   15  A    between atoms: C_22  and  C_23
REMARK   16  A    between atoms: C_22  and  C_24
REMARK                            x       y       z     vdW  Elec       q    Type
REMARK                         _______ _______ _______ _____ _____    ______ ____
ROOT
ATOM      1  C   LIG A   1      -8.853   3.012 133.097  0.00  0.00    -0.046 A 
ATOM      2  C   LIG A   1      -9.702   2.190 132.348  0.00  0.00    +0.007 A 
ATOM      3  C   LIG A   1      -9.216   1.010 131.779  0.00  0.00    +0.046 A 
ATOM      4  C   LIG A   1      -7.886   0.627 131.969  0.00  0.00    +0.121 A 
ATOM      5  C   LIG A   1      -7.037   1.446 132.709  0.00  0.00    +0.046 A 
ATOM      6  C   LIG A   1      -7.517   2.631 133.268  0.00  0.00    +0.007 A 
ENDROOT
BRANCH   1   7
ATOM      7  C   LIG A   1      -9.347   4.299 133.702  0.00  0.00    +0.054 C 
BRANCH   7   8
ATOM      8  C   LIG A   1      -8.787   5.547 133.016  0.00  0.00    +0.109 C 
BRANCH   8  11
ATOM      9  O   LIG A   1      -8.215   6.957 130.617  0.00  0.00    -0.270 OA
ATOM     10  C   LIG A   1      -9.374   6.787 130.958  0.00  0.00    +0.244 C 
ATOM     11  N   LIG A   1      -9.760   6.116 132.097  0.00  0.00    -0.311 N 
ATOM     12  H   LIG A   1     -10.728   5.832 132.198  0.00  0.00    +0.149 HD
BRANCH  10  13
ATOM     13  C   LIG A   1     -10.503   7.306 130.108  0.00  0.00    +0.037 A 
ATOM     14  C   LIG A   1     -10.265   8.005 128.915  0.00  0.00    +0.013 A 
ATOM     15  C   LIG A   1     -11.333   8.427 128.120  0.00  0.00    +0.001 A 
ATOM     16  C   LIG A   1     -12.643   8.154 128.509  0.00  0.00    +0.000 A 
ATOM     17  C   LIG A   1     -12.889   7.462 129.695  0.00  0.00    +0.001 A 
ATOM     18  C   LIG A   1     -11.824   7.033 130.491  0.00  0.00    +0.013 A 
ENDBRANCH  10  13
ENDBRANCH   8  11
ENDBRANCH   7   8
ENDBRANCH   1   7
BRANCH   4  19
ATOM     19  O   LIG A   1      -7.506  -0.519 131.337  0.00  0.00    -0.488 OA
BRANCH  19  20
ATOM     20  C   LIG A   1      -7.679  -0.583 129.918  0.00  0.00    +0.257 C 
BRANCH  20  21
ATOM     21  C   LIG A   1      -6.823   0.493 129.328  0.00  0.00    +0.016 C 
ATOM     22  C   LIG A   1      -7.214   1.512 128.537  0.00  0.00    -0.033 C 
ATOM     23  C   LIG A   1      -8.656   1.822 128.238  0.00  0.00    +0.043 C 
BRANCH  22  24
ATOM     24  C   LIG A   1      -6.143   2.367 127.857  0.00  0.00    +0.206 C 
BRANCH  24  25
ATOM     25  O   LIG A   1      -6.718   3.657 127.540  0.00  0.00    -0.457 OA
BRANCH  25  26
ATOM     26  C   LIG A   1      -6.452   4.115 126.295  0.00  0.00    +0.304 C 
ATOM     27  C   LIG A   1      -6.182   2.958 125.366  0.00  0.00    +0.136 C 
ATOM     28  O   LIG A   1      -6.407   5.290 125.938  0.00  0.00    -0.251 OA
ENDBRANCH  25  26
ENDBRANCH  24  25
BRANCH  24  29
ATOM     29  C   LIG A   1      -4.879   2.518 128.730  0.00  0.00    +0.076 C 
BRANCH  29  30
ATOM     30  C   LIG A   1      -3.598   2.338 127.943  0.00  0.00    -0.024 C 
ATOM     31  C   LIG A   1      -2.790   3.305 127.462  0.00  0.00    -0.080 C 
ATOM     32  C   LIG A   1      -3.034   4.782 127.606  0.00  0.00    +0.038 C 
ATOM     33  C   LIG A   1      -1.506   2.961 126.748  0.00  0.00    +0.038 C 
ENDBRANCH  29  30
ENDBRANCH  24  29
ENDBRANCH  22  24
ENDBRANCH  20  21
ENDBRANCH  19  20
ENDBRANCH   4  19
TORSDOF 12
ENDMDL
MODEL 8
REMARK VINA RESULT:      -7.8      3.577      7.434
REMARK  Name = NuBBE_978
REMARK  16 active torsions:
REMARK  status: ('A' for Active; 'I' for Inactive)
REMARK    1  A    between atoms: C_2  and  C_28
REMARK    2  A    between atoms: N_3  and  C_4
REMARK    3  A    between atoms: C_4  and  C_5
REMARK    4  A    between atoms: C_5  and  C_6
REMARK    5  A    between atoms: C_9  and  O_10
REMARK    6  A    between atoms: O_10  and  C_11
REMARK    7  A    between atoms: C_11  and  C_12
REMARK    8  A    between atoms: C_13  and  C_14
REMARK    9  A    between atoms: C_13  and  C_15
REMARK   10  A    between atoms: C_15  and  O_16
REMARK   11  A    between atoms: C_15  and  C_20
REMARK   12  A    between atoms: O_16  and  C_17
REMARK   13  A    between atoms: C_17  and  C_18
REMARK   14  A    between atoms: C_20  and  C_21
REMARK   15  A    between atoms: C_22  and  C_23
REMARK   16  A    between atoms: C_22  and  C_24
REMARK                            x       y       z     vdW  Elec       q    Type
REMARK                         _______ _______ _______ _____ _____    ______ ____
ROOT
ATOM      1  C   LIG A   1      -7.924  -3.320 126.301  0.00  0.00    -0.046 A 
ATOM      2  C   LIG A   1      -6.792  -2.536 126.551  0.00  0.00    +0.007 A 
ATOM      3  C   LIG A   1      -6.478  -2.152 127.857  0.00  0.00    +0.046 A 
ATOM      4  C   LIG A   1      -7.274  -2.565 128.928  0.00  0.00    +0.121 A 
ATOM      5  C   LIG A   1      -8.404  -3.341 128.682  0.00  0.00    +0.046 A 
ATOM      6  C   LIG A   1      -8.727  -3.715 127.377  0.00  0.00    +0.007 A 
ENDROOT
BRANCH   1   7
ATOM      7  C   LIG A   1      -8.296  -3.728 124.900  0.00  0.00    +0.054 C 
BRANCH   7   8
ATOM      8  C   LIG A   1      -9.382  -2.848 124.279  0.00  0.00    +0.109 C 
BRANCH   8  11
ATOM      9  O   LIG A   1      -9.874  -0.375 125.589  0.00  0.00    -0.270 OA
ATOM     10  C   LIG A   1      -9.153  -0.407 124.605  0.00  0.00    +0.244 C 
ATOM     11  N   LIG A   1      -8.847  -1.550 123.901  0.00  0.00    -0.311 N 
ATOM     12  H   LIG A   1      -8.080  -1.530 123.238  0.00  0.00    +0.149 HD
BRANCH  10  13
ATOM     13  C   LIG A   1      -8.508   0.853 124.091  0.00  0.00    +0.037 A 
ATOM     14  C   LIG A   1      -9.061   2.118 124.342  0.00  0.00    +0.013 A 
ATOM     15  C   LIG A   1      -8.412   3.272 123.898  0.00  0.00    +0.001 A 
ATOM     16  C   LIG A   1      -7.209   3.172 123.201  0.00  0.00    +0.000 A 
ATOM     17  C   LIG A   1      -6.654   1.919 122.945  0.00  0.00    +0.001 A 
ATOM     18  C   LIG A   1      -7.297   0.761 123.392  0.00  0.00    +0.013 A 
ENDBRANCH  10  13
ENDBRANCH   8  11
ENDBRANCH   7   8
ENDBRANCH   1   7
BRANCH   4  19
ATOM     19  O   LIG A   1      -6.901  -2.101 130.154  0.00  0.00    -0.488 OA
BRANCH  19  20
ATOM     20  C   LIG A   1      -7.885  -1.412 130.932  0.00  0.00    +0.257 C 
BRANCH  20  21
ATOM     21  C   LIG A   1      -8.235  -0.165 130.183  0.00  0.00    +0.016 C 
ATOM     22  C   LIG A   1      -7.578   1.012 130.195  0.00  0.00    -0.033 C 
ATOM     23  C   LIG A   1      -6.251   1.212 130.877  0.00  0.00    +0.043 C 
BRANCH  22  24
ATOM     24  C   LIG A   1      -8.234   2.226 129.537  0.00  0.00    +0.206 C 
BRANCH  24  25
ATOM     25  O   LIG A   1      -7.444   3.399 129.848  0.00  0.00    -0.457 OA
BRANCH  25  26
ATOM     26  C   LIG A   1      -8.145   4.553 129.952  0.00  0.00    +0.304 C 
ATOM     27  C   LIG A   1      -8.732   4.676 131.336  0.00  0.00    +0.136 C 
ATOM     28  O   LIG A   1      -8.316   5.391 129.070  0.00  0.00    -0.251 OA
ENDBRANCH  25  26
ENDBRANCH  24  25
BRANCH  24  29
ATOM     29  C   LIG A   1      -8.392   2.047 128.012  0.00  0.00    +0.076 C 
BRANCH  29  30
ATOM     30  C   LIG A   1      -7.178   1.412 127.368  0.00  0.00    -0.024 C 
ATOM     31  C   LIG A   1      -6.122   2.041 126.814  0.00  0.00    -0.080 C 
ATOM     32  C   LIG A   1      -5.964   3.534 126.714  0.00  0.00    +0.038 C 
ATOM     33  C   LIG A   1      -4.952   1.262 126.267  0.00  0.00    +0.038 C 
ENDBRANCH  29  30
ENDBRANCH  24  29
ENDBRANCH  22  24
ENDBRANCH  20  21
ENDBRANCH  19  20
ENDBRANCH   4  19
TORSDOF 12
ENDMDL
MODEL 9
REMARK VINA RESULT:      -7.8      1.489      1.984
REMARK  Name = NuBBE_978
REMARK  16 active torsions:
REMARK  status: ('A' for Active; 'I' for Inactive)
REMARK    1  A    between atoms: C_2  and  C_28
REMARK    2  A    between atoms: N_3  and  C_4
REMARK    3  A    between atoms: C_4  and  C_5
REMARK    4  A    between atoms: C_5  and  C_6
REMARK    5  A    between atoms: C_9  and  O_10
REMARK    6  A    between atoms: O_10  and  C_11
REMARK    7  A    between atoms: C_11  and  C_12
REMARK    8  A    between atoms: C_13  and  C_14
REMARK    9  A    between atoms: C_13  and  C_15
REMARK   10  A    between atoms: C_15  and  O_16
REMARK   11  A    between atoms: C_15  and  C_20
REMARK   12  A    between atoms: O_16  and  C_17
REMARK   13  A    between atoms: C_17  and  C_18
REMARK   14  A    between atoms: C_20  and  C_21
REMARK   15  A    between atoms: C_22  and  C_23
REMARK   16  A    between atoms: C_22  and  C_24
REMARK                            x       y       z     vdW  Elec       q    Type
REMARK                         _______ _______ _______ _____ _____    ______ ____
ROOT
ATOM      1  C   LIG A   1      -8.997   3.245 132.657  0.00  0.00    -0.046 A 
ATOM      2  C   LIG A   1      -9.452   3.001 131.356  0.00  0.00    +0.007 A 
ATOM      3  C   LIG A   1      -8.901   1.962 130.602  0.00  0.00    +0.046 A 
ATOM      4  C   LIG A   1      -7.909   1.141 131.145  0.00  0.00    +0.121 A 
ATOM      5  C   LIG A   1      -7.451   1.384 132.437  0.00  0.00    +0.046 A 
ATOM      6  C   LIG A   1      -7.990   2.431 133.187  0.00  0.00    +0.007 A 
ENDROOT
BRANCH   1   7
ATOM      7  C   LIG A   1      -9.559   4.373 133.481  0.00  0.00    +0.054 C 
BRANCH   7   8
ATOM      8  C   LIG A   1      -9.113   5.756 133.002  0.00  0.00    +0.109 C 
BRANCH   8  11
ATOM      9  O   LIG A   1      -8.489   6.794 130.432  0.00  0.00    -0.270 OA
ATOM     10  C   LIG A   1      -9.646   6.785 130.817  0.00  0.00    +0.244 C 
ATOM     11  N   LIG A   1     -10.056   6.302 132.040  0.00  0.00    -0.311 N 
ATOM     12  H   LIG A   1     -11.044   6.132 132.197  0.00  0.00    +0.149 HD
BRANCH  10  13
ATOM     13  C   LIG A   1     -10.748   7.306 129.933  0.00  0.00    +0.037 A 
ATOM     14  C   LIG A   1     -10.472   8.027 128.761  0.00  0.00    +0.013 A 
ATOM     15  C   LIG A   1     -11.514   8.451 127.933  0.00  0.00    +0.001 A 
ATOM     16  C   LIG A   1     -12.835   8.159 128.268  0.00  0.00    +0.000 A 
ATOM     17  C   LIG A   1     -13.118   7.445 129.432  0.00  0.00    +0.001 A 
ATOM     18  C   LIG A   1     -12.079   7.015 130.261  0.00  0.00    +0.013 A 
ENDBRANCH  10  13
ENDBRANCH   8  11
ENDBRANCH   7   8
ENDBRANCH   1   7
BRANCH   4  19
ATOM     19  O   LIG A   1      -7.414   0.184 130.310  0.00  0.00    -0.488 OA
BRANCH  19  20
ATOM     20  C   LIG A   1      -6.212   0.485 129.594  0.00  0.00    +0.257 C 
BRANCH  20  21
ATOM     21  C   LIG A   1      -6.204  -0.383 128.376  0.00  0.00    +0.016 C 
ATOM     22  C   LIG A   1      -7.101  -0.395 127.370  0.00  0.00    -0.033 C 
ATOM     23  C   LIG A   1      -8.214   0.610 127.242  0.00  0.00    +0.043 C 
BRANCH  22  24
ATOM     24  C   LIG A   1      -7.030  -1.520 126.336  0.00  0.00    +0.206 C 
BRANCH  24  25
ATOM     25  O   LIG A   1      -8.214  -1.454 125.505  0.00  0.00    -0.457 OA
BRANCH  25  26
ATOM     26  C   LIG A   1      -8.961  -2.582 125.479  0.00  0.00    +0.304 C 
ATOM     27  C   LIG A   1      -9.159  -3.038 124.055  0.00  0.00    +0.136 C 
ATOM     28  O   LIG A   1      -9.442  -3.168 126.447  0.00  0.00    -0.251 OA
ENDBRANCH  25  26
ENDBRANCH  24  25
BRANCH  24  29
ATOM     29  C   LIG A   1      -5.745  -1.445 125.483  0.00  0.00    +0.076 C 
BRANCH  29  30
ATOM     30  C   LIG A   1      -5.220  -2.810 125.093  0.00  0.00    -0.024 C 
ATOM     31  C   LIG A   1      -5.142  -3.333 123.852  0.00  0.00    -0.080 C 
ATOM     32  C   LIG A   1      -5.596  -2.640 122.596  0.00  0.00    +0.038 C 
ATOM     33  C   LIG A   1      -4.531  -4.692 123.618  0.00  0.00    +0.038 C 
ENDBRANCH  29  30
ENDBRANCH  24  29
ENDBRANCH  22  24
ENDBRANCH  20  21
ENDBRANCH  19  20
ENDBRANCH   4  19
TORSDOF 12
ENDMDL
