MODEL 1
REMARK VINA RESULT:      -8.7      0.000      0.000
REMARK  Name = NuBBE_1825
REMARK  9 active torsions:
REMARK  status: ('A' for Active; 'I' for Inactive)
REMARK    1  A    between atoms: C_5  and  O_6
REMARK    2  A    between atoms: C_7  and  C_8
REMARK    3  A    between atoms: C_8  and  C_9
REMARK    4  A    between atoms: C_10  and  C_11
REMARK    5  A    between atoms: C_10  and  C_12
REMARK    6  A    between atoms: C_13  and  O_14
REMARK    7  A    between atoms: O_14  and  C_15
REMARK    8  A    between atoms: C_19  and  C_20
REMARK    9  A    between atoms: C_19  and  C_21
REMARK                            x       y       z     vdW  Elec       q    Type
REMARK                         _______ _______ _______ _____ _____    ______ ____
ROOT
ATOM      1  O   LIG A   1      -8.714   2.960 125.894  0.00  0.00    -0.292 OA
ATOM      2  C   LIG A   1      -8.136   2.554 124.883  0.00  0.00    +0.174 C 
ATOM      3  C   LIG A   1      -7.484   3.479 123.899  0.00  0.00    +0.132 C 
ATOM      4  C   LIG A   1      -8.008   1.107 124.646  0.00  0.00    +0.101 A 
ATOM      5  C   LIG A   1      -8.508   0.157 125.548  0.00  0.00    +0.138 A 
ATOM      6  C   LIG A   1      -8.366  -1.218 125.295  0.00  0.00    +0.040 A 
ATOM      7  C   LIG A   1      -7.662  -1.623 124.143  0.00  0.00    +0.131 A 
ATOM      8  C   LIG A   1      -7.176  -0.667 123.243  0.00  0.00    +0.092 A 
ATOM      9  C   LIG A   1      -7.368   0.693 123.484  0.00  0.00    +0.139 A 
ATOM     10  O   LIG A   1      -6.897   1.543 122.526  0.00  0.00    -0.480 OA
ATOM     11  C   LIG A   1      -7.474   2.867 122.492  0.00  0.00    +0.140 C 
ATOM     12  C   LIG A   1      -8.889   2.768 121.879  0.00  0.00    +0.061 C 
ENDROOT
BRANCH  11  13
ATOM     13  C   LIG A   1      -6.608   3.740 121.560  0.00  0.00    -0.004 A 
ATOM     14  C   LIG A   1      -5.383   4.278 122.004  0.00  0.00    +0.007 A 
ATOM     15  C   LIG A   1      -4.610   5.097 121.176  0.00  0.00    +0.000 A 
ATOM     16  C   LIG A   1      -5.041   5.394 119.888  0.00  0.00    +0.000 A 
ATOM     17  C   LIG A   1      -6.241   4.867 119.422  0.00  0.00    +0.000 A 
ATOM     18  C   LIG A   1      -7.016   4.048 120.248  0.00  0.00    +0.007 A 
ENDBRANCH  11  13
BRANCH   5  19
ATOM     19  O   LIG A   1      -9.156   0.536 126.699  0.00  0.00    -0.505 OA
ATOM     20  H   LIG A   1      -9.707  -0.216 127.012  0.00  0.00    +0.292 HD
ENDBRANCH   5  19
BRANCH   7  21
ATOM     21  O   LIG A   1      -7.552  -2.974 123.925  0.00  0.00    -0.495 OA
ATOM     22  C   LIG A   1      -6.242  -3.516 124.042  0.00  0.00    +0.277 C 
ENDBRANCH   7  21
BRANCH   6  23
ATOM     23  C   LIG A   1      -8.946  -2.243 126.251  0.00  0.00    +0.069 C 
BRANCH  23  24
ATOM     24  C   LIG A   1      -8.029  -2.564 127.404  0.00  0.00    -0.023 C 
ATOM     25  C   LIG A   1      -8.245  -3.422 128.421  0.00  0.00    -0.079 C 
ATOM     26  C   LIG A   1      -9.484  -4.256 128.599  0.00  0.00    +0.038 C 
ATOM     27  C   LIG A   1      -7.216  -3.612 129.504  0.00  0.00    +0.038 C 
ENDBRANCH  23  24
ENDBRANCH   6  23
TORSDOF 5
ENDMDL
MODEL 2
REMARK VINA RESULT:      -8.1      1.933      2.305
REMARK  Name = NuBBE_1825
REMARK  9 active torsions:
REMARK  status: ('A' for Active; 'I' for Inactive)
REMARK    1  A    between atoms: C_5  and  O_6
REMARK    2  A    between atoms: C_7  and  C_8
REMARK    3  A    between atoms: C_8  and  C_9
REMARK    4  A    between atoms: C_10  and  C_11
REMARK    5  A    between atoms: C_10  and  C_12
REMARK    6  A    between atoms: C_13  and  O_14
REMARK    7  A    between atoms: O_14  and  C_15
REMARK    8  A    between atoms: C_19  and  C_20
REMARK    9  A    between atoms: C_19  and  C_21
REMARK                            x       y       z     vdW  Elec       q    Type
REMARK                         _______ _______ _______ _____ _____    ______ ____
ROOT
ATOM      1  O   LIG A   1      -5.903   2.988 126.608  0.00  0.00    -0.292 OA
ATOM      2  C   LIG A   1      -6.186   2.459 125.531  0.00  0.00    +0.174 C 
ATOM      3  C   LIG A   1      -6.249   3.228 124.244  0.00  0.00    +0.132 C 
ATOM      4  C   LIG A   1      -6.408   1.006 125.466  0.00  0.00    +0.101 A 
ATOM      5  C   LIG A   1      -6.289   0.183 126.596  0.00  0.00    +0.138 A 
ATOM      6  C   LIG A   1      -6.504  -1.203 126.501  0.00  0.00    +0.040 A 
ATOM      7  C   LIG A   1      -6.786  -1.756 125.235  0.00  0.00    +0.131 A 
ATOM      8  C   LIG A   1      -6.913  -0.926 124.116  0.00  0.00    +0.092 A 
ATOM      9  C   LIG A   1      -6.746   0.453 124.237  0.00  0.00    +0.139 A 
ATOM     10  O   LIG A   1      -6.934   1.181 123.097  0.00  0.00    -0.480 OA
ATOM     11  C   LIG A   1      -7.239   2.583 123.265  0.00  0.00    +0.140 C 
ATOM     12  C   LIG A   1      -8.706   2.713 123.734  0.00  0.00    +0.061 C 
ENDROOT
BRANCH  11  13
ATOM     13  C   LIG A   1      -7.114   3.266 121.887  0.00  0.00    -0.004 A 
ATOM     14  C   LIG A   1      -5.860   3.689 121.400  0.00  0.00    +0.007 A 
ATOM     15  C   LIG A   1      -5.745   4.338 120.167  0.00  0.00    +0.000 A 
ATOM     16  C   LIG A   1      -6.876   4.576 119.394  0.00  0.00    +0.000 A 
ATOM     17  C   LIG A   1      -8.123   4.159 119.848  0.00  0.00    +0.000 A 
ATOM     18  C   LIG A   1      -8.241   3.510 121.080  0.00  0.00    +0.007 A 
ENDBRANCH  11  13
BRANCH   5  19
ATOM     19  O   LIG A   1      -5.969   0.701 127.827  0.00  0.00    -0.505 OA
ATOM     20  H   LIG A   1      -5.002   0.597 127.971  0.00  0.00    +0.292 HD
ENDBRANCH   5  19
BRANCH   7  21
ATOM     21  O   LIG A   1      -6.999  -3.111 125.184  0.00  0.00    -0.495 OA
ATOM     22  C   LIG A   1      -8.302  -3.520 124.783  0.00  0.00    +0.277 C 
ENDBRANCH   7  21
BRANCH   6  23
ATOM     23  C   LIG A   1      -6.417  -2.084 127.732  0.00  0.00    +0.069 C 
BRANCH  23  24
ATOM     24  C   LIG A   1      -5.010  -2.526 128.047  0.00  0.00    -0.023 C 
ATOM     25  C   LIG A   1      -4.588  -3.262 129.094  0.00  0.00    -0.079 C 
ATOM     26  C   LIG A   1      -5.474  -3.807 130.181  0.00  0.00    +0.038 C 
ATOM     27  C   LIG A   1      -3.131  -3.604 129.261  0.00  0.00    +0.038 C 
ENDBRANCH  23  24
ENDBRANCH   6  23
TORSDOF 5
ENDMDL
MODEL 3
REMARK VINA RESULT:      -7.9      4.800      6.324
REMARK  Name = NuBBE_1825
REMARK  9 active torsions:
REMARK  status: ('A' for Active; 'I' for Inactive)
REMARK    1  A    between atoms: C_5  and  O_6
REMARK    2  A    between atoms: C_7  and  C_8
REMARK    3  A    between atoms: C_8  and  C_9
REMARK    4  A    between atoms: C_10  and  C_11
REMARK    5  A    between atoms: C_10  and  C_12
REMARK    6  A    between atoms: C_13  and  O_14
REMARK    7  A    between atoms: O_14  and  C_15
REMARK    8  A    between atoms: C_19  and  C_20
REMARK    9  A    between atoms: C_19  and  C_21
REMARK                            x       y       z     vdW  Elec       q    Type
REMARK                         _______ _______ _______ _____ _____    ______ ____
ROOT
ATOM      1  O   LIG A   1      -5.593   3.247 124.614  0.00  0.00    -0.292 OA
ATOM      2  C   LIG A   1      -5.183   3.027 125.756  0.00  0.00    +0.174 C 
ATOM      3  C   LIG A   1      -4.548   4.088 126.606  0.00  0.00    +0.132 C 
ATOM      4  C   LIG A   1      -5.375   1.698 126.357  0.00  0.00    +0.101 A 
ATOM      5  C   LIG A   1      -6.033   0.661 125.679  0.00  0.00    +0.138 A 
ATOM      6  C   LIG A   1      -6.204  -0.597 126.282  0.00  0.00    +0.040 A 
ATOM      7  C   LIG A   1      -5.749  -0.778 127.604  0.00  0.00    +0.131 A 
ATOM      8  C   LIG A   1      -5.084   0.258 128.269  0.00  0.00    +0.092 A 
ATOM      9  C   LIG A   1      -4.880   1.485 127.638  0.00  0.00    +0.139 A 
ATOM     10  O   LIG A   1      -4.182   2.416 128.352  0.00  0.00    -0.480 OA
ATOM     11  C   LIG A   1      -3.551   3.474 127.598  0.00  0.00    +0.140 C 
ATOM     12  C   LIG A   1      -2.299   2.898 126.899  0.00  0.00    +0.061 C 
ENDROOT
BRANCH  11  13
ATOM     13  C   LIG A   1      -3.087   4.557 128.594  0.00  0.00    -0.004 A 
ATOM     14  C   LIG A   1      -2.485   5.748 128.139  0.00  0.00    +0.007 A 
ATOM     15  C   LIG A   1      -2.032   6.719 129.037  0.00  0.00    +0.000 A 
ATOM     16  C   LIG A   1      -2.172   6.523 130.407  0.00  0.00    +0.000 A 
ATOM     17  C   LIG A   1      -2.772   5.360 130.881  0.00  0.00    +0.000 A 
ATOM     18  C   LIG A   1      -3.225   4.389 129.984  0.00  0.00    +0.007 A 
ENDBRANCH  11  13
BRANCH   5  19
ATOM     19  O   LIG A   1      -6.523   0.837 124.408  0.00  0.00    -0.505 OA
ATOM     20  H   LIG A   1      -5.888   1.388 123.898  0.00  0.00    +0.292 HD
ENDBRANCH   5  19
BRANCH   7  21
ATOM     21  O   LIG A   1      -5.926  -2.023 128.155  0.00  0.00    -0.495 OA
ATOM     22  C   LIG A   1      -4.754  -2.644 128.672  0.00  0.00    +0.277 C 
ENDBRANCH   7  21
BRANCH   6  23
ATOM     23  C   LIG A   1      -6.877  -1.729 125.530  0.00  0.00    +0.069 C 
BRANCH  23  24
ATOM     24  C   LIG A   1      -5.904  -2.761 125.017  0.00  0.00    -0.023 C 
ATOM     25  C   LIG A   1      -5.489  -2.950 123.749  0.00  0.00    -0.079 C 
ATOM     26  C   LIG A   1      -5.928  -2.133 122.565  0.00  0.00    +0.038 C 
ATOM     27  C   LIG A   1      -4.514  -4.046 123.410  0.00  0.00    +0.038 C 
ENDBRANCH  23  24
ENDBRANCH   6  23
TORSDOF 5
ENDMDL
MODEL 4
REMARK VINA RESULT:      -7.8      8.915     11.138
REMARK  Name = NuBBE_1825
REMARK  9 active torsions:
REMARK  status: ('A' for Active; 'I' for Inactive)
REMARK    1  A    between atoms: C_5  and  O_6
REMARK    2  A    between atoms: C_7  and  C_8
REMARK    3  A    between atoms: C_8  and  C_9
REMARK    4  A    between atoms: C_10  and  C_11
REMARK    5  A    between atoms: C_10  and  C_12
REMARK    6  A    between atoms: C_13  and  O_14
REMARK    7  A    between atoms: O_14  and  C_15
REMARK    8  A    between atoms: C_19  and  C_20
REMARK    9  A    between atoms: C_19  and  C_21
REMARK                            x       y       z     vdW  Elec       q    Type
REMARK                         _______ _______ _______ _____ _____    ______ ____
ROOT
ATOM      1  O   LIG A   1      -8.279   5.052 133.932  0.00  0.00    -0.292 OA
ATOM      2  C   LIG A   1      -8.236   5.733 132.905  0.00  0.00    +0.174 C 
ATOM      3  C   LIG A   1      -9.470   6.250 132.226  0.00  0.00    +0.132 C 
ATOM      4  C   LIG A   1      -6.935   6.124 132.341  0.00  0.00    +0.101 A 
ATOM      5  C   LIG A   1      -5.722   5.764 132.946  0.00  0.00    +0.138 A 
ATOM      6  C   LIG A   1      -4.495   6.156 132.385  0.00  0.00    +0.040 A 
ATOM      7  C   LIG A   1      -4.509   6.967 131.231  0.00  0.00    +0.131 A 
ATOM      8  C   LIG A   1      -5.724   7.312 130.628  0.00  0.00    +0.092 A 
ATOM      9  C   LIG A   1      -6.931   6.873 131.170  0.00  0.00    +0.139 A 
ATOM     10  O   LIG A   1      -8.058   7.224 130.484  0.00  0.00    -0.480 OA
ATOM     11  C   LIG A   1      -9.237   6.424 130.720  0.00  0.00    +0.140 C 
ATOM     12  C   LIG A   1      -9.068   5.074 129.987  0.00  0.00    +0.061 C 
ENDROOT
BRANCH  11  13
ATOM     13  C   LIG A   1     -10.443   7.159 130.097  0.00  0.00    -0.004 A 
ATOM     14  C   LIG A   1     -10.304   7.895 128.903  0.00  0.00    +0.007 A 
ATOM     15  C   LIG A   1     -11.383   8.590 128.351  0.00  0.00    +0.000 A 
ATOM     16  C   LIG A   1     -12.625   8.565 128.978  0.00  0.00    +0.000 A 
ATOM     17  C   LIG A   1     -12.791   7.837 130.152  0.00  0.00    +0.000 A 
ATOM     18  C   LIG A   1     -11.712   7.142 130.705  0.00  0.00    +0.007 A 
ENDBRANCH  11  13
BRANCH   5  19
ATOM     19  O   LIG A   1      -5.692   5.014 134.097  0.00  0.00    -0.505 OA
ATOM     20  H   LIG A   1      -5.418   4.098 133.869  0.00  0.00    +0.292 HD
ENDBRANCH   5  19
BRANCH   7  21
ATOM     21  O   LIG A   1      -3.291   7.322 130.708  0.00  0.00    -0.495 OA
ATOM     22  C   LIG A   1      -3.186   7.267 129.289  0.00  0.00    +0.277 C 
ENDBRANCH   7  21
BRANCH   6  23
ATOM     23  C   LIG A   1      -3.184   5.729 133.017  0.00  0.00    +0.069 C 
BRANCH  23  24
ATOM     24  C   LIG A   1      -2.605   6.770 133.942  0.00  0.00    -0.023 C 
ATOM     25  C   LIG A   1      -1.403   7.375 133.860  0.00  0.00    -0.079 C 
ATOM     26  C   LIG A   1      -0.379   7.120 132.788  0.00  0.00    +0.038 C 
ATOM     27  C   LIG A   1      -0.978   8.392 134.886  0.00  0.00    +0.038 C 
ENDBRANCH  23  24
ENDBRANCH   6  23
TORSDOF 5
ENDMDL
MODEL 5
REMARK VINA RESULT:      -7.8      4.416      6.067
REMARK  Name = NuBBE_1825
REMARK  9 active torsions:
REMARK  status: ('A' for Active; 'I' for Inactive)
REMARK    1  A    between atoms: C_5  and  O_6
REMARK    2  A    between atoms: C_7  and  C_8
REMARK    3  A    between atoms: C_8  and  C_9
REMARK    4  A    between atoms: C_10  and  C_11
REMARK    5  A    between atoms: C_10  and  C_12
REMARK    6  A    between atoms: C_13  and  O_14
REMARK    7  A    between atoms: O_14  and  C_15
REMARK    8  A    between atoms: C_19  and  C_20
REMARK    9  A    between atoms: C_19  and  C_21
REMARK                            x       y       z     vdW  Elec       q    Type
REMARK                         _______ _______ _______ _____ _____    ______ ____
ROOT
ATOM      1  O   LIG A   1      -8.537   3.372 126.975  0.00  0.00    -0.292 OA
ATOM      2  C   LIG A   1      -7.690   3.478 126.085  0.00  0.00    +0.174 C 
ATOM      3  C   LIG A   1      -8.054   3.626 124.637  0.00  0.00    +0.132 C 
ATOM      4  C   LIG A   1      -6.263   3.532 126.437  0.00  0.00    +0.101 A 
ATOM      5  C   LIG A   1      -5.821   3.487 127.767  0.00  0.00    +0.138 A 
ATOM      6  C   LIG A   1      -4.450   3.545 128.071  0.00  0.00    +0.040 A 
ATOM      7  C   LIG A   1      -3.531   3.705 127.014  0.00  0.00    +0.131 A 
ATOM      8  C   LIG A   1      -3.980   3.738 125.689  0.00  0.00    +0.092 A 
ATOM      9  C   LIG A   1      -5.341   3.630 125.401  0.00  0.00    +0.139 A 
ATOM     10  O   LIG A   1      -5.674   3.627 124.078  0.00  0.00    -0.480 OA
ATOM     11  C   LIG A   1      -6.955   3.055 123.732  0.00  0.00    +0.140 C 
ATOM     12  C   LIG A   1      -6.846   1.516 123.831  0.00  0.00    +0.061 C 
ENDROOT
BRANCH  11  13
ATOM     13  C   LIG A   1      -7.258   3.420 122.264  0.00  0.00    -0.004 A 
ATOM     14  C   LIG A   1      -6.226   3.811 121.387  0.00  0.00    +0.007 A 
ATOM     15  C   LIG A   1      -6.499   4.175 120.066  0.00  0.00    +0.000 A 
ATOM     16  C   LIG A   1      -7.806   4.156 119.591  0.00  0.00    +0.000 A 
ATOM     17  C   LIG A   1      -8.841   3.765 120.433  0.00  0.00    +0.000 A 
ATOM     18  C   LIG A   1      -8.570   3.400 121.755  0.00  0.00    +0.007 A 
ENDBRANCH  11  13
BRANCH   5  19
ATOM     19  O   LIG A   1      -6.707   3.379 128.811  0.00  0.00    -0.505 OA
ATOM     20  H   LIG A   1      -7.194   2.529 128.724  0.00  0.00    +0.292 HD
ENDBRANCH   5  19
BRANCH   7  21
ATOM     21  O   LIG A   1      -2.201   3.748 127.350  0.00  0.00    -0.495 OA
ATOM     22  C   LIG A   1      -1.335   2.942 126.558  0.00  0.00    +0.277 C 
ENDBRANCH   7  21
BRANCH   6  23
ATOM     23  C   LIG A   1      -3.972   3.453 129.507  0.00  0.00    +0.069 C 
BRANCH  23  24
ATOM     24  C   LIG A   1      -4.307   4.677 130.323  0.00  0.00    -0.023 C 
ATOM     25  C   LIG A   1      -3.589   5.810 130.449  0.00  0.00    -0.079 C 
ATOM     26  C   LIG A   1      -2.274   6.080 129.771  0.00  0.00    +0.038 C 
ATOM     27  C   LIG A   1      -4.071   6.938 131.323  0.00  0.00    +0.038 C 
ENDBRANCH  23  24
ENDBRANCH   6  23
TORSDOF 5
ENDMDL
MODEL 6
REMARK VINA RESULT:      -7.7      1.443      8.357
REMARK  Name = NuBBE_1825
REMARK  9 active torsions:
REMARK  status: ('A' for Active; 'I' for Inactive)
REMARK    1  A    between atoms: C_5  and  O_6
REMARK    2  A    between atoms: C_7  and  C_8
REMARK    3  A    between atoms: C_8  and  C_9
REMARK    4  A    between atoms: C_10  and  C_11
REMARK    5  A    between atoms: C_10  and  C_12
REMARK    6  A    between atoms: C_13  and  O_14
REMARK    7  A    between atoms: O_14  and  C_15
REMARK    8  A    between atoms: C_19  and  C_20
REMARK    9  A    between atoms: C_19  and  C_21
REMARK                            x       y       z     vdW  Elec       q    Type
REMARK                         _______ _______ _______ _____ _____    ______ ____
ROOT
ATOM      1  O   LIG A   1      -5.909  -1.985 123.779  0.00  0.00    -0.292 OA
ATOM      2  C   LIG A   1      -6.318  -1.530 124.849  0.00  0.00    +0.174 C 
ATOM      3  C   LIG A   1      -6.112  -2.233 126.159  0.00  0.00    +0.132 C 
ATOM      4  C   LIG A   1      -6.977  -0.215 124.880  0.00  0.00    +0.101 A 
ATOM      5  C   LIG A   1      -7.144   0.561 123.724  0.00  0.00    +0.138 A 
ATOM      6  C   LIG A   1      -7.775   1.816 123.787  0.00  0.00    +0.040 A 
ATOM      7  C   LIG A   1      -8.187   2.302 125.045  0.00  0.00    +0.131 A 
ATOM      8  C   LIG A   1      -8.026   1.515 126.191  0.00  0.00    +0.092 A 
ATOM      9  C   LIG A   1      -7.442   0.251 126.104  0.00  0.00    +0.139 A 
ATOM     10  O   LIG A   1      -7.371  -0.456 127.269  0.00  0.00    -0.480 OA
ATOM     11  C   LIG A   1      -7.230  -1.889 127.151  0.00  0.00    +0.140 C 
ATOM     12  C   LIG A   1      -8.595  -2.483 126.734  0.00  0.00    +0.061 C 
ENDROOT
BRANCH  11  13
ATOM     13  C   LIG A   1      -6.870  -2.448 128.543  0.00  0.00    -0.004 A 
ATOM     14  C   LIG A   1      -7.877  -2.793 129.467  0.00  0.00    +0.007 A 
ATOM     15  C   LIG A   1      -7.557  -3.269 130.742  0.00  0.00    +0.000 A 
ATOM     16  C   LIG A   1      -6.227  -3.411 131.121  0.00  0.00    +0.000 A 
ATOM     17  C   LIG A   1      -5.214  -3.087 130.224  0.00  0.00    +0.000 A 
ATOM     18  C   LIG A   1      -5.532  -2.611 128.949  0.00  0.00    +0.007 A 
ENDBRANCH  11  13
BRANCH   5  19
ATOM     19  O   LIG A   1      -6.706   0.123 122.499  0.00  0.00    -0.505 OA
ATOM     20  H   LIG A   1      -7.219   0.583 121.798  0.00  0.00    +0.292 HD
ENDBRANCH   5  19
BRANCH   7  21
ATOM     21  O   LIG A   1      -8.807   3.527 125.064  0.00  0.00    -0.495 OA
ATOM     22  C   LIG A   1      -8.079   4.580 125.686  0.00  0.00    +0.277 C 
ENDBRANCH   7  21
BRANCH   6  23
ATOM     23  C   LIG A   1      -7.992   2.635 122.529  0.00  0.00    +0.069 C 
BRANCH  23  24
ATOM     24  C   LIG A   1      -6.747   3.344 122.060  0.00  0.00    -0.023 C 
ATOM     25  C   LIG A   1      -6.549   3.986 120.892  0.00  0.00    -0.079 C 
ATOM     26  C   LIG A   1      -7.573   4.128 119.799  0.00  0.00    +0.038 C 
ATOM     27  C   LIG A   1      -5.226   4.634 120.580  0.00  0.00    +0.038 C 
ENDBRANCH  23  24
ENDBRANCH   6  23
TORSDOF 5
ENDMDL
MODEL 7
REMARK VINA RESULT:      -7.6      2.551      3.557
REMARK  Name = NuBBE_1825
REMARK  9 active torsions:
REMARK  status: ('A' for Active; 'I' for Inactive)
REMARK    1  A    between atoms: C_5  and  O_6
REMARK    2  A    between atoms: C_7  and  C_8
REMARK    3  A    between atoms: C_8  and  C_9
REMARK    4  A    between atoms: C_10  and  C_11
REMARK    5  A    between atoms: C_10  and  C_12
REMARK    6  A    between atoms: C_13  and  O_14
REMARK    7  A    between atoms: O_14  and  C_15
REMARK    8  A    between atoms: C_19  and  C_20
REMARK    9  A    between atoms: C_19  and  C_21
REMARK                            x       y       z     vdW  Elec       q    Type
REMARK                         _______ _______ _______ _____ _____    ______ ____
ROOT
ATOM      1  O   LIG A   1      -9.762   2.259 124.813  0.00  0.00    -0.292 OA
ATOM      2  C   LIG A   1      -8.616   2.610 124.524  0.00  0.00    +0.174 C 
ATOM      3  C   LIG A   1      -8.268   3.220 123.199  0.00  0.00    +0.132 C 
ATOM      4  C   LIG A   1      -7.544   2.500 125.525  0.00  0.00    +0.101 A 
ATOM      5  C   LIG A   1      -7.782   2.023 126.822  0.00  0.00    +0.138 A 
ATOM      6  C   LIG A   1      -6.736   1.933 127.758  0.00  0.00    +0.040 A 
ATOM      7  C   LIG A   1      -5.455   2.386 127.383  0.00  0.00    +0.131 A 
ATOM      8  C   LIG A   1      -5.225   2.851 126.083  0.00  0.00    +0.092 A 
ATOM      9  C   LIG A   1      -6.263   2.887 125.152  0.00  0.00    +0.139 A 
ATOM     10  O   LIG A   1      -5.928   3.314 123.899  0.00  0.00    -0.480 OA
ATOM     11  C   LIG A   1      -6.810   2.926 122.823  0.00  0.00    +0.140 C 
ATOM     12  C   LIG A   1      -6.570   1.432 122.508  0.00  0.00    +0.061 C 
ENDROOT
BRANCH  11  13
ATOM     13  C   LIG A   1      -6.427   3.746 121.574  0.00  0.00    -0.004 A 
ATOM     14  C   LIG A   1      -7.300   3.835 120.471  0.00  0.00    +0.007 A 
ATOM     15  C   LIG A   1      -6.945   4.549 119.323  0.00  0.00    +0.000 A 
ATOM     16  C   LIG A   1      -5.713   5.190 119.251  0.00  0.00    +0.000 A 
ATOM     17  C   LIG A   1      -4.838   5.127 120.331  0.00  0.00    +0.000 A 
ATOM     18  C   LIG A   1      -5.191   4.413 121.480  0.00  0.00    +0.007 A 
ENDBRANCH  11  13
BRANCH   5  19
ATOM     19  O   LIG A   1      -9.034   1.621 127.218  0.00  0.00    -0.505 OA
ATOM     20  H   LIG A   1      -9.703   2.177 126.760  0.00  0.00    +0.292 HD
ENDBRANCH   5  19
BRANCH   7  21
ATOM     21  O   LIG A   1      -4.459   2.274 128.320  0.00  0.00    -0.495 OA
ATOM     22  C   LIG A   1      -3.262   2.993 128.042  0.00  0.00    +0.277 C 
ENDBRANCH   7  21
BRANCH   6  23
ATOM     23  C   LIG A   1      -6.987   1.376 129.146  0.00  0.00    +0.069 C 
BRANCH  23  24
ATOM     24  C   LIG A   1      -7.120  -0.126 129.166  0.00  0.00    -0.023 C 
ATOM     25  C   LIG A   1      -7.788  -0.887 130.056  0.00  0.00    -0.079 C 
ATOM     26  C   LIG A   1      -8.559  -0.361 131.236  0.00  0.00    +0.038 C 
ATOM     27  C   LIG A   1      -7.806  -2.387 129.931  0.00  0.00    +0.038 C 
ENDBRANCH  23  24
ENDBRANCH   6  23
TORSDOF 5
ENDMDL
MODEL 8
REMARK VINA RESULT:      -7.5      4.488     10.183
REMARK  Name = NuBBE_1825
REMARK  9 active torsions:
REMARK  status: ('A' for Active; 'I' for Inactive)
REMARK    1  A    between atoms: C_5  and  O_6
REMARK    2  A    between atoms: C_7  and  C_8
REMARK    3  A    between atoms: C_8  and  C_9
REMARK    4  A    between atoms: C_10  and  C_11
REMARK    5  A    between atoms: C_10  and  C_12
REMARK    6  A    between atoms: C_13  and  O_14
REMARK    7  A    between atoms: O_14  and  C_15
REMARK    8  A    between atoms: C_19  and  C_20
REMARK    9  A    between atoms: C_19  and  C_21
REMARK                            x       y       z     vdW  Elec       q    Type
REMARK                         _______ _______ _______ _____ _____    ______ ____
ROOT
ATOM      1  O   LIG A   1      -3.962  -1.163 130.738  0.00  0.00    -0.292 OA
ATOM      2  C   LIG A   1      -4.998  -1.813 130.897  0.00  0.00    +0.174 C 
ATOM      3  C   LIG A   1      -5.378  -2.417 132.217  0.00  0.00    +0.132 C 
ATOM      4  C   LIG A   1      -5.948  -1.959 129.783  0.00  0.00    +0.101 A 
ATOM      5  C   LIG A   1      -5.728  -1.362 128.534  0.00  0.00    +0.138 A 
ATOM      6  C   LIG A   1      -6.657  -1.516 127.490  0.00  0.00    +0.040 A 
ATOM      7  C   LIG A   1      -7.842  -2.237 127.743  0.00  0.00    +0.131 A 
ATOM      8  C   LIG A   1      -8.048  -2.838 128.990  0.00  0.00    +0.092 A 
ATOM      9  C   LIG A   1      -7.093  -2.717 129.999  0.00  0.00    +0.139 A 
ATOM     10  O   LIG A   1      -7.365  -3.376 131.163  0.00  0.00    -0.480 OA
ATOM     11  C   LIG A   1      -6.240  -3.671 132.020  0.00  0.00    +0.140 C 
ATOM     12  C   LIG A   1      -5.447  -4.844 131.401  0.00  0.00    +0.061 C 
ENDROOT
BRANCH  11  13
ATOM     13  C   LIG A   1      -6.791  -4.133 133.386  0.00  0.00    -0.004 A 
ATOM     14  C   LIG A   1      -7.871  -3.462 133.995  0.00  0.00    +0.007 A 
ATOM     15  C   LIG A   1      -8.353  -3.855 135.247  0.00  0.00    +0.000 A 
ATOM     16  C   LIG A   1      -7.770  -4.925 135.916  0.00  0.00    +0.000 A 
ATOM     17  C   LIG A   1      -6.710  -5.611 135.331  0.00  0.00    +0.000 A 
ATOM     18  C   LIG A   1      -6.226  -5.219 134.080  0.00  0.00    +0.007 A 
ENDBRANCH  11  13
BRANCH   5  19
ATOM     19  O   LIG A   1      -4.601  -0.617 128.286  0.00  0.00    -0.505 OA
ATOM     20  H   LIG A   1      -4.643  -0.279 127.364  0.00  0.00    +0.292 HD
ENDBRANCH   5  19
BRANCH   7  21
ATOM     21  O   LIG A   1      -8.720  -2.374 126.697  0.00  0.00    -0.495 OA
ATOM     22  C   LIG A   1      -8.735  -3.649 126.063  0.00  0.00    +0.277 C 
ENDBRANCH   7  21
BRANCH   6  23
ATOM     23  C   LIG A   1      -6.396  -0.906 126.127  0.00  0.00    +0.069 C 
BRANCH  23  24
ATOM     24  C   LIG A   1      -5.545  -1.779 125.240  0.00  0.00    -0.023 C 
ATOM     25  C   LIG A   1      -5.820  -2.213 123.993  0.00  0.00    -0.079 C 
ATOM     26  C   LIG A   1      -7.072  -1.890 123.223  0.00  0.00    +0.038 C 
ATOM     27  C   LIG A   1      -4.853  -3.096 123.251  0.00  0.00    +0.038 C 
ENDBRANCH  23  24
ENDBRANCH   6  23
TORSDOF 5
ENDMDL
MODEL 9
REMARK VINA RESULT:      -7.5      3.592      4.747
REMARK  Name = NuBBE_1825
REMARK  9 active torsions:
REMARK  status: ('A' for Active; 'I' for Inactive)
REMARK    1  A    between atoms: C_5  and  O_6
REMARK    2  A    between atoms: C_7  and  C_8
REMARK    3  A    between atoms: C_8  and  C_9
REMARK    4  A    between atoms: C_10  and  C_11
REMARK    5  A    between atoms: C_10  and  C_12
REMARK    6  A    between atoms: C_13  and  O_14
REMARK    7  A    between atoms: O_14  and  C_15
REMARK    8  A    between atoms: C_19  and  C_20
REMARK    9  A    between atoms: C_19  and  C_21
REMARK                            x       y       z     vdW  Elec       q    Type
REMARK                         _______ _______ _______ _____ _____    ______ ____
ROOT
ATOM      1  O   LIG A   1      -8.734   2.927 126.711  0.00  0.00    -0.292 OA
ATOM      2  C   LIG A   1      -7.843   3.139 125.885  0.00  0.00    +0.174 C 
ATOM      3  C   LIG A   1      -8.129   3.413 124.438  0.00  0.00    +0.132 C 
ATOM      4  C   LIG A   1      -6.440   3.200 126.325  0.00  0.00    +0.101 A 
ATOM      5  C   LIG A   1      -6.073   3.042 127.669  0.00  0.00    +0.138 A 
ATOM      6  C   LIG A   1      -4.723   3.109 128.058  0.00  0.00    +0.040 A 
ATOM      7  C   LIG A   1      -3.752   3.393 127.076  0.00  0.00    +0.131 A 
ATOM      8  C   LIG A   1      -4.127   3.538 125.735  0.00  0.00    +0.092 A 
ATOM      9  C   LIG A   1      -5.464   3.420 125.359  0.00  0.00    +0.139 A 
ATOM     10  O   LIG A   1      -5.723   3.532 124.023  0.00  0.00    -0.480 OA
ATOM     11  C   LIG A   1      -6.962   2.960 123.551  0.00  0.00    +0.140 C 
ATOM     12  C   LIG A   1      -6.808   1.422 123.514  0.00  0.00    +0.061 C 
ENDROOT
BRANCH  11  13
ATOM     13  C   LIG A   1      -7.194   3.453 122.108  0.00  0.00    -0.004 A 
ATOM     14  C   LIG A   1      -8.485   3.450 121.541  0.00  0.00    +0.007 A 
ATOM     15  C   LIG A   1      -8.697   3.864 120.223  0.00  0.00    +0.000 A 
ATOM     16  C   LIG A   1      -7.628   4.291 119.444  0.00  0.00    +0.000 A 
ATOM     17  C   LIG A   1      -6.345   4.313 119.983  0.00  0.00    +0.000 A 
ATOM     18  C   LIG A   1      -6.131   3.899 121.300  0.00  0.00    +0.007 A 
ENDBRANCH  11  13
BRANCH   5  19
ATOM     19  O   LIG A   1      -7.012   2.811 128.644  0.00  0.00    -0.505 OA
ATOM     20  H   LIG A   1      -7.896   3.060 128.295  0.00  0.00    +0.292 HD
ENDBRANCH   5  19
BRANCH   7  21
ATOM     21  O   LIG A   1      -2.445   3.441 127.493  0.00  0.00    -0.495 OA
ATOM     22  C   LIG A   1      -1.488   2.882 126.599  0.00  0.00    +0.277 C 
ENDBRANCH   7  21
BRANCH   6  23
ATOM     23  C   LIG A   1      -4.325   2.896 129.505  0.00  0.00    +0.069 C 
BRANCH  23  24
ATOM     24  C   LIG A   1      -3.849   1.493 129.788  0.00  0.00    -0.023 C 
ATOM     25  C   LIG A   1      -4.488   0.523 130.472  0.00  0.00    -0.079 C 
ATOM     26  C   LIG A   1      -5.849   0.661 131.099  0.00  0.00    +0.038 C 
ATOM     27  C   LIG A   1      -3.854  -0.828 130.672  0.00  0.00    +0.038 C 
ENDBRANCH  23  24
ENDBRANCH   6  23
TORSDOF 5
ENDMDL
