MODEL 1
REMARK VINA RESULT:      -6.9      0.000      0.000
REMARK  Name = NuBBE_2371
REMARK  12 active torsions:
REMARK  status: ('A' for Active; 'I' for Inactive)
REMARK    1  A    between atoms: C_2  and  O_29
REMARK    2  A    between atoms: C_3  and  O_27
REMARK    3  A    between atoms: C_5  and  C_7
REMARK    4  A    between atoms: C_7  and  C_8
REMARK    5  A    between atoms: C_14  and  C_16
REMARK    6  A    between atoms: C_16  and  C_17
REMARK    7  A    between atoms: C_19  and  O_25
REMARK    8  A    between atoms: C_20  and  O_23
REMARK    9  A    between atoms: O_23  and  C_24
REMARK   10  A    between atoms: O_25  and  C_26
REMARK   11  A    between atoms: O_27  and  C_28
REMARK   12  A    between atoms: O_29  and  C_30
REMARK                            x       y       z     vdW  Elec       q    Type
REMARK                         _______ _______ _______ _____ _____    ______ ____
ROOT
ATOM      1  C   LIG A   1      -7.329  -1.141 131.411  0.00  0.00    +0.109 C 
ATOM      2  C   LIG A   1      -6.122  -1.020 132.282  0.00  0.00    +0.311 C 
ATOM      3  O   LIG A   1      -5.507   0.027 132.513  0.00  0.00    -0.251 OA
ATOM      4  O   LIG A   1      -5.715  -2.230 132.719  0.00  0.00    -0.464 OA
ATOM      5  C   LIG A   1      -6.659  -3.221 132.316  0.00  0.00    +0.236 C 
ATOM      6  C   LIG A   1      -7.427  -2.638 131.139  0.00  0.00    +0.045 C 
ENDROOT
BRANCH   1   7
ATOM      7  C   LIG A   1      -8.599  -0.492 131.989  0.00  0.00    +0.050 C 
BRANCH   7  12
ATOM      8  C   LIG A   1      -9.985   3.022 131.393  0.00  0.00    +0.050 A 
ATOM      9  C   LIG A   1      -9.615   3.265 130.064  0.00  0.00    +0.162 A 
ATOM     10  C   LIG A   1      -8.882   2.287 129.363  0.00  0.00    +0.162 A 
ATOM     11  C   LIG A   1      -8.514   1.118 130.054  0.00  0.00    +0.053 A 
ATOM     12  C   LIG A   1      -8.953   0.840 131.354  0.00  0.00    -0.043 A 
ATOM     13  C   LIG A   1      -9.680   1.822 132.021  0.00  0.00    +0.007 A 
BRANCH  10  14
ATOM     14  O   LIG A   1      -8.490   2.486 128.060  0.00  0.00    -0.491 OA
ATOM     15  C   LIG A   1      -7.277   3.220 127.827  0.00  0.00    +0.277 C 
ENDBRANCH  10  14
BRANCH   9  16
ATOM     16  O   LIG A   1     -10.084   4.489 129.677  0.00  0.00    -0.491 OA
ATOM     17  C   LIG A   1     -11.214   5.033 130.321  0.00  0.00    +0.277 C 
ENDBRANCH   9  16
ENDBRANCH   7  12
ENDBRANCH   1   7
BRANCH   6  18
ATOM     18  C   LIG A   1      -6.735  -3.052 129.812  0.00  0.00    +0.042 C 
BRANCH  18  19
ATOM     19  C   LIG A   1      -7.526  -2.806 128.543  0.00  0.00    -0.043 A 
ATOM     20  C   LIG A   1      -7.347  -1.606 127.841  0.00  0.00    +0.053 A 
ATOM     21  C   LIG A   1      -8.067  -1.311 126.670  0.00  0.00    +0.162 A 
ATOM     22  C   LIG A   1      -8.972  -2.273 126.179  0.00  0.00    +0.162 A 
ATOM     23  C   LIG A   1      -9.153  -3.467 126.871  0.00  0.00    +0.050 A 
ATOM     24  C   LIG A   1      -8.484  -3.699 128.063  0.00  0.00    +0.007 A 
BRANCH  22  25
ATOM     25  O   LIG A   1      -9.713  -2.227 125.028  0.00  0.00    -0.491 OA
ATOM     26  C   LIG A   1      -9.381  -3.194 124.046  0.00  0.00    +0.277 C 
ENDBRANCH  22  25
BRANCH  21  27
ATOM     27  O   LIG A   1      -7.915  -0.135 125.986  0.00  0.00    -0.491 OA
ATOM     28  C   LIG A   1      -6.633   0.214 125.469  0.00  0.00    +0.277 C 
ENDBRANCH  21  27
ENDBRANCH  18  19
ENDBRANCH   6  18
TORSDOF 8
ENDMDL
MODEL 2
REMARK VINA RESULT:      -6.8      0.798      5.724
REMARK  Name = NuBBE_2371
REMARK  12 active torsions:
REMARK  status: ('A' for Active; 'I' for Inactive)
REMARK    1  A    between atoms: C_2  and  O_29
REMARK    2  A    between atoms: C_3  and  O_27
REMARK    3  A    between atoms: C_5  and  C_7
REMARK    4  A    between atoms: C_7  and  C_8
REMARK    5  A    between atoms: C_14  and  C_16
REMARK    6  A    between atoms: C_16  and  C_17
REMARK    7  A    between atoms: C_19  and  O_25
REMARK    8  A    between atoms: C_20  and  O_23
REMARK    9  A    between atoms: O_23  and  C_24
REMARK   10  A    between atoms: O_25  and  C_26
REMARK   11  A    between atoms: O_27  and  C_28
REMARK   12  A    between atoms: O_29  and  C_30
REMARK                            x       y       z     vdW  Elec       q    Type
REMARK                         _______ _______ _______ _____ _____    ______ ____
ROOT
ATOM      1  C   LIG A   1      -7.117  -2.864 131.248  0.00  0.00    +0.109 C 
ATOM      2  C   LIG A   1      -6.379  -3.193 132.504  0.00  0.00    +0.311 C 
ATOM      3  O   LIG A   1      -6.401  -4.286 133.082  0.00  0.00    -0.251 OA
ATOM      4  O   LIG A   1      -5.750  -2.107 132.998  0.00  0.00    -0.464 OA
ATOM      5  C   LIG A   1      -5.883  -1.024 132.077  0.00  0.00    +0.236 C 
ATOM      6  C   LIG A   1      -7.088  -1.340 131.205  0.00  0.00    +0.045 C 
ENDROOT
BRANCH   1   7
ATOM      7  C   LIG A   1      -6.580  -3.569 129.990  0.00  0.00    +0.050 C 
BRANCH   7  12
ATOM      8  C   LIG A   1      -9.289  -3.567 127.291  0.00  0.00    +0.050 A 
ATOM      9  C   LIG A   1      -8.751  -2.701 126.331  0.00  0.00    +0.162 A 
ATOM     10  C   LIG A   1      -7.506  -2.088 126.577  0.00  0.00    +0.162 A 
ATOM     11  C   LIG A   1      -6.877  -2.344 127.809  0.00  0.00    +0.053 A 
ATOM     12  C   LIG A   1      -7.375  -3.272 128.732  0.00  0.00    -0.043 A 
ATOM     13  C   LIG A   1      -8.605  -3.866 128.460  0.00  0.00    +0.007 A 
BRANCH  10  14
ATOM     14  O   LIG A   1      -6.943  -1.224 125.668  0.00  0.00    -0.491 OA
ATOM     15  C   LIG A   1      -5.568  -0.853 125.853  0.00  0.00    +0.277 C 
ENDBRANCH  10  14
BRANCH   9  16
ATOM     16  O   LIG A   1      -9.597  -2.625 125.260  0.00  0.00    -0.491 OA
ATOM     17  C   LIG A   1      -9.267  -3.302 124.069  0.00  0.00    +0.277 C 
ENDBRANCH   9  16
ENDBRANCH   7  12
ENDBRANCH   1   7
BRANCH   6  18
ATOM     18  C   LIG A   1      -8.359  -0.699 131.825  0.00  0.00    +0.042 C 
BRANCH  18  19
ATOM     19  C   LIG A   1      -8.791   0.629 131.235  0.00  0.00    -0.043 A 
ATOM     20  C   LIG A   1      -8.292   1.024 129.987  0.00  0.00    +0.053 A 
ATOM     21  C   LIG A   1      -8.638   2.252 129.397  0.00  0.00    +0.162 A 
ATOM     22  C   LIG A   1      -9.542   3.091 130.080  0.00  0.00    +0.162 A 
ATOM     23  C   LIG A   1     -10.043   2.704 131.319  0.00  0.00    +0.050 A 
ATOM     24  C   LIG A   1      -9.625   1.520 131.909  0.00  0.00    +0.007 A 
BRANCH  22  25
ATOM     25  O   LIG A   1     -10.070   4.284 129.660  0.00  0.00    -0.491 OA
ATOM     26  C   LIG A   1     -11.106   4.814 130.469  0.00  0.00    +0.277 C 
ENDBRANCH  22  25
BRANCH  21  27
ATOM     27  O   LIG A   1      -8.142   2.657 128.188  0.00  0.00    -0.491 OA
ATOM     28  C   LIG A   1      -8.311   1.820 127.045  0.00  0.00    +0.277 C 
ENDBRANCH  21  27
ENDBRANCH  18  19
ENDBRANCH   6  18
TORSDOF 8
ENDMDL
MODEL 3
REMARK VINA RESULT:      -6.8      3.358      6.784
REMARK  Name = NuBBE_2371
REMARK  12 active torsions:
REMARK  status: ('A' for Active; 'I' for Inactive)
REMARK    1  A    between atoms: C_2  and  O_29
REMARK    2  A    between atoms: C_3  and  O_27
REMARK    3  A    between atoms: C_5  and  C_7
REMARK    4  A    between atoms: C_7  and  C_8
REMARK    5  A    between atoms: C_14  and  C_16
REMARK    6  A    between atoms: C_16  and  C_17
REMARK    7  A    between atoms: C_19  and  O_25
REMARK    8  A    between atoms: C_20  and  O_23
REMARK    9  A    between atoms: O_23  and  C_24
REMARK   10  A    between atoms: O_25  and  C_26
REMARK   11  A    between atoms: O_27  and  C_28
REMARK   12  A    between atoms: O_29  and  C_30
REMARK                            x       y       z     vdW  Elec       q    Type
REMARK                         _______ _______ _______ _____ _____    ______ ____
ROOT
ATOM      1  C   LIG A   1      -8.449  -1.231 124.094  0.00  0.00    +0.109 C 
ATOM      2  C   LIG A   1      -9.599  -1.326 123.146  0.00  0.00    +0.311 C 
ATOM      3  O   LIG A   1     -10.182  -0.366 122.629  0.00  0.00    -0.251 OA
ATOM      4  O   LIG A   1      -9.997  -2.606 122.992  0.00  0.00    -0.464 OA
ATOM      5  C   LIG A   1      -9.095  -3.469 123.683  0.00  0.00    +0.236 C 
ATOM      6  C   LIG A   1      -8.392  -2.617 124.728  0.00  0.00    +0.045 C 
ENDROOT
BRANCH   1   7
ATOM      7  C   LIG A   1      -7.136  -0.744 123.457  0.00  0.00    +0.050 C 
BRANCH   7  12
ATOM      8  C   LIG A   1      -6.192   2.467 125.307  0.00  0.00    +0.050 A 
ATOM      9  C   LIG A   1      -6.234   3.423 124.283  0.00  0.00    +0.162 A 
ATOM     10  C   LIG A   1      -6.545   3.014 122.971  0.00  0.00    +0.162 A 
ATOM     11  C   LIG A   1      -6.757   1.641 122.741  0.00  0.00    +0.053 A 
ATOM     12  C   LIG A   1      -6.796   0.700 123.777  0.00  0.00    -0.043 A 
ATOM     13  C   LIG A   1      -6.490   1.134 125.064  0.00  0.00    +0.007 A 
BRANCH  10  14
ATOM     14  O   LIG A   1      -6.588   3.915 121.934  0.00  0.00    -0.491 OA
ATOM     15  C   LIG A   1      -5.610   3.786 120.889  0.00  0.00    +0.277 C 
ENDBRANCH  10  14
BRANCH   9  16
ATOM     16  O   LIG A   1      -5.957   4.658 124.800  0.00  0.00    -0.491 OA
ATOM     17  C   LIG A   1      -5.435   4.760 126.105  0.00  0.00    +0.277 C 
ENDBRANCH   9  16
ENDBRANCH   7  12
ENDBRANCH   1   7
BRANCH   6  18
ATOM     18  C   LIG A   1      -9.170  -2.694 126.070  0.00  0.00    +0.042 C 
BRANCH  18  19
ATOM     19  C   LIG A   1      -8.327  -2.685 127.330  0.00  0.00    -0.043 A 
ATOM     20  C   LIG A   1      -7.177  -1.886 127.384  0.00  0.00    +0.053 A 
ATOM     21  C   LIG A   1      -6.344  -1.851 128.516  0.00  0.00    +0.162 A 
ATOM     22  C   LIG A   1      -6.704  -2.625 129.637  0.00  0.00    +0.162 A 
ATOM     23  C   LIG A   1      -7.846  -3.419 129.591  0.00  0.00    +0.050 A 
ATOM     24  C   LIG A   1      -8.608  -3.490 128.434  0.00  0.00    +0.007 A 
BRANCH  22  25
ATOM     25  O   LIG A   1      -6.087  -2.682 130.859  0.00  0.00    -0.491 OA
ATOM     26  C   LIG A   1      -6.949  -2.649 131.984  0.00  0.00    +0.277 C 
ENDBRANCH  22  25
BRANCH  21  27
ATOM     27  O   LIG A   1      -5.208  -1.090 128.574  0.00  0.00    -0.491 OA
ATOM     28  C   LIG A   1      -5.318   0.322 128.741  0.00  0.00    +0.277 C 
ENDBRANCH  21  27
ENDBRANCH  18  19
ENDBRANCH   6  18
TORSDOF 8
ENDMDL
MODEL 4
REMARK VINA RESULT:      -6.8      4.223      8.252
REMARK  Name = NuBBE_2371
REMARK  12 active torsions:
REMARK  status: ('A' for Active; 'I' for Inactive)
REMARK    1  A    between atoms: C_2  and  O_29
REMARK    2  A    between atoms: C_3  and  O_27
REMARK    3  A    between atoms: C_5  and  C_7
REMARK    4  A    between atoms: C_7  and  C_8
REMARK    5  A    between atoms: C_14  and  C_16
REMARK    6  A    between atoms: C_16  and  C_17
REMARK    7  A    between atoms: C_19  and  O_25
REMARK    8  A    between atoms: C_20  and  O_23
REMARK    9  A    between atoms: O_23  and  C_24
REMARK   10  A    between atoms: O_25  and  C_26
REMARK   11  A    between atoms: O_27  and  C_28
REMARK   12  A    between atoms: O_29  and  C_30
REMARK                            x       y       z     vdW  Elec       q    Type
REMARK                         _______ _______ _______ _____ _____    ______ ____
ROOT
ATOM      1  C   LIG A   1     -10.741   5.131 130.236  0.00  0.00    +0.109 C 
ATOM      2  C   LIG A   1     -11.957   5.937 129.915  0.00  0.00    +0.311 C 
ATOM      3  O   LIG A   1     -12.566   5.916 128.839  0.00  0.00    -0.251 OA
ATOM      4  O   LIG A   1     -12.262   6.780 130.923  0.00  0.00    -0.464 OA
ATOM      5  C   LIG A   1     -11.398   6.525 132.030  0.00  0.00    +0.236 C 
ATOM      6  C   LIG A   1     -10.172   5.818 131.473  0.00  0.00    +0.045 C 
ENDROOT
BRANCH   1   7
ATOM      7  C   LIG A   1     -10.997   3.621 130.380  0.00  0.00    +0.050 C 
BRANCH   7  12
ATOM      8  C   LIG A   1      -8.650   1.331 132.348  0.00  0.00    +0.050 A 
ATOM      9  C   LIG A   1      -7.452   1.448 131.630  0.00  0.00    +0.162 A 
ATOM     10  C   LIG A   1      -7.415   2.258 130.478  0.00  0.00    +0.162 A 
ATOM     11  C   LIG A   1      -8.609   2.883 130.073  0.00  0.00    +0.053 A 
ATOM     12  C   LIG A   1      -9.783   2.832 130.834  0.00  0.00    -0.043 A 
ATOM     13  C   LIG A   1      -9.789   2.028 131.971  0.00  0.00    +0.007 A 
BRANCH  10  14
ATOM     14  O   LIG A   1      -6.264   2.395 129.738  0.00  0.00    -0.491 OA
ATOM     15  C   LIG A   1      -5.959   3.692 129.202  0.00  0.00    +0.277 C 
ENDBRANCH  10  14
BRANCH   9  16
ATOM     16  O   LIG A   1      -6.480   0.708 132.243  0.00  0.00    -0.491 OA
ATOM     17  C   LIG A   1      -6.289   0.833 133.634  0.00  0.00    +0.277 C 
ENDBRANCH   9  16
ENDBRANCH   7  12
ENDBRANCH   1   7
BRANCH   6  18
ATOM     18  C   LIG A   1      -9.081   6.867 131.126  0.00  0.00    +0.042 C 
BRANCH  18  19
ATOM     19  C   LIG A   1      -7.658   6.494 131.493  0.00  0.00    -0.043 A 
ATOM     20  C   LIG A   1      -6.591   7.178 130.894  0.00  0.00    +0.053 A 
ATOM     21  C   LIG A   1      -5.250   6.864 131.177  0.00  0.00    +0.162 A 
ATOM     22  C   LIG A   1      -4.983   5.849 132.117  0.00  0.00    +0.162 A 
ATOM     23  C   LIG A   1      -6.038   5.168 132.717  0.00  0.00    +0.050 A 
ATOM     24  C   LIG A   1      -7.350   5.449 132.363  0.00  0.00    +0.007 A 
BRANCH  22  25
ATOM     25  O   LIG A   1      -3.767   5.437 132.595  0.00  0.00    -0.491 OA
ATOM     26  C   LIG A   1      -3.361   4.137 132.200  0.00  0.00    +0.277 C 
ENDBRANCH  22  25
BRANCH  21  27
ATOM     27  O   LIG A   1      -4.200   7.511 130.585  0.00  0.00    -0.491 OA
ATOM     28  C   LIG A   1      -3.664   7.006 129.363  0.00  0.00    +0.277 C 
ENDBRANCH  21  27
ENDBRANCH  18  19
ENDBRANCH   6  18
TORSDOF 8
ENDMDL
MODEL 5
REMARK VINA RESULT:      -6.6      2.434      3.668
REMARK  Name = NuBBE_2371
REMARK  12 active torsions:
REMARK  status: ('A' for Active; 'I' for Inactive)
REMARK    1  A    between atoms: C_2  and  O_29
REMARK    2  A    between atoms: C_3  and  O_27
REMARK    3  A    between atoms: C_5  and  C_7
REMARK    4  A    between atoms: C_7  and  C_8
REMARK    5  A    between atoms: C_14  and  C_16
REMARK    6  A    between atoms: C_16  and  C_17
REMARK    7  A    between atoms: C_19  and  O_25
REMARK    8  A    between atoms: C_20  and  O_23
REMARK    9  A    between atoms: O_23  and  C_24
REMARK   10  A    between atoms: O_25  and  C_26
REMARK   11  A    between atoms: O_27  and  C_28
REMARK   12  A    between atoms: O_29  and  C_30
REMARK                            x       y       z     vdW  Elec       q    Type
REMARK                         _______ _______ _______ _____ _____    ______ ____
ROOT
ATOM      1  C   LIG A   1      -7.231  -0.237 128.989  0.00  0.00    +0.109 C 
ATOM      2  C   LIG A   1      -5.989  -0.115 129.810  0.00  0.00    +0.311 C 
ATOM      3  O   LIG A   1      -5.014   0.593 129.532  0.00  0.00    -0.251 OA
ATOM      4  O   LIG A   1      -6.016  -0.959 130.862  0.00  0.00    -0.464 OA
ATOM      5  C   LIG A   1      -7.291  -1.597 130.924  0.00  0.00    +0.236 C 
ATOM      6  C   LIG A   1      -7.896  -1.498 129.532  0.00  0.00    +0.045 C 
ENDROOT
BRANCH   1   7
ATOM      7  C   LIG A   1      -8.115   1.022 128.980  0.00  0.00    +0.050 C 
BRANCH   7  12
ATOM      8  C   LIG A   1      -8.904   1.635 125.289  0.00  0.00    +0.050 A 
ATOM      9  C   LIG A   1      -8.413   2.931 125.092  0.00  0.00    +0.162 A 
ATOM     10  C   LIG A   1      -7.843   3.625 126.178  0.00  0.00    +0.162 A 
ATOM     11  C   LIG A   1      -7.837   2.991 127.434  0.00  0.00    +0.053 A 
ATOM     12  C   LIG A   1      -8.254   1.666 127.613  0.00  0.00    -0.043 A 
ATOM     13  C   LIG A   1      -8.806   1.004 126.520  0.00  0.00    +0.007 A 
BRANCH  10  14
ATOM     14  O   LIG A   1      -7.356   4.902 126.033  0.00  0.00    -0.491 OA
ATOM     15  C   LIG A   1      -6.094   5.070 125.368  0.00  0.00    +0.277 C 
ENDBRANCH  10  14
BRANCH   9  16
ATOM     16  O   LIG A   1      -8.583   3.290 123.783  0.00  0.00    -0.491 OA
ATOM     17  C   LIG A   1      -9.039   2.330 122.857  0.00  0.00    +0.277 C 
ENDBRANCH   9  16
ENDBRANCH   7  12
ENDBRANCH   1   7
BRANCH   6  18
ATOM     18  C   LIG A   1      -7.530  -2.767 128.715  0.00  0.00    +0.042 C 
BRANCH  18  19
ATOM     19  C   LIG A   1      -7.744  -2.680 127.217  0.00  0.00    -0.043 A 
ATOM     20  C   LIG A   1      -6.652  -2.422 126.379  0.00  0.00    +0.053 A 
ATOM     21  C   LIG A   1      -6.790  -2.309 124.985  0.00  0.00    +0.162 A 
ATOM     22  C   LIG A   1      -8.068  -2.494 124.421  0.00  0.00    +0.162 A 
ATOM     23  C   LIG A   1      -9.157  -2.753 125.247  0.00  0.00    +0.050 A 
ATOM     24  C   LIG A   1      -9.003  -2.785 126.626  0.00  0.00    +0.007 A 
BRANCH  22  25
ATOM     25  O   LIG A   1      -8.414  -2.504 123.095  0.00  0.00    -0.491 OA
ATOM     26  C   LIG A   1      -9.199  -1.407 122.658  0.00  0.00    +0.277 C 
ENDBRANCH  22  25
BRANCH  21  27
ATOM     27  O   LIG A   1      -5.734  -2.038 124.157  0.00  0.00    -0.491 OA
ATOM     28  C   LIG A   1      -4.909  -3.108 123.700  0.00  0.00    +0.277 C 
ENDBRANCH  21  27
ENDBRANCH  18  19
ENDBRANCH   6  18
TORSDOF 8
ENDMDL
MODEL 6
REMARK VINA RESULT:      -6.6      2.560      3.972
REMARK  Name = NuBBE_2371
REMARK  12 active torsions:
REMARK  status: ('A' for Active; 'I' for Inactive)
REMARK    1  A    between atoms: C_2  and  O_29
REMARK    2  A    between atoms: C_3  and  O_27
REMARK    3  A    between atoms: C_5  and  C_7
REMARK    4  A    between atoms: C_7  and  C_8
REMARK    5  A    between atoms: C_14  and  C_16
REMARK    6  A    between atoms: C_16  and  C_17
REMARK    7  A    between atoms: C_19  and  O_25
REMARK    8  A    between atoms: C_20  and  O_23
REMARK    9  A    between atoms: O_23  and  C_24
REMARK   10  A    between atoms: O_25  and  C_26
REMARK   11  A    between atoms: O_27  and  C_28
REMARK   12  A    between atoms: O_29  and  C_30
REMARK                            x       y       z     vdW  Elec       q    Type
REMARK                         _______ _______ _______ _____ _____    ______ ____
ROOT
ATOM      1  C   LIG A   1      -6.328  -2.298 128.797  0.00  0.00    +0.109 C 
ATOM      2  C   LIG A   1      -5.662  -3.346 129.627  0.00  0.00    +0.311 C 
ATOM      3  O   LIG A   1      -4.503  -3.749 129.476  0.00  0.00    -0.251 OA
ATOM      4  O   LIG A   1      -6.523  -3.882 130.517  0.00  0.00    -0.464 OA
ATOM      5  C   LIG A   1      -7.759  -3.169 130.467  0.00  0.00    +0.236 C 
ATOM      6  C   LIG A   1      -7.809  -2.479 129.113  0.00  0.00    +0.045 C 
ENDROOT
BRANCH   1   7
ATOM      7  C   LIG A   1      -5.779  -0.876 129.005  0.00  0.00    +0.050 C 
BRANCH   7  12
ATOM      8  C   LIG A   1      -5.848   0.882 125.610  0.00  0.00    +0.050 A 
ATOM      9  C   LIG A   1      -6.725   1.948 125.846  0.00  0.00    +0.162 A 
ATOM     10  C   LIG A   1      -7.323   2.081 127.115  0.00  0.00    +0.162 A 
ATOM     11  C   LIG A   1      -7.041   1.098 128.082  0.00  0.00    +0.053 A 
ATOM     12  C   LIG A   1      -6.103   0.080 127.873  0.00  0.00    -0.043 A 
ATOM     13  C   LIG A   1      -5.524  -0.023 126.611  0.00  0.00    +0.007 A 
BRANCH  10  14
ATOM     14  O   LIG A   1      -8.197   3.106 127.388  0.00  0.00    -0.491 OA
ATOM     15  C   LIG A   1      -7.733   4.182 128.221  0.00  0.00    +0.277 C 
ENDBRANCH  10  14
BRANCH   9  16
ATOM     16  O   LIG A   1      -6.825   2.714 124.718  0.00  0.00    -0.491 OA
ATOM     17  C   LIG A   1      -6.968   2.085 123.464  0.00  0.00    +0.277 C 
ENDBRANCH   9  16
ENDBRANCH   7  12
ENDBRANCH   1   7
BRANCH   6  18
ATOM     18  C   LIG A   1      -8.532  -3.396 128.090  0.00  0.00    +0.042 C 
BRANCH  18  19
ATOM     19  C   LIG A   1      -8.380  -3.015 126.630  0.00  0.00    -0.043 A 
ATOM     20  C   LIG A   1      -8.926  -1.808 126.172  0.00  0.00    +0.053 A 
ATOM     21  C   LIG A   1      -8.836  -1.411 124.827  0.00  0.00    +0.162 A 
ATOM     22  C   LIG A   1      -8.146  -2.245 123.926  0.00  0.00    +0.162 A 
ATOM     23  C   LIG A   1      -7.599  -3.444 124.374  0.00  0.00    +0.050 A 
ATOM     24  C   LIG A   1      -7.768  -3.845 125.692  0.00  0.00    +0.007 A 
BRANCH  22  25
ATOM     25  O   LIG A   1      -7.874  -2.020 122.602  0.00  0.00    -0.491 OA
ATOM     26  C   LIG A   1      -6.508  -1.816 122.282  0.00  0.00    +0.277 C 
ENDBRANCH  22  25
BRANCH  21  27
ATOM     27  O   LIG A   1      -9.381  -0.244 124.364  0.00  0.00    -0.491 OA
ATOM     28  C   LIG A   1      -9.998   0.655 125.283  0.00  0.00    +0.277 C 
ENDBRANCH  21  27
ENDBRANCH  18  19
ENDBRANCH   6  18
TORSDOF 8
ENDMDL
MODEL 7
REMARK VINA RESULT:      -6.6      1.375      2.136
REMARK  Name = NuBBE_2371
REMARK  12 active torsions:
REMARK  status: ('A' for Active; 'I' for Inactive)
REMARK    1  A    between atoms: C_2  and  O_29
REMARK    2  A    between atoms: C_3  and  O_27
REMARK    3  A    between atoms: C_5  and  C_7
REMARK    4  A    between atoms: C_7  and  C_8
REMARK    5  A    between atoms: C_14  and  C_16
REMARK    6  A    between atoms: C_16  and  C_17
REMARK    7  A    between atoms: C_19  and  O_25
REMARK    8  A    between atoms: C_20  and  O_23
REMARK    9  A    between atoms: O_23  and  C_24
REMARK   10  A    between atoms: O_25  and  C_26
REMARK   11  A    between atoms: O_27  and  C_28
REMARK   12  A    between atoms: O_29  and  C_30
REMARK                            x       y       z     vdW  Elec       q    Type
REMARK                         _______ _______ _______ _____ _____    ______ ____
ROOT
ATOM      1  C   LIG A   1      -7.641  -0.717 130.930  0.00  0.00    +0.109 C 
ATOM      2  C   LIG A   1      -6.469  -0.860 131.844  0.00  0.00    +0.311 C 
ATOM      3  O   LIG A   1      -5.808   0.073 132.313  0.00  0.00    -0.251 OA
ATOM      4  O   LIG A   1      -6.150  -2.159 132.025  0.00  0.00    -0.464 OA
ATOM      5  C   LIG A   1      -7.128  -2.980 131.389  0.00  0.00    +0.236 C 
ATOM      6  C   LIG A   1      -7.809  -2.114 130.341  0.00  0.00    +0.045 C 
ENDROOT
BRANCH   1   7
ATOM      7  C   LIG A   1      -8.897  -0.126 131.592  0.00  0.00    +0.050 C 
BRANCH   7  12
ATOM      8  C   LIG A   1      -9.412   3.591 132.327  0.00  0.00    +0.050 A 
ATOM      9  C   LIG A   1      -9.291   4.165 131.055  0.00  0.00    +0.162 A 
ATOM     10  C   LIG A   1      -9.011   3.337 129.950  0.00  0.00    +0.162 A 
ATOM     11  C   LIG A   1      -8.819   1.963 130.187  0.00  0.00    +0.053 A 
ATOM     12  C   LIG A   1      -9.021   1.379 131.444  0.00  0.00    -0.043 A 
ATOM     13  C   LIG A   1      -9.302   2.221 132.516  0.00  0.00    +0.007 A 
BRANCH  10  14
ATOM     14  O   LIG A   1      -8.875   3.857 128.684  0.00  0.00    -0.491 OA
ATOM     15  C   LIG A   1      -7.565   3.858 128.094  0.00  0.00    +0.277 C 
ENDBRANCH  10  14
BRANCH   9  16
ATOM     16  O   LIG A   1      -9.496   5.514 131.141  0.00  0.00    -0.491 OA
ATOM     17  C   LIG A   1      -8.391   6.373 131.303  0.00  0.00    +0.277 C 
ENDBRANCH   9  16
ENDBRANCH   7  12
ENDBRANCH   1   7
BRANCH   6  18
ATOM     18  C   LIG A   1      -7.082  -2.281 128.979  0.00  0.00    +0.042 C 
BRANCH  18  19
ATOM     19  C   LIG A   1      -7.785  -1.692 127.771  0.00  0.00    -0.043 A 
ATOM     20  C   LIG A   1      -8.487  -2.539 126.902  0.00  0.00    +0.053 A 
ATOM     21  C   LIG A   1      -9.141  -2.057 125.756  0.00  0.00    +0.162 A 
ATOM     22  C   LIG A   1      -9.109  -0.672 125.498  0.00  0.00    +0.162 A 
ATOM     23  C   LIG A   1      -8.416   0.175 126.358  0.00  0.00    +0.050 A 
ATOM     24  C   LIG A   1      -7.718  -0.339 127.442  0.00  0.00    +0.007 A 
BRANCH  22  25
ATOM     25  O   LIG A   1      -9.735   0.016 124.493  0.00  0.00    -0.491 OA
ATOM     26  C   LIG A   1      -9.774   1.425 124.645  0.00  0.00    +0.277 C 
ENDBRANCH  22  25
BRANCH  21  27
ATOM     27  O   LIG A   1      -9.813  -2.876 124.889  0.00  0.00    -0.491 OA
ATOM     28  C   LIG A   1      -9.190  -3.265 123.667  0.00  0.00    +0.277 C 
ENDBRANCH  21  27
ENDBRANCH  18  19
ENDBRANCH   6  18
TORSDOF 8
ENDMDL
MODEL 8
REMARK VINA RESULT:      -6.5      2.089      5.798
REMARK  Name = NuBBE_2371
REMARK  12 active torsions:
REMARK  status: ('A' for Active; 'I' for Inactive)
REMARK    1  A    between atoms: C_2  and  O_29
REMARK    2  A    between atoms: C_3  and  O_27
REMARK    3  A    between atoms: C_5  and  C_7
REMARK    4  A    between atoms: C_7  and  C_8
REMARK    5  A    between atoms: C_14  and  C_16
REMARK    6  A    between atoms: C_16  and  C_17
REMARK    7  A    between atoms: C_19  and  O_25
REMARK    8  A    between atoms: C_20  and  O_23
REMARK    9  A    between atoms: O_23  and  C_24
REMARK   10  A    between atoms: O_25  and  C_26
REMARK   11  A    between atoms: O_27  and  C_28
REMARK   12  A    between atoms: O_29  and  C_30
REMARK                            x       y       z     vdW  Elec       q    Type
REMARK                         _______ _______ _______ _____ _____    ______ ____
ROOT
ATOM      1  C   LIG A   1      -8.882  -0.303 124.209  0.00  0.00    +0.109 C 
ATOM      2  C   LIG A   1      -9.529  -0.559 122.887  0.00  0.00    +0.311 C 
ATOM      3  O   LIG A   1     -10.501   0.055 122.435  0.00  0.00    -0.251 OA
ATOM      4  O   LIG A   1      -8.976  -1.627 122.274  0.00  0.00    -0.464 OA
ATOM      5  C   LIG A   1      -7.855  -2.080 123.033  0.00  0.00    +0.236 C 
ATOM      6  C   LIG A   1      -8.046  -1.556 124.447  0.00  0.00    +0.045 C 
ENDROOT
BRANCH   1   7
ATOM      7  C   LIG A   1      -8.114   1.027 124.295  0.00  0.00    +0.050 C 
BRANCH   7  12
ATOM      8  C   LIG A   1      -8.657   1.637 128.030  0.00  0.00    +0.050 A 
ATOM      9  C   LIG A   1      -7.949   2.827 128.243  0.00  0.00    +0.162 A 
ATOM     10  C   LIG A   1      -7.264   3.423 127.165  0.00  0.00    +0.162 A 
ATOM     11  C   LIG A   1      -7.287   2.762 125.923  0.00  0.00    +0.053 A 
ATOM     12  C   LIG A   1      -8.061   1.618 125.692  0.00  0.00    -0.043 A 
ATOM     13  C   LIG A   1      -8.732   1.055 126.774  0.00  0.00    +0.007 A 
BRANCH  10  14
ATOM     14  O   LIG A   1      -6.549   4.585 127.329  0.00  0.00    -0.491 OA
ATOM     15  C   LIG A   1      -5.153   4.478 127.652  0.00  0.00    +0.277 C 
ENDBRANCH  10  14
BRANCH   9  16
ATOM     16  O   LIG A   1      -8.084   3.211 129.548  0.00  0.00    -0.491 OA
ATOM     17  C   LIG A   1      -9.362   3.208 130.142  0.00  0.00    +0.277 C 
ENDBRANCH   9  16
ENDBRANCH   7  12
ENDBRANCH   1   7
BRANCH   6  18
ATOM     18  C   LIG A   1      -8.791  -2.620 125.299  0.00  0.00    +0.042 C 
BRANCH  18  19
ATOM     19  C   LIG A   1      -8.271  -2.829 126.707  0.00  0.00    -0.043 A 
ATOM     20  C   LIG A   1      -7.024  -2.300 127.067  0.00  0.00    +0.053 A 
ATOM     21  C   LIG A   1      -6.479  -2.478 128.350  0.00  0.00    +0.162 A 
ATOM     22  C   LIG A   1      -7.233  -3.188 129.306  0.00  0.00    +0.162 A 
ATOM     23  C   LIG A   1      -8.473  -3.715 128.956  0.00  0.00    +0.050 A 
ATOM     24  C   LIG A   1      -8.952  -3.586 127.660  0.00  0.00    +0.007 A 
BRANCH  22  25
ATOM     25  O   LIG A   1      -6.933  -3.413 130.624  0.00  0.00    -0.491 OA
ATOM     26  C   LIG A   1      -7.434  -2.453 131.540  0.00  0.00    +0.277 C 
ENDBRANCH  22  25
BRANCH  21  27
ATOM     27  O   LIG A   1      -5.255  -1.983 128.709  0.00  0.00    -0.491 OA
ATOM     28  C   LIG A   1      -4.159  -2.879 128.879  0.00  0.00    +0.277 C 
ENDBRANCH  21  27
ENDBRANCH  18  19
ENDBRANCH   6  18
TORSDOF 8
ENDMDL
MODEL 9
REMARK VINA RESULT:      -6.4      3.247      7.242
REMARK  Name = NuBBE_2371
REMARK  12 active torsions:
REMARK  status: ('A' for Active; 'I' for Inactive)
REMARK    1  A    between atoms: C_2  and  O_29
REMARK    2  A    between atoms: C_3  and  O_27
REMARK    3  A    between atoms: C_5  and  C_7
REMARK    4  A    between atoms: C_7  and  C_8
REMARK    5  A    between atoms: C_14  and  C_16
REMARK    6  A    between atoms: C_16  and  C_17
REMARK    7  A    between atoms: C_19  and  O_25
REMARK    8  A    between atoms: C_20  and  O_23
REMARK    9  A    between atoms: O_23  and  C_24
REMARK   10  A    between atoms: O_25  and  C_26
REMARK   11  A    between atoms: O_27  and  C_28
REMARK   12  A    between atoms: O_29  and  C_30
REMARK                            x       y       z     vdW  Elec       q    Type
REMARK                         _______ _______ _______ _____ _____    ______ ____
ROOT
ATOM      1  C   LIG A   1      -6.841  -0.874 123.890  0.00  0.00    +0.109 C 
ATOM      2  C   LIG A   1      -6.823  -1.763 122.691  0.00  0.00    +0.311 C 
ATOM      3  O   LIG A   1      -5.812  -2.104 122.066  0.00  0.00    -0.251 OA
ATOM      4  O   LIG A   1      -8.076  -2.081 122.303  0.00  0.00    -0.464 OA
ATOM      5  C   LIG A   1      -9.010  -1.572 123.255  0.00  0.00    +0.236 C 
ATOM      6  C   LIG A   1      -8.302  -0.452 124.002  0.00  0.00    +0.045 C 
ENDROOT
BRANCH   1   7
ATOM      7  C   LIG A   1      -6.237  -1.501 125.158  0.00  0.00    +0.050 C 
BRANCH   7  12
ATOM      8  C   LIG A   1      -5.009   1.515 127.164  0.00  0.00    +0.050 A 
ATOM      9  C   LIG A   1      -5.526   1.253 128.439  0.00  0.00    +0.162 A 
ATOM     10  C   LIG A   1      -6.306   0.097 128.643  0.00  0.00    +0.162 A 
ATOM     11  C   LIG A   1      -6.569  -0.725 127.531  0.00  0.00    +0.053 A 
ATOM     12  C   LIG A   1      -5.986  -0.507 126.277  0.00  0.00    -0.043 A 
ATOM     13  C   LIG A   1      -5.215   0.640 126.107  0.00  0.00    +0.007 A 
BRANCH  10  14
ATOM     14  O   LIG A   1      -6.841  -0.195 129.875  0.00  0.00    -0.491 OA
ATOM     15  C   LIG A   1      -8.057   0.469 130.256  0.00  0.00    +0.277 C 
ENDBRANCH  10  14
BRANCH   9  16
ATOM     16  O   LIG A   1      -5.131   2.237 129.302  0.00  0.00    -0.491 OA
ATOM     17  C   LIG A   1      -3.849   2.805 129.164  0.00  0.00    +0.277 C 
ENDBRANCH   9  16
ENDBRANCH   7  12
ENDBRANCH   1   7
BRANCH   6  18
ATOM     18  C   LIG A   1      -8.590   0.903 123.301  0.00  0.00    +0.042 C 
BRANCH  18  19
ATOM     19  C   LIG A   1      -7.897   2.117 123.886  0.00  0.00    -0.043 A 
ATOM     20  C   LIG A   1      -6.923   2.785 123.132  0.00  0.00    +0.053 A 
ATOM     21  C   LIG A   1      -6.231   3.903 123.627  0.00  0.00    +0.162 A 
ATOM     22  C   LIG A   1      -6.556   4.377 124.914  0.00  0.00    +0.162 A 
ATOM     23  C   LIG A   1      -7.524   3.720 125.668  0.00  0.00    +0.050 A 
ATOM     24  C   LIG A   1      -8.138   2.575 125.181  0.00  0.00    +0.007 A 
BRANCH  22  25
ATOM     25  O   LIG A   1      -6.067   5.484 125.556  0.00  0.00    -0.491 OA
ATOM     26  C   LIG A   1      -5.093   5.233 126.556  0.00  0.00    +0.277 C 
ENDBRANCH  22  25
BRANCH  21  27
ATOM     27  O   LIG A   1      -5.264   4.552 122.908  0.00  0.00    -0.491 OA
ATOM     28  C   LIG A   1      -5.208   4.380 121.494  0.00  0.00    +0.277 C 
ENDBRANCH  21  27
ENDBRANCH  18  19
ENDBRANCH   6  18
TORSDOF 8
ENDMDL
