MODEL 1
REMARK VINA RESULT:      -7.6      0.000      0.000
REMARK  Name = NuBBE_2523
REMARK  10 active torsions:
REMARK  status: ('A' for Active; 'I' for Inactive)
REMARK    1  A    between atoms: O_1  and  C_2
REMARK    2  A    between atoms: O_1  and  C_3
REMARK    3  A    between atoms: C_6  and  O_13
REMARK    4  A    between atoms: C_7  and  O_11
REMARK    5  A    between atoms: C_8  and  O_9
REMARK    6  A    between atoms: O_9  and  C_10
REMARK    7  A    between atoms: O_11  and  C_12
REMARK    8  A    between atoms: C_17  and  C_19
REMARK    9  A    between atoms: C_21  and  O_22
REMARK   10  A    between atoms: C_23  and  O_26
REMARK                            x       y       z     vdW  Elec       q    Type
REMARK                         _______ _______ _______ _____ _____    ______ ____
ROOT
ATOM      1  C   UNL A   1      -7.373  -0.861 123.664  0.00  0.00    +0.209 A 
ATOM      2  C   UNL A   1      -7.184   0.497 123.944  0.00  0.00    +0.188 A 
ATOM      3  C   UNL A   1      -7.452   0.971 125.232  0.00  0.00    +0.113 A 
ATOM      4  C   UNL A   1      -7.932   0.093 126.230  0.00  0.00    +0.177 A 
ATOM      5  C   UNL A   1      -8.173  -1.268 125.946  0.00  0.00    +0.208 A 
ATOM      6  C   UNL A   1      -7.876  -1.756 124.660  0.00  0.00    +0.211 A 
ATOM      7  C   UNL A   1      -7.287   2.415 125.481  0.00  0.00    +0.197 A 
ATOM      8  O   UNL A   1      -7.483   2.890 126.596  0.00  0.00    -0.287 OA
ATOM      9  C   UNL A   1      -6.880   3.270 124.352  0.00  0.00    +0.098 A 
ATOM     10  C   UNL A   1      -6.676   2.694 123.166  0.00  0.00    +0.140 A 
ATOM     11  O   UNL A   1      -6.800   1.345 122.927  0.00  0.00    -0.451 OA
ENDROOT
BRANCH  10  12
ATOM     12  C   UNL A   1      -6.273   3.498 122.001  0.00  0.00    +0.021 A 
ATOM     13  C   UNL A   1      -5.191   4.388 122.100  0.00  0.00    +0.060 A 
ATOM     14  C   UNL A   1      -4.878   5.223 121.027  0.00  0.00    +0.159 A 
ATOM     15  C   UNL A   1      -5.627   5.158 119.846  0.00  0.00    +0.158 A 
ATOM     16  C   UNL A   1      -6.672   4.259 119.718  0.00  0.00    +0.050 A 
ATOM     17  C   UNL A   1      -6.998   3.426 120.799  0.00  0.00    +0.015 A 
BRANCH  14  18
ATOM     18  O   UNL A   1      -3.863   6.129 121.078  0.00  0.00    -0.503 OA
ATOM     19  H   UNL A   1      -3.040   5.681 120.817  0.00  0.00    +0.292 HD
ENDBRANCH  14  18
BRANCH  15  20
ATOM     20  O   UNL A   1      -5.334   6.002 118.809  0.00  0.00    -0.503 OA
ATOM     21  H   UNL A   1      -5.108   6.849 119.236  0.00  0.00    +0.292 HD
ENDBRANCH  15  20
ENDBRANCH  10  12
BRANCH   1  22
ATOM     22  O   UNL A   1      -7.216  -1.438 122.421  0.00  0.00    -0.488 OA
ATOM     23  C   UNL A   1      -5.979  -2.054 122.099  0.00  0.00    +0.277 C 
ENDBRANCH   1  22
BRANCH   6  24
ATOM     24  O   UNL A   1      -8.070  -3.018 124.155  0.00  0.00    -0.488 OA
ATOM     25  C   UNL A   1      -9.346  -3.525 123.827  0.00  0.00    +0.277 C 
ENDBRANCH   6  24
BRANCH   5  26
ATOM     26  O   UNL A   1      -8.987  -1.958 126.817  0.00  0.00    -0.488 OA
ATOM     27  C   UNL A   1      -8.380  -3.026 127.543  0.00  0.00    +0.277 C 
ENDBRANCH   5  26
BRANCH   4  28
ATOM     28  O   UNL A   1      -8.232   0.561 127.492  0.00  0.00    -0.503 OA
ATOM     29  H   UNL A   1      -8.524   1.501 127.426  0.00  0.00    +0.292 HD
ENDBRANCH   4  28
TORSDOF 7
ENDMDL
MODEL 2
REMARK VINA RESULT:      -7.5      2.044      3.011
REMARK  Name = NuBBE_2523
REMARK  10 active torsions:
REMARK  status: ('A' for Active; 'I' for Inactive)
REMARK    1  A    between atoms: O_1  and  C_2
REMARK    2  A    between atoms: O_1  and  C_3
REMARK    3  A    between atoms: C_6  and  O_13
REMARK    4  A    between atoms: C_7  and  O_11
REMARK    5  A    between atoms: C_8  and  O_9
REMARK    6  A    between atoms: O_9  and  C_10
REMARK    7  A    between atoms: O_11  and  C_12
REMARK    8  A    between atoms: C_17  and  C_19
REMARK    9  A    between atoms: C_21  and  O_22
REMARK   10  A    between atoms: C_23  and  O_26
REMARK                            x       y       z     vdW  Elec       q    Type
REMARK                         _______ _______ _______ _____ _____    ______ ____
ROOT
ATOM      1  C   UNL A   1      -6.155   1.334 125.752  0.00  0.00    +0.209 A 
ATOM      2  C   UNL A   1      -7.038   1.690 124.727  0.00  0.00    +0.188 A 
ATOM      3  C   UNL A   1      -8.349   1.201 124.756  0.00  0.00    +0.113 A 
ATOM      4  C   UNL A   1      -8.766   0.339 125.795  0.00  0.00    +0.177 A 
ATOM      5  C   UNL A   1      -7.871  -0.066 126.808  0.00  0.00    +0.208 A 
ATOM      6  C   UNL A   1      -6.560   0.447 126.799  0.00  0.00    +0.211 A 
ATOM      7  C   UNL A   1      -9.240   1.558 123.637  0.00  0.00    +0.197 A 
ATOM      8  O   UNL A   1     -10.408   1.180 123.616  0.00  0.00    -0.287 OA
ATOM      9  C   UNL A   1      -8.686   2.378 122.546  0.00  0.00    +0.098 A 
ATOM     10  C   UNL A   1      -7.412   2.762 122.629  0.00  0.00    +0.140 A 
ATOM     11  O   UNL A   1      -6.577   2.460 123.681  0.00  0.00    -0.451 OA
ENDROOT
BRANCH  10  12
ATOM     12  C   UNL A   1      -6.802   3.579 121.567  0.00  0.00    +0.021 A 
ATOM     13  C   UNL A   1      -5.628   4.305 121.824  0.00  0.00    +0.060 A 
ATOM     14  C   UNL A   1      -5.112   5.159 120.849  0.00  0.00    +0.159 A 
ATOM     15  C   UNL A   1      -5.751   5.275 119.609  0.00  0.00    +0.158 A 
ATOM     16  C   UNL A   1      -6.889   4.537 119.325  0.00  0.00    +0.050 A 
ATOM     17  C   UNL A   1      -7.417   3.687 120.308  0.00  0.00    +0.015 A 
BRANCH  14  18
ATOM     18  O   UNL A   1      -3.997   5.913 121.054  0.00  0.00    -0.503 OA
ATOM     19  H   UNL A   1      -4.197   6.576 121.737  0.00  0.00    +0.292 HD
ENDBRANCH  14  18
BRANCH  15  20
ATOM     20  O   UNL A   1      -5.257   6.138 118.668  0.00  0.00    -0.503 OA
ATOM     21  H   UNL A   1      -5.911   6.112 117.943  0.00  0.00    +0.292 HD
ENDBRANCH  15  20
ENDBRANCH  10  12
BRANCH   1  22
ATOM     22  O   UNL A   1      -4.823   1.686 125.801  0.00  0.00    -0.488 OA
ATOM     23  C   UNL A   1      -4.472   2.998 126.212  0.00  0.00    +0.277 C 
ENDBRANCH   1  22
BRANCH   6  24
ATOM     24  O   UNL A   1      -5.520   0.159 127.650  0.00  0.00    -0.488 OA
ATOM     25  C   UNL A   1      -5.538   0.487 129.022  0.00  0.00    +0.277 C 
ENDBRANCH   6  24
BRANCH   5  26
ATOM     26  O   UNL A   1      -8.212  -1.180 127.541  0.00  0.00    -0.488 OA
ATOM     27  C   UNL A   1      -7.824  -2.441 126.998  0.00  0.00    +0.277 C 
ENDBRANCH   5  26
BRANCH   4  28
ATOM     28  O   UNL A   1     -10.046  -0.174 125.811  0.00  0.00    -0.503 OA
ATOM     29  H   UNL A   1     -10.647   0.444 125.331  0.00  0.00    +0.292 HD
ENDBRANCH   4  28
TORSDOF 7
ENDMDL
MODEL 3
REMARK VINA RESULT:      -7.2      1.779      2.343
REMARK  Name = NuBBE_2523
REMARK  10 active torsions:
REMARK  status: ('A' for Active; 'I' for Inactive)
REMARK    1  A    between atoms: O_1  and  C_2
REMARK    2  A    between atoms: O_1  and  C_3
REMARK    3  A    between atoms: C_6  and  O_13
REMARK    4  A    between atoms: C_7  and  O_11
REMARK    5  A    between atoms: C_8  and  O_9
REMARK    6  A    between atoms: O_9  and  C_10
REMARK    7  A    between atoms: O_11  and  C_12
REMARK    8  A    between atoms: C_17  and  C_19
REMARK    9  A    between atoms: C_21  and  O_22
REMARK   10  A    between atoms: C_23  and  O_26
REMARK                            x       y       z     vdW  Elec       q    Type
REMARK                         _______ _______ _______ _____ _____    ______ ____
ROOT
ATOM      1  C   UNL A   1      -8.172  -0.444 125.017  0.00  0.00    +0.209 A 
ATOM      2  C   UNL A   1      -7.403   0.712 124.847  0.00  0.00    +0.188 A 
ATOM      3  C   UNL A   1      -6.634   1.182 125.917  0.00  0.00    +0.113 A 
ATOM      4  C   UNL A   1      -6.654   0.509 127.160  0.00  0.00    +0.177 A 
ATOM      5  C   UNL A   1      -7.463  -0.630 127.357  0.00  0.00    +0.208 A 
ATOM      6  C   UNL A   1      -8.216  -1.123 126.275  0.00  0.00    +0.211 A 
ATOM      7  C   UNL A   1      -5.870   2.428 125.720  0.00  0.00    +0.197 A 
ATOM      8  O   UNL A   1      -5.157   2.879 126.612  0.00  0.00    -0.287 OA
ATOM      9  C   UNL A   1      -5.991   3.115 124.422  0.00  0.00    +0.098 A 
ATOM     10  C   UNL A   1      -6.777   2.572 123.491  0.00  0.00    +0.140 A 
ATOM     11  O   UNL A   1      -7.472   1.396 123.652  0.00  0.00    -0.451 OA
ENDROOT
BRANCH  10  12
ATOM     12  C   UNL A   1      -6.940   3.216 122.178  0.00  0.00    +0.021 A 
ATOM     13  C   UNL A   1      -8.220   3.362 121.619  0.00  0.00    +0.060 A 
ATOM     14  C   UNL A   1      -8.361   3.876 120.330  0.00  0.00    +0.159 A 
ATOM     15  C   UNL A   1      -7.231   4.267 119.603  0.00  0.00    +0.158 A 
ATOM     16  C   UNL A   1      -5.963   4.167 120.154  0.00  0.00    +0.050 A 
ATOM     17  C   UNL A   1      -5.817   3.637 121.445  0.00  0.00    +0.015 A 
BRANCH  14  18
ATOM     18  O   UNL A   1      -9.574   4.009 119.725  0.00  0.00    -0.503 OA
ATOM     19  H   UNL A   1      -9.827   3.146 119.354  0.00  0.00    +0.292 HD
ENDBRANCH  14  18
BRANCH  15  20
ATOM     20  O   UNL A   1      -7.374   4.743 118.328  0.00  0.00    -0.503 OA
ATOM     21  H   UNL A   1      -7.489   5.706 118.436  0.00  0.00    +0.292 HD
ENDBRANCH  15  20
ENDBRANCH  10  12
BRANCH   1  22
ATOM     22  O   UNL A   1      -9.027  -0.967 124.069  0.00  0.00    -0.488 OA
ATOM     23  C   UNL A   1      -8.487  -1.715 122.992  0.00  0.00    +0.277 C 
ENDBRANCH   1  22
BRANCH   6  24
ATOM     24  O   UNL A   1      -9.096  -2.177 126.252  0.00  0.00    -0.488 OA
ATOM     25  C   UNL A   1      -8.680  -3.524 126.308  0.00  0.00    +0.277 C 
ENDBRANCH   6  24
BRANCH   5  26
ATOM     26  O   UNL A   1      -7.735  -0.991 128.658  0.00  0.00    -0.488 OA
ATOM     27  C   UNL A   1      -7.003  -2.102 129.174  0.00  0.00    +0.277 C 
ENDBRANCH   5  26
BRANCH   4  28
ATOM     28  O   UNL A   1      -5.925   0.987 128.229  0.00  0.00    -0.503 OA
ATOM     29  H   UNL A   1      -5.262   0.307 128.496  0.00  0.00    +0.292 HD
ENDBRANCH   4  28
TORSDOF 7
ENDMDL
MODEL 4
REMARK VINA RESULT:      -7.0      5.979      8.216
REMARK  Name = NuBBE_2523
REMARK  10 active torsions:
REMARK  status: ('A' for Active; 'I' for Inactive)
REMARK    1  A    between atoms: O_1  and  C_2
REMARK    2  A    between atoms: O_1  and  C_3
REMARK    3  A    between atoms: C_6  and  O_13
REMARK    4  A    between atoms: C_7  and  O_11
REMARK    5  A    between atoms: C_8  and  O_9
REMARK    6  A    between atoms: O_9  and  C_10
REMARK    7  A    between atoms: O_11  and  C_12
REMARK    8  A    between atoms: C_17  and  C_19
REMARK    9  A    between atoms: C_21  and  O_22
REMARK   10  A    between atoms: C_23  and  O_26
REMARK                            x       y       z     vdW  Elec       q    Type
REMARK                         _______ _______ _______ _____ _____    ______ ____
ROOT
ATOM      1  C   UNL A   1      -8.567   2.267 128.985  0.00  0.00    +0.209 A 
ATOM      2  C   UNL A   1      -9.029   3.124 129.990  0.00  0.00    +0.188 A 
ATOM      3  C   UNL A   1      -8.848   2.764 131.329  0.00  0.00    +0.113 A 
ATOM      4  C   UNL A   1      -8.228   1.538 131.661  0.00  0.00    +0.177 A 
ATOM      5  C   UNL A   1      -7.802   0.643 130.657  0.00  0.00    +0.208 A 
ATOM      6  C   UNL A   1      -7.956   1.014 129.307  0.00  0.00    +0.211 A 
ATOM      7  C   UNL A   1      -9.387   3.667 132.363  0.00  0.00    +0.197 A 
ATOM      8  O   UNL A   1      -9.239   3.419 133.556  0.00  0.00    -0.287 OA
ATOM      9  C   UNL A   1     -10.108   4.873 131.920  0.00  0.00    +0.098 A 
ATOM     10  C   UNL A   1     -10.229   5.089 130.609  0.00  0.00    +0.140 A 
ATOM     11  O   UNL A   1      -9.708   4.270 129.635  0.00  0.00    -0.451 OA
ENDROOT
BRANCH  10  12
ATOM     12  C   UNL A   1     -10.943   6.275 130.107  0.00  0.00    +0.021 A 
ATOM     13  C   UNL A   1     -10.525   6.898 128.920  0.00  0.00    +0.060 A 
ATOM     14  C   UNL A   1     -11.136   8.081 128.504  0.00  0.00    +0.159 A 
ATOM     15  C   UNL A   1     -12.180   8.634 129.256  0.00  0.00    +0.158 A 
ATOM     16  C   UNL A   1     -12.631   8.011 130.408  0.00  0.00    +0.050 A 
ATOM     17  C   UNL A   1     -12.009   6.828 130.837  0.00  0.00    +0.015 A 
BRANCH  14  18
ATOM     18  O   UNL A   1     -10.750   8.747 127.381  0.00  0.00    -0.503 OA
ATOM     19  H   UNL A   1     -10.338   8.109 126.774  0.00  0.00    +0.292 HD
ENDBRANCH  14  18
BRANCH  15  20
ATOM     20  O   UNL A   1     -12.755   9.810 128.858  0.00  0.00    -0.503 OA
ATOM     21  H   UNL A   1     -12.212  10.504 129.277  0.00  0.00    +0.292 HD
ENDBRANCH  15  20
ENDBRANCH  10  12
BRANCH   1  22
ATOM     22  O   UNL A   1      -8.749   2.469 127.633  0.00  0.00    -0.488 OA
ATOM     23  C   UNL A   1      -7.849   3.316 126.936  0.00  0.00    +0.277 C 
ENDBRANCH   1  22
BRANCH   6  24
ATOM     24  O   UNL A   1      -7.657   0.290 128.179  0.00  0.00    -0.488 OA
ATOM     25  C   UNL A   1      -6.334   0.016 127.772  0.00  0.00    +0.277 C 
ENDBRANCH   6  24
BRANCH   5  26
ATOM     26  O   UNL A   1      -7.576  -0.663 131.032  0.00  0.00    -0.488 OA
ATOM     27  C   UNL A   1      -6.214  -1.042 131.222  0.00  0.00    +0.277 C 
ENDBRANCH   5  26
BRANCH   4  28
ATOM     28  O   UNL A   1      -8.078   1.160 132.979  0.00  0.00    -0.503 OA
ATOM     29  H   UNL A   1      -7.250   1.561 133.337  0.00  0.00    +0.292 HD
ENDBRANCH   4  28
TORSDOF 7
ENDMDL
MODEL 5
REMARK VINA RESULT:      -6.9      3.927      8.883
REMARK  Name = NuBBE_2523
REMARK  10 active torsions:
REMARK  status: ('A' for Active; 'I' for Inactive)
REMARK    1  A    between atoms: O_1  and  C_2
REMARK    2  A    between atoms: O_1  and  C_3
REMARK    3  A    between atoms: C_6  and  O_13
REMARK    4  A    between atoms: C_7  and  O_11
REMARK    5  A    between atoms: C_8  and  O_9
REMARK    6  A    between atoms: O_9  and  C_10
REMARK    7  A    between atoms: O_11  and  C_12
REMARK    8  A    between atoms: C_17  and  C_19
REMARK    9  A    between atoms: C_21  and  O_22
REMARK   10  A    between atoms: C_23  and  O_26
REMARK                            x       y       z     vdW  Elec       q    Type
REMARK                         _______ _______ _______ _____ _____    ______ ____
ROOT
ATOM      1  C   UNL A   1      -6.447  -1.028 126.207  0.00  0.00    +0.209 A 
ATOM      2  C   UNL A   1      -6.881  -1.988 127.128  0.00  0.00    +0.188 A 
ATOM      3  C   UNL A   1      -8.126  -2.596 126.941  0.00  0.00    +0.113 A 
ATOM      4  C   UNL A   1      -8.944  -2.227 125.849  0.00  0.00    +0.177 A 
ATOM      5  C   UNL A   1      -8.539  -1.225 124.942  0.00  0.00    +0.208 A 
ATOM      6  C   UNL A   1      -7.273  -0.631 125.109  0.00  0.00    +0.211 A 
ATOM      7  C   UNL A   1      -8.574  -3.570 127.953  0.00  0.00    +0.197 A 
ATOM      8  O   UNL A   1      -9.646  -4.156 127.834  0.00  0.00    -0.287 OA
ATOM      9  C   UNL A   1      -7.697  -3.816 129.112  0.00  0.00    +0.098 A 
ATOM     10  C   UNL A   1      -6.542  -3.152 129.181  0.00  0.00    +0.140 A 
ATOM     11  O   UNL A   1      -6.100  -2.262 128.230  0.00  0.00    -0.451 OA
ENDROOT
BRANCH  10  12
ATOM     12  C   UNL A   1      -5.628  -3.354 130.317  0.00  0.00    +0.021 A 
ATOM     13  C   UNL A   1      -4.600  -2.430 130.565  0.00  0.00    +0.060 A 
ATOM     14  C   UNL A   1      -3.672  -2.679 131.576  0.00  0.00    +0.159 A 
ATOM     15  C   UNL A   1      -3.779  -3.835 132.358  0.00  0.00    +0.158 A 
ATOM     16  C   UNL A   1      -4.810  -4.737 132.152  0.00  0.00    +0.050 A 
ATOM     17  C   UNL A   1      -5.737  -4.497 131.127  0.00  0.00    +0.015 A 
BRANCH  14  18
ATOM     18  O   UNL A   1      -2.635  -1.836 131.840  0.00  0.00    -0.503 OA
ATOM     19  H   UNL A   1      -1.955  -1.964 131.156  0.00  0.00    +0.292 HD
ENDBRANCH  14  18
BRANCH  15  20
ATOM     20  O   UNL A   1      -2.848  -4.088 133.329  0.00  0.00    -0.503 OA
ATOM     21  H   UNL A   1      -2.927  -5.045 133.503  0.00  0.00    +0.292 HD
ENDBRANCH  15  20
ENDBRANCH  10  12
BRANCH   1  22
ATOM     22  O   UNL A   1      -5.278  -0.303 126.317  0.00  0.00    -0.488 OA
ATOM     23  C   UNL A   1      -5.212   0.759 127.255  0.00  0.00    +0.277 C 
ENDBRANCH   1  22
BRANCH   6  24
ATOM     24  O   UNL A   1      -6.699   0.382 124.381  0.00  0.00    -0.488 OA
ATOM     25  C   UNL A   1      -7.239   1.684 124.322  0.00  0.00    +0.277 C 
ENDBRANCH   6  24
BRANCH   5  26
ATOM     26  O   UNL A   1      -9.516  -0.651 124.160  0.00  0.00    -0.488 OA
ATOM     27  C   UNL A   1      -9.462  -0.938 122.764  0.00  0.00    +0.277 C 
ENDBRANCH   5  26
BRANCH   4  28
ATOM     28  O   UNL A   1     -10.188  -2.798 125.679  0.00  0.00    -0.503 OA
ATOM     29  H   UNL A   1     -10.604  -2.935 126.564  0.00  0.00    +0.292 HD
ENDBRANCH   4  28
TORSDOF 7
ENDMDL
MODEL 6
REMARK VINA RESULT:      -6.8      2.657      8.050
REMARK  Name = NuBBE_2523
REMARK  10 active torsions:
REMARK  status: ('A' for Active; 'I' for Inactive)
REMARK    1  A    between atoms: O_1  and  C_2
REMARK    2  A    between atoms: O_1  and  C_3
REMARK    3  A    between atoms: C_6  and  O_13
REMARK    4  A    between atoms: C_7  and  O_11
REMARK    5  A    between atoms: C_8  and  O_9
REMARK    6  A    between atoms: O_9  and  C_10
REMARK    7  A    between atoms: O_11  and  C_12
REMARK    8  A    between atoms: C_17  and  C_19
REMARK    9  A    between atoms: C_21  and  O_22
REMARK   10  A    between atoms: C_23  and  O_26
REMARK                            x       y       z     vdW  Elec       q    Type
REMARK                         _______ _______ _______ _____ _____    ______ ____
ROOT
ATOM      1  C   UNL A   1      -6.748   1.807 125.328  0.00  0.00    +0.209 A 
ATOM      2  C   UNL A   1      -7.234   0.502 125.461  0.00  0.00    +0.188 A 
ATOM      3  C   UNL A   1      -8.193   0.037 124.555  0.00  0.00    +0.113 A 
ATOM      4  C   UNL A   1      -8.681   0.884 123.534  0.00  0.00    +0.177 A 
ATOM      5  C   UNL A   1      -8.234   2.218 123.420  0.00  0.00    +0.208 A 
ATOM      6  C   UNL A   1      -7.247   2.681 124.311  0.00  0.00    +0.211 A 
ATOM      7  C   UNL A   1      -8.718  -1.327 124.751  0.00  0.00    +0.197 A 
ATOM      8  O   UNL A   1      -9.543  -1.802 123.976  0.00  0.00    -0.287 OA
ATOM      9  C   UNL A   1      -8.224  -2.099 125.904  0.00  0.00    +0.098 A 
ATOM     10  C   UNL A   1      -7.323  -1.530 126.706  0.00  0.00    +0.140 A 
ATOM     11  O   UNL A   1      -6.804  -0.270 126.519  0.00  0.00    -0.451 OA
ENDROOT
BRANCH  10  12
ATOM     12  C   UNL A   1      -6.797  -2.252 127.876  0.00  0.00    +0.021 A 
ATOM     13  C   UNL A   1      -5.411  -2.350 128.077  0.00  0.00    +0.060 A 
ATOM     14  C   UNL A   1      -4.914  -3.123 129.127  0.00  0.00    +0.159 A 
ATOM     15  C   UNL A   1      -5.797  -3.781 129.992  0.00  0.00    +0.158 A 
ATOM     16  C   UNL A   1      -7.167  -3.663 129.831  0.00  0.00    +0.050 A 
ATOM     17  C   UNL A   1      -7.670  -2.897 128.768  0.00  0.00    +0.015 A 
BRANCH  14  18
ATOM     18  O   UNL A   1      -3.580  -3.282 129.350  0.00  0.00    -0.503 OA
ATOM     19  H   UNL A   1      -3.451  -3.492 130.291  0.00  0.00    +0.292 HD
ENDBRANCH  14  18
BRANCH  15  20
ATOM     20  O   UNL A   1      -5.303  -4.561 131.002  0.00  0.00    -0.503 OA
ATOM     21  H   UNL A   1      -4.484  -4.110 131.285  0.00  0.00    +0.292 HD
ENDBRANCH  15  20
ENDBRANCH  10  12
BRANCH   1  22
ATOM     22  O   UNL A   1      -5.860   2.409 126.196  0.00  0.00    -0.488 OA
ATOM     23  C   UNL A   1      -4.513   1.964 126.222  0.00  0.00    +0.277 C 
ENDBRANCH   1  22
BRANCH   6  24
ATOM     24  O   UNL A   1      -6.704   3.938 124.411  0.00  0.00    -0.488 OA
ATOM     25  C   UNL A   1      -5.651   4.387 123.586  0.00  0.00    +0.277 C 
ENDBRANCH   6  24
BRANCH   5  26
ATOM     26  O   UNL A   1      -9.011   3.081 122.681  0.00  0.00    -0.488 OA
ATOM     27  C   UNL A   1      -8.499   3.462 121.405  0.00  0.00    +0.277 C 
ENDBRANCH   5  26
BRANCH   4  28
ATOM     28  O   UNL A   1      -9.651   0.443 122.660  0.00  0.00    -0.503 OA
ATOM     29  H   UNL A   1     -10.540   0.607 123.056  0.00  0.00    +0.292 HD
ENDBRANCH   4  28
TORSDOF 7
ENDMDL
MODEL 7
REMARK VINA RESULT:      -6.8      3.399      4.822
REMARK  Name = NuBBE_2523
REMARK  10 active torsions:
REMARK  status: ('A' for Active; 'I' for Inactive)
REMARK    1  A    between atoms: O_1  and  C_2
REMARK    2  A    between atoms: O_1  and  C_3
REMARK    3  A    between atoms: C_6  and  O_13
REMARK    4  A    between atoms: C_7  and  O_11
REMARK    5  A    between atoms: C_8  and  O_9
REMARK    6  A    between atoms: O_9  and  C_10
REMARK    7  A    between atoms: O_11  and  C_12
REMARK    8  A    between atoms: C_17  and  C_19
REMARK    9  A    between atoms: C_21  and  O_22
REMARK   10  A    between atoms: C_23  and  O_26
REMARK                            x       y       z     vdW  Elec       q    Type
REMARK                         _______ _______ _______ _____ _____    ______ ____
ROOT
ATOM      1  C   UNL A   1      -7.181  -0.899 126.832  0.00  0.00    +0.209 A 
ATOM      2  C   UNL A   1      -7.193   0.382 126.269  0.00  0.00    +0.188 A 
ATOM      3  C   UNL A   1      -8.167   0.698 125.316  0.00  0.00    +0.113 A 
ATOM      4  C   UNL A   1      -9.111  -0.273 124.911  0.00  0.00    +0.177 A 
ATOM      5  C   UNL A   1      -9.078  -1.583 125.435  0.00  0.00    +0.208 A 
ATOM      6  C   UNL A   1      -8.119  -1.897 126.417  0.00  0.00    +0.211 A 
ATOM      7  C   UNL A   1      -8.124   2.041 124.708  0.00  0.00    +0.197 A 
ATOM      8  O   UNL A   1      -8.965   2.388 123.884  0.00  0.00    -0.287 OA
ATOM      9  C   UNL A   1      -7.041   2.951 125.120  0.00  0.00    +0.098 A 
ATOM     10  C   UNL A   1      -6.162   2.518 126.024  0.00  0.00    +0.140 A 
ATOM     11  O   UNL A   1      -6.207   1.278 126.619  0.00  0.00    -0.451 OA
ENDROOT
BRANCH  10  12
ATOM     12  C   UNL A   1      -5.056   3.381 126.470  0.00  0.00    +0.021 A 
ATOM     13  C   UNL A   1      -3.727   2.948 126.338  0.00  0.00    +0.060 A 
ATOM     14  C   UNL A   1      -2.689   3.722 126.857  0.00  0.00    +0.159 A 
ATOM     15  C   UNL A   1      -2.970   4.940 127.487  0.00  0.00    +0.158 A 
ATOM     16  C   UNL A   1      -4.272   5.401 127.591  0.00  0.00    +0.050 A 
ATOM     17  C   UNL A   1      -5.319   4.619 127.083  0.00  0.00    +0.015 A 
BRANCH  14  18
ATOM     18  O   UNL A   1      -1.385   3.336 126.789  0.00  0.00    -0.503 OA
ATOM     19  H   UNL A   1      -0.840   4.024 127.209  0.00  0.00    +0.292 HD
ENDBRANCH  14  18
BRANCH  15  20
ATOM     20  O   UNL A   1      -1.949   5.680 128.021  0.00  0.00    -0.503 OA
ATOM     21  H   UNL A   1      -2.165   6.603 127.785  0.00  0.00    +0.292 HD
ENDBRANCH  15  20
ENDBRANCH  10  12
BRANCH   1  22
ATOM     22  O   UNL A   1      -6.234  -1.359 127.723  0.00  0.00    -0.488 OA
ATOM     23  C   UNL A   1      -6.337  -0.991 129.089  0.00  0.00    +0.277 C 
ENDBRANCH   1  22
BRANCH   6  24
ATOM     24  O   UNL A   1      -7.879  -3.104 127.026  0.00  0.00    -0.488 OA
ATOM     25  C   UNL A   1      -8.818  -3.740 127.864  0.00  0.00    +0.277 C 
ENDBRANCH   6  24
BRANCH   5  26
ATOM     26  O   UNL A   1      -9.748  -2.559 124.733  0.00  0.00    -0.488 OA
ATOM     27  C   UNL A   1      -9.000  -3.248 123.732  0.00  0.00    +0.277 C 
ENDBRANCH   5  26
BRANCH   4  28
ATOM     28  O   UNL A   1     -10.051   0.021 123.946  0.00  0.00    -0.503 OA
ATOM     29  H   UNL A   1      -9.644   0.613 123.269  0.00  0.00    +0.292 HD
ENDBRANCH   4  28
TORSDOF 7
ENDMDL
MODEL 8
REMARK VINA RESULT:      -6.7      1.699      2.377
REMARK  Name = NuBBE_2523
REMARK  10 active torsions:
REMARK  status: ('A' for Active; 'I' for Inactive)
REMARK    1  A    between atoms: O_1  and  C_2
REMARK    2  A    between atoms: O_1  and  C_3
REMARK    3  A    between atoms: C_6  and  O_13
REMARK    4  A    between atoms: C_7  and  O_11
REMARK    5  A    between atoms: C_8  and  O_9
REMARK    6  A    between atoms: O_9  and  C_10
REMARK    7  A    between atoms: O_11  and  C_12
REMARK    8  A    between atoms: C_17  and  C_19
REMARK    9  A    between atoms: C_21  and  O_22
REMARK   10  A    between atoms: C_23  and  O_26
REMARK                            x       y       z     vdW  Elec       q    Type
REMARK                         _______ _______ _______ _____ _____    ______ ____
ROOT
ATOM      1  C   UNL A   1      -7.259   0.331 125.879  0.00  0.00    +0.209 A 
ATOM      2  C   UNL A   1      -6.782   1.638 125.734  0.00  0.00    +0.188 A 
ATOM      3  C   UNL A   1      -6.661   2.449 126.868  0.00  0.00    +0.113 A 
ATOM      4  C   UNL A   1      -7.040   1.960 128.138  0.00  0.00    +0.177 A 
ATOM      5  C   UNL A   1      -7.568   0.660 128.290  0.00  0.00    +0.208 A 
ATOM      6  C   UNL A   1      -7.664  -0.170 127.157  0.00  0.00    +0.211 A 
ATOM      7  C   UNL A   1      -6.199   3.836 126.675  0.00  0.00    +0.197 A 
ATOM      8  O   UNL A   1      -6.049   4.590 127.632  0.00  0.00    -0.287 OA
ATOM      9  C   UNL A   1      -5.924   4.288 125.300  0.00  0.00    +0.098 A 
ATOM     10  C   UNL A   1      -6.100   3.420 124.303  0.00  0.00    +0.140 A 
ATOM     11  O   UNL A   1      -6.504   2.115 124.472  0.00  0.00    -0.451 OA
ENDROOT
BRANCH  10  12
ATOM     12  C   UNL A   1      -5.846   3.817 122.908  0.00  0.00    +0.021 A 
ATOM     13  C   UNL A   1      -4.910   4.824 122.622  0.00  0.00    +0.060 A 
ATOM     14  C   UNL A   1      -4.748   5.270 121.311  0.00  0.00    +0.159 A 
ATOM     15  C   UNL A   1      -5.500   4.698 120.278  0.00  0.00    +0.158 A 
ATOM     16  C   UNL A   1      -6.399   3.677 120.536  0.00  0.00    +0.050 A 
ATOM     17  C   UNL A   1      -6.574   3.235 121.857  0.00  0.00    +0.015 A 
BRANCH  14  18
ATOM     18  O   UNL A   1      -3.881   6.266 120.979  0.00  0.00    -0.503 OA
ATOM     19  H   UNL A   1      -3.256   5.921 120.319  0.00  0.00    +0.292 HD
ENDBRANCH  14  18
BRANCH  15  20
ATOM     20  O   UNL A   1      -5.358   5.161 118.997  0.00  0.00    -0.503 OA
ATOM     21  H   UNL A   1      -6.269   5.344 118.699  0.00  0.00    +0.292 HD
ENDBRANCH  15  20
ENDBRANCH  10  12
BRANCH   1  22
ATOM     22  O   UNL A   1      -7.494  -0.542 124.837  0.00  0.00    -0.488 OA
ATOM     23  C   UNL A   1      -6.389  -1.129 124.168  0.00  0.00    +0.277 C 
ENDBRANCH   1  22
BRANCH   6  24
ATOM     24  O   UNL A   1      -8.182  -1.438 127.063  0.00  0.00    -0.488 OA
ATOM     25  C   UNL A   1      -7.525  -2.574 127.582  0.00  0.00    +0.277 C 
ENDBRANCH   6  24
BRANCH   5  26
ATOM     26  O   UNL A   1      -8.265   0.395 129.448  0.00  0.00    -0.488 OA
ATOM     27  C   UNL A   1      -7.574  -0.354 130.447  0.00  0.00    +0.277 C 
ENDBRANCH   5  26
BRANCH   4  28
ATOM     28  O   UNL A   1      -6.957   2.765 129.255  0.00  0.00    -0.503 OA
ATOM     29  H   UNL A   1      -6.113   3.276 129.221  0.00  0.00    +0.292 HD
ENDBRANCH   4  28
TORSDOF 7
ENDMDL
MODEL 9
REMARK VINA RESULT:      -6.7      4.221      7.665
REMARK  Name = NuBBE_2523
REMARK  10 active torsions:
REMARK  status: ('A' for Active; 'I' for Inactive)
REMARK    1  A    between atoms: O_1  and  C_2
REMARK    2  A    between atoms: O_1  and  C_3
REMARK    3  A    between atoms: C_6  and  O_13
REMARK    4  A    between atoms: C_7  and  O_11
REMARK    5  A    between atoms: C_8  and  O_9
REMARK    6  A    between atoms: O_9  and  C_10
REMARK    7  A    between atoms: O_11  and  C_12
REMARK    8  A    between atoms: C_17  and  C_19
REMARK    9  A    between atoms: C_21  and  O_22
REMARK   10  A    between atoms: C_23  and  O_26
REMARK                            x       y       z     vdW  Elec       q    Type
REMARK                         _______ _______ _______ _____ _____    ______ ____
ROOT
ATOM      1  C   UNL A   1      -8.567   1.880 125.898  0.00  0.00    +0.209 A 
ATOM      2  C   UNL A   1      -8.396   1.584 127.255  0.00  0.00    +0.188 A 
ATOM      3  C   UNL A   1      -8.013   0.291 127.627  0.00  0.00    +0.113 A 
ATOM      4  C   UNL A   1      -7.825  -0.708 126.646  0.00  0.00    +0.177 A 
ATOM      5  C   UNL A   1      -8.042  -0.435 125.279  0.00  0.00    +0.208 A 
ATOM      6  C   UNL A   1      -8.399   0.872 124.896  0.00  0.00    +0.211 A 
ATOM      7  C   UNL A   1      -7.886   0.000 129.067  0.00  0.00    +0.197 A 
ATOM      8  O   UNL A   1      -7.530  -1.108 129.458  0.00  0.00    -0.287 OA
ATOM      9  C   UNL A   1      -8.201   1.078 130.021  0.00  0.00    +0.098 A 
ATOM     10  C   UNL A   1      -8.577   2.262 129.534  0.00  0.00    +0.140 A 
ATOM     11  O   UNL A   1      -8.672   2.555 128.193  0.00  0.00    -0.451 OA
ENDROOT
BRANCH  10  12
ATOM     12  C   UNL A   1      -8.908   3.375 130.439  0.00  0.00    +0.021 A 
ATOM     13  C   UNL A   1      -9.106   3.135 131.808  0.00  0.00    +0.060 A 
ATOM     14  C   UNL A   1      -9.522   4.171 132.642  0.00  0.00    +0.159 A 
ATOM     15  C   UNL A   1      -9.720   5.456 132.121  0.00  0.00    +0.158 A 
ATOM     16  C   UNL A   1      -9.491   5.719 130.780  0.00  0.00    +0.050 A 
ATOM     17  C   UNL A   1      -9.085   4.675 129.935  0.00  0.00    +0.015 A 
BRANCH  14  18
ATOM     18  O   UNL A   1      -9.763   3.990 133.971  0.00  0.00    -0.503 OA
ATOM     19  H   UNL A   1      -9.690   4.851 134.415  0.00  0.00    +0.292 HD
ENDBRANCH  14  18
BRANCH  15  20
ATOM     20  O   UNL A   1     -10.157   6.462 132.939  0.00  0.00    -0.503 OA
ATOM     21  H   UNL A   1      -9.834   6.216 133.826  0.00  0.00    +0.292 HD
ENDBRANCH  15  20
ENDBRANCH  10  12
BRANCH   1  22
ATOM     22  O   UNL A   1      -9.012   3.089 125.405  0.00  0.00    -0.488 OA
ATOM     23  C   UNL A   1      -8.096   4.166 125.294  0.00  0.00    +0.277 C 
ENDBRANCH   1  22
BRANCH   6  24
ATOM     24  O   UNL A   1      -8.699   1.347 123.643  0.00  0.00    -0.488 OA
ATOM     25  C   UNL A   1      -9.870   0.984 122.945  0.00  0.00    +0.277 C 
ENDBRANCH   6  24
BRANCH   5  26
ATOM     26  O   UNL A   1      -8.223  -1.514 124.442  0.00  0.00    -0.488 OA
ATOM     27  C   UNL A   1      -7.179  -1.773 123.505  0.00  0.00    +0.277 C 
ENDBRANCH   5  26
BRANCH   4  28
ATOM     28  O   UNL A   1      -7.482  -1.993 127.009  0.00  0.00    -0.503 OA
ATOM     29  H   UNL A   1      -8.244  -2.594 126.827  0.00  0.00    +0.292 HD
ENDBRANCH   4  28
TORSDOF 7
ENDMDL
