MODEL 1
REMARK VINA RESULT:      -9.5      0.000      0.000
REMARK  Name = NuBBE_1406
REMARK  15 active torsions:
REMARK  status: ('A' for Active; 'I' for Inactive)
REMARK    1  A    between atoms: C_1  and  C_2
REMARK    2  A    between atoms: C_3  and  C_4
REMARK    3  A    between atoms: C_5  and  C_9
REMARK    4  A    between atoms: C_11  and  O_13
REMARK    5  A    between atoms: O_13  and  C_14
REMARK    6  A    between atoms: C_16  and  C_19
REMARK    7  A    between atoms: C_19  and  C_21
REMARK    8  A    between atoms: C_19  and  O_26
REMARK    9  A    between atoms: C_21  and  O_22
REMARK   10  A    between atoms: C_21  and  C_24
REMARK   11  A    between atoms: C_21  and  C_25
REMARK   12  A    between atoms: O_22  and  C_23
REMARK   13  A    between atoms: C_36  and  C_37
REMARK   14  A    between atoms: C_42  and  C_43
REMARK   15  A    between atoms: C_42  and  C_44
REMARK                            x       y       z     vdW  Elec       q    Type
REMARK                         _______ _______ _______ _____ _____    ______ ____
ROOT
ATOM      1  C   LIG A   1      -8.303   2.381 128.138  0.00  0.00    +0.016 C 
ATOM      2  C   LIG A   1      -6.876   2.076 128.693  0.00  0.00    -0.005 C 
ATOM      3  C   LIG A   1      -6.725   2.052 130.257  0.00  0.00    -0.020 C 
ATOM      4  C   LIG A   1      -5.228   1.815 130.696  0.00  0.00    +0.012 C 
ATOM      5  C   LIG A   1      -7.056   3.521 130.688  0.00  0.00    +0.004 C 
ATOM      6  C   LIG A   1      -6.453   4.340 129.488  0.00  0.00    +0.005 C 
ATOM      7  C   LIG A   1      -6.042   3.333 128.374  0.00  0.00    +0.012 C 
ATOM      8  C   LIG A   1      -7.537   0.900 130.863  0.00  0.00    +0.008 C 
ATOM      9  C   LIG A   1      -7.122  -0.453 130.283  0.00  0.00    +0.009 C 
ATOM     10  C   LIG A   1      -7.263  -0.478 128.749  0.00  0.00    +0.021 C 
ATOM     11  C   LIG A   1      -6.548   0.701 128.083  0.00  0.00    -0.063 C 
ATOM     12  C   LIG A   1      -5.875   0.546 126.931  0.00  0.00    -0.026 C 
ATOM     13  C   LIG A   1      -5.834  -0.736 126.150  0.00  0.00    +0.032 C 
ATOM     14  C   LIG A   1      -6.854  -1.827 126.574  0.00  0.00    +0.012 C 
ATOM     15  C   LIG A   1      -6.974  -1.899 128.138  0.00  0.00    -0.021 C 
ATOM     16  C   LIG A   1      -5.642  -2.487 128.683  0.00  0.00    +0.012 C 
ATOM     17  C   LIG A   1      -8.126  -2.857 128.576  0.00  0.00    +0.015 C 
ATOM     18  C   LIG A   1      -8.570  -3.809 127.482  0.00  0.00    +0.075 C 
ATOM     19  C   LIG A   1      -9.095  -2.999 126.324  0.00  0.00    +0.139 C 
ATOM     20  O   LIG A   1     -10.180  -3.290 125.804  0.00  0.00    -0.297 OA
ATOM     21  C   LIG A   1      -8.227  -1.840 125.802  0.00  0.00    +0.027 C 
ATOM     22  C   LIG A   1      -7.993  -2.122 124.301  0.00  0.00    +0.019 C 
ATOM     23  C   LIG A   1      -9.055  -0.554 125.909  0.00  0.00    +0.019 C 
ENDROOT
BRANCH   5  24
ATOM     24  C   LIG A   1      -8.530   3.942 131.016  0.00  0.00    +0.051 C 
ATOM     25  C   LIG A   1      -8.706   5.115 131.993  0.00  0.00    +0.254 C 
ATOM     26  O   LIG A   1      -9.232   6.216 131.272  0.00  0.00    -0.345 OA
ATOM     27  C   LIG A   1      -9.985   5.719 130.169  0.00  0.00    +0.153 C 
ATOM     28  C   LIG A   1      -9.280   4.424 129.763  0.00  0.00    +0.043 C 
BRANCH  25  29
ATOM     29  O   LIG A   1      -9.612   4.698 133.020  0.00  0.00    -0.354 OA
ATOM     30  C   LIG A   1      -9.124   3.589 133.762  0.00  0.00    +0.197 C 
ENDBRANCH  25  29
BRANCH  27  31
ATOM     31  C   LIG A   1     -10.068   6.793 129.051  0.00  0.00    +0.174 C 
BRANCH  31  32
ATOM     32  C   LIG A   1     -11.536   7.155 128.600  0.00  0.00    +0.092 C 
ATOM     33  C   LIG A   1     -12.602   6.423 129.437  0.00  0.00    +0.044 C 
ATOM     34  C   LIG A   1     -11.749   8.675 128.759  0.00  0.00    +0.044 C 
BRANCH  32  35
ATOM     35  O   LIG A   1     -11.634   6.801 127.202  0.00  0.00    -0.374 OA
ATOM     36  C   LIG A   1     -10.935   7.622 126.277  0.00  0.00    +0.194 C 
ENDBRANCH  32  35
ENDBRANCH  31  32
BRANCH  31  37
ATOM     37  O   LIG A   1      -9.347   7.967 129.471  0.00  0.00    -0.386 OA
ATOM     38  H   LIG A   1      -9.840   8.744 129.162  0.00  0.00    +0.210 HD
ENDBRANCH  31  37
ENDBRANCH  27  31
ENDBRANCH   5  24
TORSDOF 6
ENDMDL
MODEL 2
REMARK VINA RESULT:      -9.2      2.546      4.033
REMARK  Name = NuBBE_1406
REMARK  15 active torsions:
REMARK  status: ('A' for Active; 'I' for Inactive)
REMARK    1  A    between atoms: C_1  and  C_2
REMARK    2  A    between atoms: C_3  and  C_4
REMARK    3  A    between atoms: C_5  and  C_9
REMARK    4  A    between atoms: C_11  and  O_13
REMARK    5  A    between atoms: O_13  and  C_14
REMARK    6  A    between atoms: C_16  and  C_19
REMARK    7  A    between atoms: C_19  and  C_21
REMARK    8  A    between atoms: C_19  and  O_26
REMARK    9  A    between atoms: C_21  and  O_22
REMARK   10  A    between atoms: C_21  and  C_24
REMARK   11  A    between atoms: C_21  and  C_25
REMARK   12  A    between atoms: O_22  and  C_23
REMARK   13  A    between atoms: C_36  and  C_37
REMARK   14  A    between atoms: C_42  and  C_43
REMARK   15  A    between atoms: C_42  and  C_44
REMARK                            x       y       z     vdW  Elec       q    Type
REMARK                         _______ _______ _______ _____ _____    ______ ____
ROOT
ATOM      1  C   LIG A   1      -5.919   3.505 130.831  0.00  0.00    +0.016 C 
ATOM      2  C   LIG A   1      -6.659   3.160 132.161  0.00  0.00    -0.005 C 
ATOM      3  C   LIG A   1      -8.188   3.520 132.223  0.00  0.00    -0.020 C 
ATOM      4  C   LIG A   1      -8.806   3.201 133.639  0.00  0.00    +0.012 C 
ATOM      5  C   LIG A   1      -8.211   5.081 132.102  0.00  0.00    +0.004 C 
ATOM      6  C   LIG A   1      -6.906   5.473 132.888  0.00  0.00    +0.005 C 
ATOM      7  C   LIG A   1      -6.117   4.166 133.197  0.00  0.00    +0.012 C 
ATOM      8  C   LIG A   1      -8.983   2.686 131.210  0.00  0.00    +0.008 C 
ATOM      9  C   LIG A   1      -8.795   1.185 131.439  0.00  0.00    +0.009 C 
ATOM     10  C   LIG A   1      -7.308   0.785 131.378  0.00  0.00    +0.021 C 
ATOM     11  C   LIG A   1      -6.440   1.643 132.303  0.00  0.00    -0.063 C 
ATOM     12  C   LIG A   1      -5.428   1.106 133.004  0.00  0.00    -0.026 C 
ATOM     13  C   LIG A   1      -4.995  -0.327 132.887  0.00  0.00    +0.032 C 
ATOM     14  C   LIG A   1      -5.581  -1.122 131.688  0.00  0.00    +0.012 C 
ATOM     15  C   LIG A   1      -7.096  -0.770 131.474  0.00  0.00    -0.021 C 
ATOM     16  C   LIG A   1      -7.888  -1.375 132.668  0.00  0.00    +0.012 C 
ATOM     17  C   LIG A   1      -7.650  -1.417 130.165  0.00  0.00    +0.015 C 
ATOM     18  C   LIG A   1      -6.789  -2.547 129.638  0.00  0.00    +0.075 C 
ATOM     19  C   LIG A   1      -5.424  -1.999 129.308  0.00  0.00    +0.139 C 
ATOM     20  O   LIG A   1      -4.895  -2.263 128.220  0.00  0.00    -0.297 OA
ATOM     21  C   LIG A   1      -4.713  -1.145 130.373  0.00  0.00    +0.027 C 
ATOM     22  C   LIG A   1      -3.356  -1.833 130.640  0.00  0.00    +0.019 C 
ATOM     23  C   LIG A   1      -4.423   0.227 129.751  0.00  0.00    +0.019 C 
ENDROOT
BRANCH   5  24
ATOM     24  C   LIG A   1      -8.290   5.771 130.696  0.00  0.00    +0.051 C 
ATOM     25  C   LIG A   1      -8.933   4.952 129.566  0.00  0.00    +0.254 C 
ATOM     26  O   LIG A   1     -10.164   5.566 129.222  0.00  0.00    -0.345 OA
ATOM     27  C   LIG A   1     -10.078   6.957 129.517  0.00  0.00    +0.153 C 
ATOM     28  C   LIG A   1      -9.151   7.045 130.731  0.00  0.00    +0.043 C 
BRANCH  25  29
ATOM     29  O   LIG A   1      -8.033   4.958 128.454  0.00  0.00    -0.354 OA
ATOM     30  C   LIG A   1      -7.930   3.686 127.829  0.00  0.00    +0.197 C 
ENDBRANCH  25  29
BRANCH  27  31
ATOM     31  C   LIG A   1     -11.496   7.546 129.737  0.00  0.00    +0.174 C 
BRANCH  31  32
ATOM     32  C   LIG A   1     -12.187   8.096 128.429  0.00  0.00    +0.092 C 
ATOM     33  C   LIG A   1     -13.144   7.067 127.797  0.00  0.00    +0.044 C 
ATOM     34  C   LIG A   1     -12.995   9.362 128.782  0.00  0.00    +0.044 C 
BRANCH  32  35
ATOM     35  O   LIG A   1     -11.120   8.446 127.519  0.00  0.00    -0.374 OA
ATOM     36  C   LIG A   1     -11.064   7.739 126.287  0.00  0.00    +0.194 C 
ENDBRANCH  32  35
ENDBRANCH  31  32
BRANCH  31  37
ATOM     37  O   LIG A   1     -12.321   6.559 130.387  0.00  0.00    -0.386 OA
ATOM     38  H   LIG A   1     -11.749   5.819 130.646  0.00  0.00    +0.210 HD
ENDBRANCH  31  37
ENDBRANCH  27  31
ENDBRANCH   5  24
TORSDOF 6
ENDMDL
MODEL 3
REMARK VINA RESULT:      -9.1      3.715      6.278
REMARK  Name = NuBBE_1406
REMARK  15 active torsions:
REMARK  status: ('A' for Active; 'I' for Inactive)
REMARK    1  A    between atoms: C_1  and  C_2
REMARK    2  A    between atoms: C_3  and  C_4
REMARK    3  A    between atoms: C_5  and  C_9
REMARK    4  A    between atoms: C_11  and  O_13
REMARK    5  A    between atoms: O_13  and  C_14
REMARK    6  A    between atoms: C_16  and  C_19
REMARK    7  A    between atoms: C_19  and  C_21
REMARK    8  A    between atoms: C_19  and  O_26
REMARK    9  A    between atoms: C_21  and  O_22
REMARK   10  A    between atoms: C_21  and  C_24
REMARK   11  A    between atoms: C_21  and  C_25
REMARK   12  A    between atoms: O_22  and  C_23
REMARK   13  A    between atoms: C_36  and  C_37
REMARK   14  A    between atoms: C_42  and  C_43
REMARK   15  A    between atoms: C_42  and  C_44
REMARK                            x       y       z     vdW  Elec       q    Type
REMARK                         _______ _______ _______ _____ _____    ______ ____
ROOT
ATOM      1  C   LIG A   1      -6.188   1.395 128.080  0.00  0.00    +0.016 C 
ATOM      2  C   LIG A   1      -7.183   2.371 127.379  0.00  0.00    -0.005 C 
ATOM      3  C   LIG A   1      -6.553   3.636 126.692  0.00  0.00    -0.020 C 
ATOM      4  C   LIG A   1      -7.659   4.586 126.090  0.00  0.00    +0.012 C 
ATOM      5  C   LIG A   1      -5.924   4.435 127.883  0.00  0.00    +0.004 C 
ATOM      6  C   LIG A   1      -6.960   4.148 129.032  0.00  0.00    +0.005 C 
ATOM      7  C   LIG A   1      -7.951   3.058 128.526  0.00  0.00    +0.012 C 
ATOM      8  C   LIG A   1      -5.654   3.226 125.519  0.00  0.00    +0.008 C 
ATOM      9  C   LIG A   1      -6.418   2.401 124.480  0.00  0.00    +0.009 C 
ATOM     10  C   LIG A   1      -7.046   1.143 125.109  0.00  0.00    +0.021 C 
ATOM     11  C   LIG A   1      -7.888   1.473 126.346  0.00  0.00    -0.063 C 
ATOM     12  C   LIG A   1      -9.048   0.841 126.587  0.00  0.00    -0.026 C 
ATOM     13  C   LIG A   1      -9.579  -0.286 125.748  0.00  0.00    +0.032 C 
ATOM     14  C   LIG A   1      -8.583  -0.910 124.733  0.00  0.00    +0.012 C 
ATOM     15  C   LIG A   1      -7.721   0.206 124.041  0.00  0.00    -0.021 C 
ATOM     16  C   LIG A   1      -8.665   1.010 123.102  0.00  0.00    +0.012 C 
ATOM     17  C   LIG A   1      -6.592  -0.413 123.158  0.00  0.00    +0.015 C 
ATOM     18  C   LIG A   1      -6.826  -1.871 122.814  0.00  0.00    +0.075 C 
ATOM     19  C   LIG A   1      -6.864  -2.668 124.093  0.00  0.00    +0.139 C 
ATOM     20  O   LIG A   1      -6.201  -3.709 124.196  0.00  0.00    -0.297 OA
ATOM     21  C   LIG A   1      -7.769  -2.163 125.231  0.00  0.00    +0.027 C 
ATOM     22  C   LIG A   1      -8.730  -3.327 125.562  0.00  0.00    +0.019 C 
ATOM     23  C   LIG A   1      -6.884  -1.928 126.460  0.00  0.00    +0.019 C 
ENDROOT
BRANCH   5  24
ATOM     24  C   LIG A   1      -4.447   4.165 128.333  0.00  0.00    +0.051 C 
ATOM     25  C   LIG A   1      -3.381   5.135 127.801  0.00  0.00    +0.254 C 
ATOM     26  O   LIG A   1      -2.894   5.899 128.892  0.00  0.00    -0.345 OA
ATOM     27  C   LIG A   1      -3.033   5.130 130.084  0.00  0.00    +0.153 C 
ATOM     28  C   LIG A   1      -4.283   4.278 129.859  0.00  0.00    +0.043 C 
BRANCH  25  29
ATOM     29  O   LIG A   1      -2.332   4.356 127.217  0.00  0.00    -0.354 OA
ATOM     30  C   LIG A   1      -2.644   2.971 127.166  0.00  0.00    +0.197 C 
ENDBRANCH  25  29
BRANCH  27  31
ATOM     31  C   LIG A   1      -3.098   6.066 131.320  0.00  0.00    +0.174 C 
BRANCH  31  32
ATOM     32  C   LIG A   1      -2.004   5.774 132.419  0.00  0.00    +0.092 C 
ATOM     33  C   LIG A   1      -1.697   4.271 132.554  0.00  0.00    +0.044 C 
ATOM     34  C   LIG A   1      -0.700   6.506 132.037  0.00  0.00    +0.044 C 
BRANCH  32  35
ATOM     35  O   LIG A   1      -2.513   6.318 133.658  0.00  0.00    -0.374 OA
ATOM     36  C   LIG A   1      -3.874   6.050 133.970  0.00  0.00    +0.194 C 
ENDBRANCH  32  35
ENDBRANCH  31  32
BRANCH  31  37
ATOM     37  O   LIG A   1      -3.039   7.436 130.877  0.00  0.00    -0.386 OA
ATOM     38  H   LIG A   1      -3.884   7.645 130.447  0.00  0.00    +0.210 HD
ENDBRANCH  31  37
ENDBRANCH  27  31
ENDBRANCH   5  24
TORSDOF 6
ENDMDL
MODEL 4
REMARK VINA RESULT:      -9.0      3.765      8.419
REMARK  Name = NuBBE_1406
REMARK  15 active torsions:
REMARK  status: ('A' for Active; 'I' for Inactive)
REMARK    1  A    between atoms: C_1  and  C_2
REMARK    2  A    between atoms: C_3  and  C_4
REMARK    3  A    between atoms: C_5  and  C_9
REMARK    4  A    between atoms: C_11  and  O_13
REMARK    5  A    between atoms: O_13  and  C_14
REMARK    6  A    between atoms: C_16  and  C_19
REMARK    7  A    between atoms: C_19  and  C_21
REMARK    8  A    between atoms: C_19  and  O_26
REMARK    9  A    between atoms: C_21  and  O_22
REMARK   10  A    between atoms: C_21  and  C_24
REMARK   11  A    between atoms: C_21  and  C_25
REMARK   12  A    between atoms: O_22  and  C_23
REMARK   13  A    between atoms: C_36  and  C_37
REMARK   14  A    between atoms: C_42  and  C_43
REMARK   15  A    between atoms: C_42  and  C_44
REMARK                            x       y       z     vdW  Elec       q    Type
REMARK                         _______ _______ _______ _____ _____    ______ ____
ROOT
ATOM      1  C   LIG A   1      -6.178   3.437 128.686  0.00  0.00    +0.016 C 
ATOM      2  C   LIG A   1      -6.975   3.110 129.987  0.00  0.00    -0.005 C 
ATOM      3  C   LIG A   1      -7.030   1.598 130.411  0.00  0.00    -0.020 C 
ATOM      4  C   LIG A   1      -7.927   1.383 131.691  0.00  0.00    +0.012 C 
ATOM      5  C   LIG A   1      -7.806   0.908 129.239  0.00  0.00    +0.004 C 
ATOM      6  C   LIG A   1      -8.838   2.029 128.846  0.00  0.00    +0.005 C 
ATOM      7  C   LIG A   1      -8.457   3.327 129.618  0.00  0.00    +0.012 C 
ATOM      8  C   LIG A   1      -5.631   1.086 130.777  0.00  0.00    +0.008 C 
ATOM      9  C   LIG A   1      -4.998   1.914 131.897  0.00  0.00    +0.009 C 
ATOM     10  C   LIG A   1      -4.916   3.406 131.520  0.00  0.00    +0.021 C 
ATOM     11  C   LIG A   1      -6.266   3.961 131.056  0.00  0.00    -0.063 C 
ATOM     12  C   LIG A   1      -6.667   5.195 131.403  0.00  0.00    -0.026 C 
ATOM     13  C   LIG A   1      -5.822   6.164 132.178  0.00  0.00    +0.032 C 
ATOM     14  C   LIG A   1      -4.320   5.797 132.323  0.00  0.00    +0.012 C 
ATOM     15  C   LIG A   1      -4.147   4.260 132.594  0.00  0.00    -0.021 C 
ATOM     16  C   LIG A   1      -4.679   3.975 134.027  0.00  0.00    +0.012 C 
ATOM     17  C   LIG A   1      -2.643   3.842 132.559  0.00  0.00    +0.015 C 
ATOM     18  C   LIG A   1      -1.688   5.010 132.708  0.00  0.00    +0.075 C 
ATOM     19  C   LIG A   1      -1.903   5.957 131.555  0.00  0.00    +0.139 C 
ATOM     20  O   LIG A   1      -0.935   6.384 130.912  0.00  0.00    -0.297 OA
ATOM     21  C   LIG A   1      -3.345   6.393 131.239  0.00  0.00    +0.027 C 
ATOM     22  C   LIG A   1      -3.351   7.937 131.306  0.00  0.00    +0.019 C 
ATOM     23  C   LIG A   1      -3.646   5.990 129.790  0.00  0.00    +0.019 C 
ENDROOT
BRANCH   5  24
ATOM     24  C   LIG A   1      -7.036   0.345 127.995  0.00  0.00    +0.051 C 
ATOM     25  C   LIG A   1      -6.760  -1.166 127.986  0.00  0.00    +0.254 C 
ATOM     26  O   LIG A   1      -7.543  -1.752 126.960  0.00  0.00    -0.345 OA
ATOM     27  C   LIG A   1      -7.769  -0.776 125.946  0.00  0.00    +0.153 C 
ATOM     28  C   LIG A   1      -7.822   0.559 126.690  0.00  0.00    +0.043 C 
BRANCH  25  29
ATOM     29  O   LIG A   1      -5.364  -1.355 127.732  0.00  0.00    -0.354 OA
ATOM     30  C   LIG A   1      -4.849  -2.522 128.359  0.00  0.00    +0.197 C 
ENDBRANCH  25  29
BRANCH  27  31
ATOM     31  C   LIG A   1      -9.051  -1.126 125.144  0.00  0.00    +0.174 C 
BRANCH  31  32
ATOM     32  C   LIG A   1      -8.798  -1.467 123.623  0.00  0.00    +0.092 C 
ATOM     33  C   LIG A   1      -7.362  -1.128 123.179  0.00  0.00    +0.044 C 
ATOM     34  C   LIG A   1      -9.034  -2.976 123.402  0.00  0.00    +0.044 C 
BRANCH  32  35
ATOM     35  O   LIG A   1      -9.772  -0.714 122.867  0.00  0.00    -0.374 OA
ATOM     36  C   LIG A   1      -9.765   0.698 123.031  0.00  0.00    +0.194 C 
ENDBRANCH  32  35
ENDBRANCH  31  32
BRANCH  31  37
ATOM     37  O   LIG A   1      -9.747  -2.197 125.810  0.00  0.00    -0.386 OA
ATOM     38  H   LIG A   1      -9.351  -3.034 125.519  0.00  0.00    +0.210 HD
ENDBRANCH  31  37
ENDBRANCH  27  31
ENDBRANCH   5  24
TORSDOF 6
ENDMDL
MODEL 5
REMARK VINA RESULT:      -8.8      2.923      3.816
REMARK  Name = NuBBE_1406
REMARK  15 active torsions:
REMARK  status: ('A' for Active; 'I' for Inactive)
REMARK    1  A    between atoms: C_1  and  C_2
REMARK    2  A    between atoms: C_3  and  C_4
REMARK    3  A    between atoms: C_5  and  C_9
REMARK    4  A    between atoms: C_11  and  O_13
REMARK    5  A    between atoms: O_13  and  C_14
REMARK    6  A    between atoms: C_16  and  C_19
REMARK    7  A    between atoms: C_19  and  C_21
REMARK    8  A    between atoms: C_19  and  O_26
REMARK    9  A    between atoms: C_21  and  O_22
REMARK   10  A    between atoms: C_21  and  C_24
REMARK   11  A    between atoms: C_21  and  C_25
REMARK   12  A    between atoms: O_22  and  C_23
REMARK   13  A    between atoms: C_36  and  C_37
REMARK   14  A    between atoms: C_42  and  C_43
REMARK   15  A    between atoms: C_42  and  C_44
REMARK                            x       y       z     vdW  Elec       q    Type
REMARK                         _______ _______ _______ _____ _____    ______ ____
ROOT
ATOM      1  C   LIG A   1      -7.957   1.856 130.228  0.00  0.00    +0.016 C 
ATOM      2  C   LIG A   1      -6.472   2.326 130.127  0.00  0.00    -0.005 C 
ATOM      3  C   LIG A   1      -6.066   3.554 131.018  0.00  0.00    -0.020 C 
ATOM      4  C   LIG A   1      -4.569   3.986 130.771  0.00  0.00    +0.012 C 
ATOM      5  C   LIG A   1      -6.935   4.730 130.456  0.00  0.00    +0.004 C 
ATOM      6  C   LIG A   1      -6.968   4.385 128.921  0.00  0.00    +0.005 C 
ATOM      7  C   LIG A   1      -6.347   2.970 128.731  0.00  0.00    +0.012 C 
ATOM      8  C   LIG A   1      -6.170   3.201 132.508  0.00  0.00    +0.008 C 
ATOM      9  C   LIG A   1      -5.304   1.993 132.867  0.00  0.00    +0.009 C 
ATOM     10  C   LIG A   1      -5.675   0.760 132.021  0.00  0.00    +0.021 C 
ATOM     11  C   LIG A   1      -5.678   1.068 130.520  0.00  0.00    -0.063 C 
ATOM     12  C   LIG A   1      -5.210   0.181 129.627  0.00  0.00    -0.026 C 
ATOM     13  C   LIG A   1      -4.738  -1.200 129.985  0.00  0.00    +0.032 C 
ATOM     14  C   LIG A   1      -5.083  -1.690 131.417  0.00  0.00    +0.012 C 
ATOM     15  C   LIG A   1      -4.895  -0.533 132.462  0.00  0.00    -0.021 C 
ATOM     16  C   LIG A   1      -3.369  -0.257 132.584  0.00  0.00    +0.012 C 
ATOM     17  C   LIG A   1      -5.412  -0.952 133.874  0.00  0.00    +0.015 C 
ATOM     18  C   LIG A   1      -5.566  -2.451 134.040  0.00  0.00    +0.075 C 
ATOM     19  C   LIG A   1      -6.582  -2.945 133.041  0.00  0.00    +0.139 C 
ATOM     20  O   LIG A   1      -7.496  -3.696 133.404  0.00  0.00    -0.297 OA
ATOM     21  C   LIG A   1      -6.417  -2.514 131.573  0.00  0.00    +0.027 C 
ATOM     22  C   LIG A   1      -6.338  -3.819 130.749  0.00  0.00    +0.019 C 
ATOM     23  C   LIG A   1      -7.697  -1.779 131.157  0.00  0.00    +0.019 C 
ENDROOT
BRANCH   5  24
ATOM     24  C   LIG A   1      -8.364   5.012 131.034  0.00  0.00    +0.051 C 
ATOM     25  C   LIG A   1      -8.547   6.332 131.798  0.00  0.00    +0.254 C 
ATOM     26  O   LIG A   1      -9.393   7.173 131.031  0.00  0.00    -0.345 OA
ATOM     27  C   LIG A   1     -10.251   6.356 130.239  0.00  0.00    +0.153 C 
ATOM     28  C   LIG A   1      -9.423   5.109 129.922  0.00  0.00    +0.043 C 
BRANCH  25  29
ATOM     29  O   LIG A   1      -9.143   6.028 133.063  0.00  0.00    -0.354 OA
ATOM     30  C   LIG A   1      -8.177   5.767 134.072  0.00  0.00    +0.197 C 
ENDBRANCH  25  29
BRANCH  27  31
ATOM     31  C   LIG A   1     -10.742   7.144 128.996  0.00  0.00    +0.174 C 
BRANCH  31  32
ATOM     32  C   LIG A   1     -12.228   7.666 129.099  0.00  0.00    +0.092 C 
ATOM     33  C   LIG A   1     -13.201   6.832 128.242  0.00  0.00    +0.044 C 
ATOM     34  C   LIG A   1     -12.687   7.590 130.570  0.00  0.00    +0.044 C 
BRANCH  32  35
ATOM     35  O   LIG A   1     -12.208   9.047 128.674  0.00  0.00    -0.374 OA
ATOM     36  C   LIG A   1     -13.313   9.856 129.053  0.00  0.00    +0.194 C 
ENDBRANCH  32  35
ENDBRANCH  31  32
BRANCH  31  37
ATOM     37  O   LIG A   1      -9.828   8.224 128.730  0.00  0.00    -0.386 OA
ATOM     38  H   LIG A   1      -8.932   7.914 128.942  0.00  0.00    +0.210 HD
ENDBRANCH  31  37
ENDBRANCH  27  31
ENDBRANCH   5  24
TORSDOF 6
ENDMDL
MODEL 6
REMARK VINA RESULT:      -8.6      6.699     11.022
REMARK  Name = NuBBE_1406
REMARK  15 active torsions:
REMARK  status: ('A' for Active; 'I' for Inactive)
REMARK    1  A    between atoms: C_1  and  C_2
REMARK    2  A    between atoms: C_3  and  C_4
REMARK    3  A    between atoms: C_5  and  C_9
REMARK    4  A    between atoms: C_11  and  O_13
REMARK    5  A    between atoms: O_13  and  C_14
REMARK    6  A    between atoms: C_16  and  C_19
REMARK    7  A    between atoms: C_19  and  C_21
REMARK    8  A    between atoms: C_19  and  O_26
REMARK    9  A    between atoms: C_21  and  O_22
REMARK   10  A    between atoms: C_21  and  C_24
REMARK   11  A    between atoms: C_21  and  C_25
REMARK   12  A    between atoms: O_22  and  C_23
REMARK   13  A    between atoms: C_36  and  C_37
REMARK   14  A    between atoms: C_42  and  C_43
REMARK   15  A    between atoms: C_42  and  C_44
REMARK                            x       y       z     vdW  Elec       q    Type
REMARK                         _______ _______ _______ _____ _____    ______ ____
ROOT
ATOM      1  C   LIG A   1      -3.940   7.735 131.514  0.00  0.00    +0.016 C 
ATOM      2  C   LIG A   1      -3.410   6.664 132.518  0.00  0.00    -0.005 C 
ATOM      3  C   LIG A   1      -2.551   5.499 131.907  0.00  0.00    -0.020 C 
ATOM      4  C   LIG A   1      -2.143   4.438 133.001  0.00  0.00    +0.012 C 
ATOM      5  C   LIG A   1      -3.550   4.753 130.959  0.00  0.00    +0.004 C 
ATOM      6  C   LIG A   1      -4.898   4.889 131.758  0.00  0.00    +0.005 C 
ATOM      7  C   LIG A   1      -4.657   5.864 132.949  0.00  0.00    +0.012 C 
ATOM      8  C   LIG A   1      -1.239   6.040 131.324  0.00  0.00    +0.008 C 
ATOM      9  C   LIG A   1      -0.419   6.791 132.375  0.00  0.00    +0.009 C 
ATOM     10  C   LIG A   1      -1.221   7.951 132.996  0.00  0.00    +0.021 C 
ATOM     11  C   LIG A   1      -2.587   7.494 133.518  0.00  0.00    -0.063 C 
ATOM     12  C   LIG A   1      -3.090   7.978 134.666  0.00  0.00    -0.026 C 
ATOM     13  C   LIG A   1      -2.431   9.052 135.483  0.00  0.00    +0.032 C 
ATOM     14  C   LIG A   1      -1.264   9.813 134.797  0.00  0.00    +0.012 C 
ATOM     15  C   LIG A   1      -0.359   8.825 133.979  0.00  0.00    -0.021 C 
ATOM     16  C   LIG A   1       0.405   7.936 135.001  0.00  0.00    +0.012 C 
ATOM     17  C   LIG A   1       0.706   9.594 133.135  0.00  0.00    +0.015 C 
ATOM     18  C   LIG A   1       0.926  11.021 133.598  0.00  0.00    +0.075 C 
ATOM     19  C   LIG A   1      -0.370  11.778 133.457  0.00  0.00    +0.139 C 
ATOM     20  O   LIG A   1      -0.385  12.888 132.908  0.00  0.00    -0.297 OA
ATOM     21  C   LIG A   1      -1.644  11.143 134.043  0.00  0.00    +0.027 C 
ATOM     22  C   LIG A   1      -2.219  12.176 135.038  0.00  0.00    +0.019 C 
ATOM     23  C   LIG A   1      -2.654  10.987 132.900  0.00  0.00    +0.019 C 
ENDROOT
BRANCH   5  24
ATOM     24  C   LIG A   1      -3.701   5.187 129.460  0.00  0.00    +0.051 C 
ATOM     25  C   LIG A   1      -2.567   4.773 128.509  0.00  0.00    +0.254 C 
ATOM     26  O   LIG A   1      -3.077   3.802 127.610  0.00  0.00    -0.345 OA
ATOM     27  C   LIG A   1      -4.477   4.017 127.454  0.00  0.00    +0.153 C 
ATOM     28  C   LIG A   1      -4.944   4.561 128.805  0.00  0.00    +0.043 C 
BRANCH  25  29
ATOM     29  O   LIG A   1      -2.136   5.942 127.805  0.00  0.00    -0.354 OA
ATOM     30  C   LIG A   1      -2.781   7.123 128.262  0.00  0.00    +0.197 C 
ENDBRANCH  25  29
BRANCH  27  31
ATOM     31  C   LIG A   1      -5.172   2.704 127.005  0.00  0.00    +0.174 C 
BRANCH  31  32
ATOM     32  C   LIG A   1      -6.143   2.867 125.771  0.00  0.00    +0.092 C 
ATOM     33  C   LIG A   1      -5.543   3.762 124.670  0.00  0.00    +0.044 C 
ATOM     34  C   LIG A   1      -6.426   1.475 125.168  0.00  0.00    +0.044 C 
BRANCH  32  35
ATOM     35  O   LIG A   1      -7.372   3.425 126.287  0.00  0.00    -0.374 OA
ATOM     36  C   LIG A   1      -7.814   4.651 125.720  0.00  0.00    +0.194 C 
ENDBRANCH  32  35
ENDBRANCH  31  32
BRANCH  31  37
ATOM     37  O   LIG A   1      -4.169   1.702 126.751  0.00  0.00    -0.386 OA
ATOM     38  H   LIG A   1      -4.041   1.197 127.570  0.00  0.00    +0.210 HD
ENDBRANCH  31  37
ENDBRANCH  27  31
ENDBRANCH   5  24
TORSDOF 6
ENDMDL
MODEL 7
REMARK VINA RESULT:      -8.5      2.852      4.414
REMARK  Name = NuBBE_1406
REMARK  15 active torsions:
REMARK  status: ('A' for Active; 'I' for Inactive)
REMARK    1  A    between atoms: C_1  and  C_2
REMARK    2  A    between atoms: C_3  and  C_4
REMARK    3  A    between atoms: C_5  and  C_9
REMARK    4  A    between atoms: C_11  and  O_13
REMARK    5  A    between atoms: O_13  and  C_14
REMARK    6  A    between atoms: C_16  and  C_19
REMARK    7  A    between atoms: C_19  and  C_21
REMARK    8  A    between atoms: C_19  and  O_26
REMARK    9  A    between atoms: C_21  and  O_22
REMARK   10  A    between atoms: C_21  and  C_24
REMARK   11  A    between atoms: C_21  and  C_25
REMARK   12  A    between atoms: O_22  and  C_23
REMARK   13  A    between atoms: C_36  and  C_37
REMARK   14  A    between atoms: C_42  and  C_43
REMARK   15  A    between atoms: C_42  and  C_44
REMARK                            x       y       z     vdW  Elec       q    Type
REMARK                         _______ _______ _______ _____ _____    ______ ____
ROOT
ATOM      1  C   LIG A   1      -8.003   0.183 130.887  0.00  0.00    +0.016 C 
ATOM      2  C   LIG A   1      -7.055   0.246 129.649  0.00  0.00    -0.005 C 
ATOM      3  C   LIG A   1      -6.275   1.593 129.435  0.00  0.00    -0.020 C 
ATOM      4  C   LIG A   1      -5.414   1.566 128.112  0.00  0.00    +0.012 C 
ATOM      5  C   LIG A   1      -7.406   2.644 129.171  0.00  0.00    +0.004 C 
ATOM      6  C   LIG A   1      -8.452   1.781 128.372  0.00  0.00    +0.005 C 
ATOM      7  C   LIG A   1      -7.992   0.294 128.425  0.00  0.00    +0.012 C 
ATOM      8  C   LIG A   1      -5.288   1.838 130.583  0.00  0.00    +0.008 C 
ATOM      9  C   LIG A   1      -4.295   0.684 130.734  0.00  0.00    +0.009 C 
ATOM     10  C   LIG A   1      -5.017  -0.659 130.956  0.00  0.00    +0.021 C 
ATOM     11  C   LIG A   1      -6.084  -0.925 129.890  0.00  0.00    -0.063 C 
ATOM     12  C   LIG A   1      -6.273  -2.155 129.386  0.00  0.00    -0.026 C 
ATOM     13  C   LIG A   1      -5.546  -3.378 129.867  0.00  0.00    +0.032 C 
ATOM     14  C   LIG A   1      -4.757  -3.226 131.195  0.00  0.00    +0.012 C 
ATOM     15  C   LIG A   1      -4.021  -1.840 131.250  0.00  0.00    -0.021 C 
ATOM     16  C   LIG A   1      -2.870  -1.880 130.205  0.00  0.00    +0.012 C 
ATOM     17  C   LIG A   1      -3.377  -1.593 132.651  0.00  0.00    +0.015 C 
ATOM     18  C   LIG A   1      -3.219  -2.856 133.474  0.00  0.00    +0.075 C 
ATOM     19  C   LIG A   1      -4.586  -3.443 133.721  0.00  0.00    +0.139 C 
ATOM     20  O   LIG A   1      -4.915  -3.791 134.863  0.00  0.00    -0.297 OA
ATOM     21  C   LIG A   1      -5.523  -3.623 132.514  0.00  0.00    +0.027 C 
ATOM     22  C   LIG A   1      -5.900  -5.121 132.482  0.00  0.00    +0.019 C 
ATOM     23  C   LIG A   1      -6.803  -2.828 132.797  0.00  0.00    +0.019 C 
ENDROOT
BRANCH   5  24
ATOM     24  C   LIG A   1      -8.063   3.422 130.363  0.00  0.00    +0.051 C 
ATOM     25  C   LIG A   1      -7.274   4.617 130.919  0.00  0.00    +0.254 C 
ATOM     26  O   LIG A   1      -7.981   5.803 130.596  0.00  0.00    -0.345 OA
ATOM     27  C   LIG A   1      -9.367   5.492 130.487  0.00  0.00    +0.153 C 
ATOM     28  C   LIG A   1      -9.407   4.055 129.961  0.00  0.00    +0.043 C 
BRANCH  25  29
ATOM     29  O   LIG A   1      -7.174   4.454 132.338  0.00  0.00    -0.354 OA
ATOM     30  C   LIG A   1      -6.332   5.427 132.941  0.00  0.00    +0.197 C 
ENDBRANCH  25  29
BRANCH  27  31
ATOM     31  C   LIG A   1     -10.080   6.534 129.586  0.00  0.00    +0.174 C 
BRANCH  31  32
ATOM     32  C   LIG A   1     -11.539   6.913 130.052  0.00  0.00    +0.092 C 
ATOM     33  C   LIG A   1     -12.621   6.145 129.268  0.00  0.00    +0.044 C 
ATOM     34  C   LIG A   1     -11.691   6.576 131.550  0.00  0.00    +0.044 C 
BRANCH  32  35
ATOM     35  O   LIG A   1     -11.672   8.340 129.865  0.00  0.00    -0.374 OA
ATOM     36  C   LIG A   1     -12.606   8.780 128.888  0.00  0.00    +0.194 C 
ENDBRANCH  32  35
ENDBRANCH  31  32
BRANCH  31  37
ATOM     37  O   LIG A   1      -9.249   7.706 129.471  0.00  0.00    -0.386 OA
ATOM     38  H   LIG A   1      -8.628   7.703 130.217  0.00  0.00    +0.210 HD
ENDBRANCH  31  37
ENDBRANCH  27  31
ENDBRANCH   5  24
TORSDOF 6
ENDMDL
MODEL 8
REMARK VINA RESULT:      -8.4      3.854      9.018
REMARK  Name = NuBBE_1406
REMARK  15 active torsions:
REMARK  status: ('A' for Active; 'I' for Inactive)
REMARK    1  A    between atoms: C_1  and  C_2
REMARK    2  A    between atoms: C_3  and  C_4
REMARK    3  A    between atoms: C_5  and  C_9
REMARK    4  A    between atoms: C_11  and  O_13
REMARK    5  A    between atoms: O_13  and  C_14
REMARK    6  A    between atoms: C_16  and  C_19
REMARK    7  A    between atoms: C_19  and  C_21
REMARK    8  A    between atoms: C_19  and  O_26
REMARK    9  A    between atoms: C_21  and  O_22
REMARK   10  A    between atoms: C_21  and  C_24
REMARK   11  A    between atoms: C_21  and  C_25
REMARK   12  A    between atoms: O_22  and  C_23
REMARK   13  A    between atoms: C_36  and  C_37
REMARK   14  A    between atoms: C_42  and  C_43
REMARK   15  A    between atoms: C_42  and  C_44
REMARK                            x       y       z     vdW  Elec       q    Type
REMARK                         _______ _______ _______ _____ _____    ______ ____
ROOT
ATOM      1  C   LIG A   1      -3.419   2.580 129.033  0.00  0.00    +0.016 C 
ATOM      2  C   LIG A   1      -3.684   3.848 128.163  0.00  0.00    -0.005 C 
ATOM      3  C   LIG A   1      -5.102   3.953 127.495  0.00  0.00    -0.020 C 
ATOM      4  C   LIG A   1      -5.224   5.231 126.578  0.00  0.00    +0.012 C 
ATOM      5  C   LIG A   1      -5.146   2.733 126.513  0.00  0.00    +0.004 C 
ATOM      6  C   LIG A   1      -3.650   2.669 126.030  0.00  0.00    +0.005 C 
ATOM      7  C   LIG A   1      -2.819   3.658 126.899  0.00  0.00    +0.012 C 
ATOM      8  C   LIG A   1      -6.196   4.085 128.562  0.00  0.00    +0.008 C 
ATOM      9  C   LIG A   1      -5.961   5.295 129.468  0.00  0.00    +0.009 C 
ATOM     10  C   LIG A   1      -4.582   5.229 130.153  0.00  0.00    +0.021 C 
ATOM     11  C   LIG A   1      -3.448   5.006 129.148  0.00  0.00    -0.063 C 
ATOM     12  C   LIG A   1      -2.268   5.634 129.280  0.00  0.00    -0.026 C 
ATOM     13  C   LIG A   1      -1.914   6.519 130.441  0.00  0.00    +0.032 C 
ATOM     14  C   LIG A   1      -2.871   6.457 131.663  0.00  0.00    +0.012 C 
ATOM     15  C   LIG A   1      -4.368   6.388 131.194  0.00  0.00    -0.021 C 
ATOM     16  C   LIG A   1      -4.730   7.771 130.582  0.00  0.00    +0.012 C 
ATOM     17  C   LIG A   1      -5.330   6.140 132.399  0.00  0.00    +0.015 C 
ATOM     18  C   LIG A   1      -4.703   6.446 133.745  0.00  0.00    +0.075 C 
ATOM     19  C   LIG A   1      -3.517   5.537 133.942  0.00  0.00    +0.139 C 
ATOM     20  O   LIG A   1      -3.379   4.917 135.005  0.00  0.00    -0.297 OA
ATOM     21  C   LIG A   1      -2.486   5.441 132.804  0.00  0.00    +0.027 C 
ATOM     22  C   LIG A   1      -1.124   5.827 133.425  0.00  0.00    +0.019 C 
ATOM     23  C   LIG A   1      -2.401   3.971 132.376  0.00  0.00    +0.019 C 
ENDROOT
BRANCH   5  24
ATOM     24  C   LIG A   1      -5.675   1.339 126.998  0.00  0.00    +0.051 C 
ATOM     25  C   LIG A   1      -7.200   1.174 127.077  0.00  0.00    +0.254 C 
ATOM     26  O   LIG A   1      -7.599   0.257 126.073  0.00  0.00    -0.345 OA
ATOM     27  C   LIG A   1      -6.516  -0.631 125.811  0.00  0.00    +0.153 C 
ATOM     28  C   LIG A   1      -5.256   0.205 126.045  0.00  0.00    +0.043 C 
BRANCH  25  29
ATOM     29  O   LIG A   1      -7.520   0.674 128.380  0.00  0.00    -0.354 OA
ATOM     30  C   LIG A   1      -8.461   1.491 129.063  0.00  0.00    +0.197 C 
ENDBRANCH  25  29
BRANCH  27  31
ATOM     31  C   LIG A   1      -6.645  -1.227 124.384  0.00  0.00    +0.174 C 
BRANCH  31  32
ATOM     32  C   LIG A   1      -7.125  -2.730 124.343  0.00  0.00    +0.092 C 
ATOM     33  C   LIG A   1      -5.962  -3.708 124.093  0.00  0.00    +0.044 C 
ATOM     34  C   LIG A   1      -7.779  -3.084 125.695  0.00  0.00    +0.044 C 
BRANCH  32  35
ATOM     35  O   LIG A   1      -8.116  -2.815 123.294  0.00  0.00    -0.374 OA
ATOM     36  C   LIG A   1      -9.405  -3.290 123.660  0.00  0.00    +0.194 C 
ENDBRANCH  32  35
ENDBRANCH  31  32
BRANCH  31  37
ATOM     37  O   LIG A   1      -7.507  -0.382 123.597  0.00  0.00    -0.386 OA
ATOM     38  H   LIG A   1      -8.078  -0.958 123.062  0.00  0.00    +0.210 HD
ENDBRANCH  31  37
ENDBRANCH  27  31
ENDBRANCH   5  24
TORSDOF 6
ENDMDL
MODEL 9
REMARK VINA RESULT:      -8.3      3.736      6.236
REMARK  Name = NuBBE_1406
REMARK  15 active torsions:
REMARK  status: ('A' for Active; 'I' for Inactive)
REMARK    1  A    between atoms: C_1  and  C_2
REMARK    2  A    between atoms: C_3  and  C_4
REMARK    3  A    between atoms: C_5  and  C_9
REMARK    4  A    between atoms: C_11  and  O_13
REMARK    5  A    between atoms: O_13  and  C_14
REMARK    6  A    between atoms: C_16  and  C_19
REMARK    7  A    between atoms: C_19  and  C_21
REMARK    8  A    between atoms: C_19  and  O_26
REMARK    9  A    between atoms: C_21  and  O_22
REMARK   10  A    between atoms: C_21  and  C_24
REMARK   11  A    between atoms: C_21  and  C_25
REMARK   12  A    between atoms: O_22  and  C_23
REMARK   13  A    between atoms: C_36  and  C_37
REMARK   14  A    between atoms: C_42  and  C_43
REMARK   15  A    between atoms: C_42  and  C_44
REMARK                            x       y       z     vdW  Elec       q    Type
REMARK                         _______ _______ _______ _____ _____    ______ ____
ROOT
ATOM      1  C   LIG A   1      -5.612   1.606 131.199  0.00  0.00    +0.016 C 
ATOM      2  C   LIG A   1      -7.008   1.401 130.533  0.00  0.00    -0.005 C 
ATOM      3  C   LIG A   1      -7.095   1.683 128.989  0.00  0.00    -0.020 C 
ATOM      4  C   LIG A   1      -8.567   1.522 128.447  0.00  0.00    +0.012 C 
ATOM      5  C   LIG A   1      -6.774   3.211 128.869  0.00  0.00    +0.004 C 
ATOM      6  C   LIG A   1      -7.440   3.773 130.179  0.00  0.00    +0.005 C 
ATOM      7  C   LIG A   1      -7.879   2.562 131.055  0.00  0.00    +0.012 C 
ATOM      8  C   LIG A   1      -6.237   0.682 128.206  0.00  0.00    +0.008 C 
ATOM      9  C   LIG A   1      -6.649  -0.764 128.490  0.00  0.00    +0.009 C 
ATOM     10  C   LIG A   1      -6.571  -1.088 129.994  0.00  0.00    +0.021 C 
ATOM     11  C   LIG A   1      -7.335  -0.070 130.846  0.00  0.00    -0.063 C 
ATOM     12  C   LIG A   1      -8.052  -0.455 131.915  0.00  0.00    -0.026 C 
ATOM     13  C   LIG A   1      -8.101  -1.867 132.427  0.00  0.00    +0.032 C 
ATOM     14  C   LIG A   1      -7.044  -2.842 131.843  0.00  0.00    +0.012 C 
ATOM     15  C   LIG A   1      -6.858  -2.604 130.302  0.00  0.00    -0.021 C 
ATOM     16  C   LIG A   1      -8.156  -3.087 129.594  0.00  0.00    +0.012 C 
ATOM     17  C   LIG A   1      -5.671  -3.446 129.735  0.00  0.00    +0.015 C 
ATOM     18  C   LIG A   1      -5.255  -4.589 130.641  0.00  0.00    +0.075 C 
ATOM     19  C   LIG A   1      -4.794  -4.017 131.957  0.00  0.00    +0.139 C 
ATOM     20  O   LIG A   1      -3.725  -4.393 132.457  0.00  0.00    -0.297 OA
ATOM     21  C   LIG A   1      -5.704  -2.993 132.657  0.00  0.00    +0.027 C 
ATOM     22  C   LIG A   1      -5.994  -3.566 134.062  0.00  0.00    +0.019 C 
ATOM     23  C   LIG A   1      -4.897  -1.702 132.841  0.00  0.00    +0.019 C 
ENDROOT
BRANCH   5  24
ATOM     24  C   LIG A   1      -5.296   3.704 128.695  0.00  0.00    +0.051 C 
ATOM     25  C   LIG A   1      -5.036   4.704 127.557  0.00  0.00    +0.254 C 
ATOM     26  O   LIG A   1      -4.707   5.956 128.136  0.00  0.00    -0.345 OA
ATOM     27  C   LIG A   1      -4.116   5.727 129.412  0.00  0.00    +0.153 C 
ATOM     28  C   LIG A   1      -4.794   4.460 129.938  0.00  0.00    +0.043 C 
BRANCH  25  29
ATOM     29  O   LIG A   1      -3.948   4.203 126.773  0.00  0.00    -0.354 OA
ATOM     30  C   LIG A   1      -4.364   3.743 125.495  0.00  0.00    +0.197 C 
ENDBRANCH  25  29
BRANCH  27  31
ATOM     31  C   LIG A   1      -4.287   6.978 130.313  0.00  0.00    +0.174 C 
BRANCH  31  32
ATOM     32  C   LIG A   1      -3.181   7.138 131.428  0.00  0.00    +0.092 C 
ATOM     33  C   LIG A   1      -1.842   6.495 131.018  0.00  0.00    +0.044 C 
ATOM     34  C   LIG A   1      -2.942   8.640 131.686  0.00  0.00    +0.044 C 
BRANCH  32  35
ATOM     35  O   LIG A   1      -3.712   6.524 132.623  0.00  0.00    -0.374 OA
ATOM     36  C   LIG A   1      -2.834   5.689 133.366  0.00  0.00    +0.194 C 
ENDBRANCH  32  35
ENDBRANCH  31  32
BRANCH  31  37
ATOM     37  O   LIG A   1      -4.362   8.152 129.481  0.00  0.00    -0.386 OA
ATOM     38  H   LIG A   1      -4.211   8.927 130.047  0.00  0.00    +0.210 HD
ENDBRANCH  31  37
ENDBRANCH  27  31
ENDBRANCH   5  24
TORSDOF 6
ENDMDL
