MODEL 1
REMARK VINA RESULT:      -6.9      0.000      0.000
REMARK  Name = NuBBE_906
REMARK  6 active torsions:
REMARK  status: ('A' for Active; 'I' for Inactive)
REMARK    1  A    between atoms: N_10  and  C_16
REMARK    2  A    between atoms: C_11  and  C_12
REMARK    3  A    between atoms: C_11  and  S_14
REMARK    4  A    between atoms: C_12  and  O_13
REMARK    5  A    between atoms: S_14  and  C_15
REMARK    6  A    between atoms: C_20  and  O_21
REMARK                            x       y       z     vdW  Elec       q    Type
REMARK                         _______ _______ _______ _____ _____    ______ ____
ROOT
ATOM      1  O   LIG A   1      -8.706   5.063 128.020  0.00  0.00    -0.272 OA
ATOM      2  C   LIG A   1      -8.827   5.263 129.231  0.00  0.00    +0.257 C 
ATOM      3  N   LIG A   1      -9.838   6.042 129.755  0.00  0.00    -0.253 N 
ATOM      4  C   LIG A   1     -10.751   6.878 129.081  0.00  0.00    +0.082 A 
ATOM      5  C   LIG A   1     -11.634   7.427 130.021  0.00  0.00    -0.020 A 
ATOM      6  C   LIG A   1     -11.298   6.989 131.416  0.00  0.00    +0.069 C 
ATOM      7  C   LIG A   1     -10.302   5.863 131.136  0.00  0.00    +0.172 C 
ATOM      8  C   LIG A   1      -9.140   5.826 132.118  0.00  0.00    +0.238 C 
ATOM      9  O   LIG A   1      -9.313   6.115 133.303  0.00  0.00    -0.274 OA
ATOM     10  N   LIG A   1      -7.934   5.325 131.618  0.00  0.00    -0.279 N 
ATOM     11  C   LIG A   1      -7.931   4.560 130.324  0.00  0.00    +0.183 C 
ATOM     12  C   LIG A   1      -6.864   5.108 132.587  0.00  0.00    +0.134 C 
ATOM     13  C   LIG A   1     -12.637   8.313 129.654  0.00  0.00    +0.006 A 
ATOM     14  C   LIG A   1     -12.760   8.650 128.307  0.00  0.00    +0.004 A 
ATOM     15  C   LIG A   1     -11.879   8.110 127.359  0.00  0.00    +0.047 A 
ATOM     16  C   LIG A   1     -10.869   7.223 127.742  0.00  0.00    +0.138 A 
ENDROOT
BRANCH  11  17
ATOM     17  S   LIG A   1      -6.197   4.460 129.606  0.00  0.00    -0.127 S 
ATOM     18  C   LIG A   1      -5.832   2.696 129.839  0.00  0.00    +0.087 C 
ENDBRANCH  11  17
BRANCH  16  19
ATOM     19  O   LIG A   1     -10.070   6.765 126.740  0.00  0.00    -0.505 OA
ATOM     20  H   LIG A   1      -9.514   6.037 127.087  0.00  0.00    +0.292 HD
ENDBRANCH  16  19
BRANCH  11  21
ATOM     21  C   LIG A   1      -8.506   3.116 130.480  0.00  0.00    +0.202 C 
BRANCH  21  22
ATOM     22  O   LIG A   1      -9.386   2.733 129.421  0.00  0.00    -0.392 OA
ATOM     23  H   LIG A   1      -9.390   1.760 129.381  0.00  0.00    +0.209 HD
ENDBRANCH  21  22
ENDBRANCH  11  21
TORSDOF 4
ENDMDL
MODEL 2
REMARK VINA RESULT:      -6.2      6.723      8.193
REMARK  Name = NuBBE_906
REMARK  6 active torsions:
REMARK  status: ('A' for Active; 'I' for Inactive)
REMARK    1  A    between atoms: N_10  and  C_16
REMARK    2  A    between atoms: C_11  and  C_12
REMARK    3  A    between atoms: C_11  and  S_14
REMARK    4  A    between atoms: C_12  and  O_13
REMARK    5  A    between atoms: S_14  and  C_15
REMARK    6  A    between atoms: C_20  and  O_21
REMARK                            x       y       z     vdW  Elec       q    Type
REMARK                         _______ _______ _______ _____ _____    ______ ____
ROOT
ATOM      1  O   LIG A   1      -9.176   2.902 123.314  0.00  0.00    -0.272 OA
ATOM      2  C   LIG A   1      -8.084   2.980 123.882  0.00  0.00    +0.257 C 
ATOM      3  N   LIG A   1      -6.969   3.521 123.275  0.00  0.00    -0.253 N 
ATOM      4  C   LIG A   1      -6.784   3.882 121.926  0.00  0.00    +0.082 A 
ATOM      5  C   LIG A   1      -5.508   4.445 121.783  0.00  0.00    -0.020 A 
ATOM      6  C   LIG A   1      -4.754   4.438 123.079  0.00  0.00    +0.069 C 
ATOM      7  C   LIG A   1      -5.870   4.089 124.064  0.00  0.00    +0.172 C 
ATOM      8  C   LIG A   1      -5.426   3.143 125.171  0.00  0.00    +0.238 C 
ATOM      9  O   LIG A   1      -4.290   3.222 125.643  0.00  0.00    -0.274 OA
ATOM     10  N   LIG A   1      -6.415   2.300 125.686  0.00  0.00    -0.279 N 
ATOM     11  C   LIG A   1      -7.860   2.592 125.396  0.00  0.00    +0.183 C 
ATOM     12  C   LIG A   1      -6.059   1.520 126.868  0.00  0.00    +0.134 C 
ATOM     13  C   LIG A   1      -5.032   4.878 120.554  0.00  0.00    +0.006 A 
ATOM     14  C   LIG A   1      -5.863   4.750 119.442  0.00  0.00    +0.004 A 
ATOM     15  C   LIG A   1      -7.139   4.185 119.572  0.00  0.00    +0.047 A 
ATOM     16  C   LIG A   1      -7.605   3.746 120.814  0.00  0.00    +0.138 A 
ENDROOT
BRANCH  11  17
ATOM     17  S   LIG A   1      -8.930   1.082 125.722  0.00  0.00    -0.127 S 
ATOM     18  C   LIG A   1      -8.239  -0.092 124.519  0.00  0.00    +0.087 C 
ENDBRANCH  11  17
BRANCH  16  19
ATOM     19  O   LIG A   1      -8.857   3.211 120.824  0.00  0.00    -0.505 OA
ATOM     20  H   LIG A   1      -9.452   3.788 120.302  0.00  0.00    +0.292 HD
ENDBRANCH  16  19
BRANCH  11  21
ATOM     21  C   LIG A   1      -8.407   3.796 126.228  0.00  0.00    +0.202 C 
BRANCH  21  22
ATOM     22  O   LIG A   1      -8.907   4.867 125.424  0.00  0.00    -0.392 OA
ATOM     23  H   LIG A   1      -9.420   4.473 124.697  0.00  0.00    +0.209 HD
ENDBRANCH  21  22
ENDBRANCH  11  21
TORSDOF 4
ENDMDL
MODEL 3
REMARK VINA RESULT:      -6.0      7.099      9.651
REMARK  Name = NuBBE_906
REMARK  6 active torsions:
REMARK  status: ('A' for Active; 'I' for Inactive)
REMARK    1  A    between atoms: N_10  and  C_16
REMARK    2  A    between atoms: C_11  and  C_12
REMARK    3  A    between atoms: C_11  and  S_14
REMARK    4  A    between atoms: C_12  and  O_13
REMARK    5  A    between atoms: S_14  and  C_15
REMARK    6  A    between atoms: C_20  and  O_21
REMARK                            x       y       z     vdW  Elec       q    Type
REMARK                         _______ _______ _______ _____ _____    ______ ____
ROOT
ATOM      1  O   LIG A   1      -6.404   0.789 126.566  0.00  0.00    -0.272 OA
ATOM      2  C   LIG A   1      -7.203  -0.069 126.184  0.00  0.00    +0.257 C 
ATOM      3  N   LIG A   1      -7.434  -1.233 126.888  0.00  0.00    -0.253 N 
ATOM      4  C   LIG A   1      -6.729  -1.755 127.990  0.00  0.00    +0.082 A 
ATOM      5  C   LIG A   1      -7.362  -2.933 128.411  0.00  0.00    -0.020 A 
ATOM      6  C   LIG A   1      -8.535  -3.270 127.540  0.00  0.00    +0.069 C 
ATOM      7  C   LIG A   1      -8.696  -1.970 126.751  0.00  0.00    +0.172 C 
ATOM      8  C   LIG A   1      -9.063  -2.189 125.291  0.00  0.00    +0.238 C 
ATOM      9  O   LIG A   1      -9.805  -3.118 124.965  0.00  0.00    -0.274 OA
ATOM     10  N   LIG A   1      -8.617  -1.211 124.396  0.00  0.00    -0.279 N 
ATOM     11  C   LIG A   1      -8.138   0.112 124.925  0.00  0.00    +0.183 C 
ATOM     12  C   LIG A   1      -9.113  -1.304 123.026  0.00  0.00    +0.134 C 
ATOM     13  C   LIG A   1      -6.877  -3.688 129.470  0.00  0.00    +0.006 A 
ATOM     14  C   LIG A   1      -5.732  -3.242 130.127  0.00  0.00    +0.004 A 
ATOM     15  C   LIG A   1      -5.088  -2.067 129.713  0.00  0.00    +0.047 A 
ATOM     16  C   LIG A   1      -5.582  -1.320 128.640  0.00  0.00    +0.138 A 
ENDROOT
BRANCH  11  17
ATOM     17  S   LIG A   1      -7.123   1.024 123.634  0.00  0.00    -0.127 S 
ATOM     18  C   LIG A   1      -8.247   2.390 123.218  0.00  0.00    +0.087 C 
ENDBRANCH  11  17
BRANCH  16  19
ATOM     19  O   LIG A   1      -4.875  -0.201 128.321  0.00  0.00    -0.505 OA
ATOM     20  H   LIG A   1      -4.256  -0.415 127.593  0.00  0.00    +0.292 HD
ENDBRANCH  16  19
BRANCH  11  21
ATOM     21  C   LIG A   1      -9.312   1.029 125.397  0.00  0.00    +0.202 C 
BRANCH  21  22
ATOM     22  O   LIG A   1      -9.060   1.686 126.641  0.00  0.00    -0.392 OA
ATOM     23  H   LIG A   1      -9.219   2.638 126.506  0.00  0.00    +0.209 HD
ENDBRANCH  21  22
ENDBRANCH  11  21
TORSDOF 4
ENDMDL
MODEL 4
REMARK VINA RESULT:      -5.9      7.525      9.638
REMARK  Name = NuBBE_906
REMARK  6 active torsions:
REMARK  status: ('A' for Active; 'I' for Inactive)
REMARK    1  A    between atoms: N_10  and  C_16
REMARK    2  A    between atoms: C_11  and  C_12
REMARK    3  A    between atoms: C_11  and  S_14
REMARK    4  A    between atoms: C_12  and  O_13
REMARK    5  A    between atoms: S_14  and  C_15
REMARK    6  A    between atoms: C_20  and  O_21
REMARK                            x       y       z     vdW  Elec       q    Type
REMARK                         _______ _______ _______ _____ _____    ______ ____
ROOT
ATOM      1  O   LIG A   1      -9.235  -1.661 124.113  0.00  0.00    -0.272 OA
ATOM      2  C   LIG A   1      -8.306  -0.986 124.564  0.00  0.00    +0.257 C 
ATOM      3  N   LIG A   1      -7.661  -1.306 125.741  0.00  0.00    -0.253 N 
ATOM      4  C   LIG A   1      -8.016  -2.262 126.713  0.00  0.00    +0.082 A 
ATOM      5  C   LIG A   1      -7.031  -2.275 127.711  0.00  0.00    -0.020 A 
ATOM      6  C   LIG A   1      -5.964  -1.256 127.445  0.00  0.00    +0.069 C 
ATOM      7  C   LIG A   1      -6.286  -0.865 126.002  0.00  0.00    +0.172 C 
ATOM      8  C   LIG A   1      -6.110   0.621 125.724  0.00  0.00    +0.238 C 
ATOM      9  O   LIG A   1      -5.206   1.257 126.270  0.00  0.00    -0.274 OA
ATOM     10  N   LIG A   1      -6.938   1.158 124.734  0.00  0.00    -0.279 N 
ATOM     11  C   LIG A   1      -7.665   0.235 123.796  0.00  0.00    +0.183 C 
ATOM     12  C   LIG A   1      -6.659   2.532 124.322  0.00  0.00    +0.134 C 
ATOM     13  C   LIG A   1      -7.121  -3.106 128.818  0.00  0.00    +0.006 A 
ATOM     14  C   LIG A   1      -8.224  -3.951 128.921  0.00  0.00    +0.004 A 
ATOM     15  C   LIG A   1      -9.218  -3.943 127.932  0.00  0.00    +0.047 A 
ATOM     16  C   LIG A   1      -9.120  -3.097 126.824  0.00  0.00    +0.138 A 
ENDROOT
BRANCH  11  17
ATOM     17  S   LIG A   1      -9.079   1.126 122.939  0.00  0.00    -0.127 S 
ATOM     18  C   LIG A   1     -10.153   1.506 124.354  0.00  0.00    +0.087 C 
ENDBRANCH  11  17
BRANCH  16  19
ATOM     19  O   LIG A   1     -10.143  -3.169 125.929  0.00  0.00    -0.505 OA
ATOM     20  H   LIG A   1     -10.867  -2.582 126.229  0.00  0.00    +0.292 HD
ENDBRANCH  16  19
BRANCH  11  21
ATOM     21  C   LIG A   1      -6.722  -0.389 122.718  0.00  0.00    +0.202 C 
BRANCH  21  22
ATOM     22  O   LIG A   1      -6.945  -1.784 122.500  0.00  0.00    -0.392 OA
ATOM     23  H   LIG A   1      -7.284  -2.159 123.332  0.00  0.00    +0.209 HD
ENDBRANCH  21  22
ENDBRANCH  11  21
TORSDOF 4
ENDMDL
MODEL 5
REMARK VINA RESULT:      -5.8      6.332      8.551
REMARK  Name = NuBBE_906
REMARK  6 active torsions:
REMARK  status: ('A' for Active; 'I' for Inactive)
REMARK    1  A    between atoms: N_10  and  C_16
REMARK    2  A    between atoms: C_11  and  C_12
REMARK    3  A    between atoms: C_11  and  S_14
REMARK    4  A    between atoms: C_12  and  O_13
REMARK    5  A    between atoms: S_14  and  C_15
REMARK    6  A    between atoms: C_20  and  O_21
REMARK                            x       y       z     vdW  Elec       q    Type
REMARK                         _______ _______ _______ _____ _____    ______ ____
ROOT
ATOM      1  O   LIG A   1      -7.214   0.923 126.389  0.00  0.00    -0.272 OA
ATOM      2  C   LIG A   1      -7.428  -0.017 127.159  0.00  0.00    +0.257 C 
ATOM      3  N   LIG A   1      -7.885  -1.243 126.722  0.00  0.00    -0.253 N 
ATOM      4  C   LIG A   1      -8.365  -1.605 125.448  0.00  0.00    +0.082 A 
ATOM      5  C   LIG A   1      -8.664  -2.975 125.453  0.00  0.00    -0.020 A 
ATOM      6  C   LIG A   1      -8.420  -3.587 126.801  0.00  0.00    +0.069 C 
ATOM      7  C   LIG A   1      -7.642  -2.467 127.493  0.00  0.00    +0.172 C 
ATOM      8  C   LIG A   1      -8.013  -2.290 128.959  0.00  0.00    +0.238 C 
ATOM      9  O   LIG A   1      -8.294  -3.267 129.655  0.00  0.00    -0.274 OA
ATOM     10  N   LIG A   1      -7.882  -0.995 129.469  0.00  0.00    -0.279 N 
ATOM     11  C   LIG A   1      -7.091   0.026 128.700  0.00  0.00    +0.183 C 
ATOM     12  C   LIG A   1      -8.052  -0.840 130.911  0.00  0.00    +0.134 C 
ATOM     13  C   LIG A   1      -9.180  -3.617 124.337  0.00  0.00    +0.006 A 
ATOM     14  C   LIG A   1      -9.393  -2.865 123.183  0.00  0.00    +0.004 A 
ATOM     15  C   LIG A   1      -9.103  -1.494 123.167  0.00  0.00    +0.047 A 
ATOM     16  C   LIG A   1      -8.590  -0.856 124.300  0.00  0.00    +0.138 A 
ENDROOT
BRANCH  11  17
ATOM     17  S   LIG A   1      -7.491   1.766 129.285  0.00  0.00    -0.127 S 
ATOM     18  C   LIG A   1      -5.855   2.325 129.843  0.00  0.00    +0.087 C 
ENDBRANCH  11  17
BRANCH  16  19
ATOM     19  O   LIG A   1      -8.349   0.477 124.174  0.00  0.00    -0.505 OA
ATOM     20  H   LIG A   1      -8.124   0.842 125.054  0.00  0.00    +0.292 HD
ENDBRANCH  16  19
BRANCH  11  21
ATOM     21  C   LIG A   1      -5.549  -0.208 128.804  0.00  0.00    +0.202 C 
BRANCH  21  22
ATOM     22  O   LIG A   1      -4.882  -0.193 127.540  0.00  0.00    -0.392 OA
ATOM     23  H   LIG A   1      -3.959  -0.465 127.693  0.00  0.00    +0.209 HD
ENDBRANCH  21  22
ENDBRANCH  11  21
TORSDOF 4
ENDMDL
MODEL 6
REMARK VINA RESULT:      -5.8      6.455      8.946
REMARK  Name = NuBBE_906
REMARK  6 active torsions:
REMARK  status: ('A' for Active; 'I' for Inactive)
REMARK    1  A    between atoms: N_10  and  C_16
REMARK    2  A    between atoms: C_11  and  C_12
REMARK    3  A    between atoms: C_11  and  S_14
REMARK    4  A    between atoms: C_12  and  O_13
REMARK    5  A    between atoms: S_14  and  C_15
REMARK    6  A    between atoms: C_20  and  O_21
REMARK                            x       y       z     vdW  Elec       q    Type
REMARK                         _______ _______ _______ _____ _____    ______ ____
ROOT
ATOM      1  O   LIG A   1      -6.594   0.237 126.894  0.00  0.00    -0.272 OA
ATOM      2  C   LIG A   1      -6.956   0.838 125.879  0.00  0.00    +0.257 C 
ATOM      3  N   LIG A   1      -7.729   0.244 124.903  0.00  0.00    -0.253 N 
ATOM      4  C   LIG A   1      -8.075  -1.113 124.752  0.00  0.00    +0.082 A 
ATOM      5  C   LIG A   1      -8.926  -1.239 123.645  0.00  0.00    -0.020 A 
ATOM      6  C   LIG A   1      -9.150   0.081 122.969  0.00  0.00    +0.069 C 
ATOM      7  C   LIG A   1      -8.576   1.043 124.010  0.00  0.00    +0.172 C 
ATOM      8  C   LIG A   1      -7.809   2.207 123.400  0.00  0.00    +0.238 C 
ATOM      9  O   LIG A   1      -8.179   2.713 122.339  0.00  0.00    -0.274 OA
ATOM     10  N   LIG A   1      -6.769   2.726 124.177  0.00  0.00    -0.279 N 
ATOM     11  C   LIG A   1      -6.689   2.375 125.636  0.00  0.00    +0.183 C 
ATOM     12  C   LIG A   1      -6.143   3.955 123.695  0.00  0.00    +0.134 C 
ATOM     13  C   LIG A   1      -9.416  -2.470 123.234  0.00  0.00    +0.006 A 
ATOM     14  C   LIG A   1      -9.049  -3.602 123.959  0.00  0.00    +0.004 A 
ATOM     15  C   LIG A   1      -8.195  -3.489 125.066  0.00  0.00    +0.047 A 
ATOM     16  C   LIG A   1      -7.702  -2.244 125.466  0.00  0.00    +0.138 A 
ENDROOT
BRANCH  11  17
ATOM     17  S   LIG A   1      -4.977   2.734 126.322  0.00  0.00    -0.127 S 
ATOM     18  C   LIG A   1      -5.338   4.128 127.429  0.00  0.00    +0.087 C 
ENDBRANCH  11  17
BRANCH  16  19
ATOM     19  O   LIG A   1      -6.879  -2.252 126.550  0.00  0.00    -0.505 OA
ATOM     20  H   LIG A   1      -7.246  -1.650 127.230  0.00  0.00    +0.292 HD
ENDBRANCH  16  19
BRANCH  11  21
ATOM     21  C   LIG A   1      -7.755   3.131 126.494  0.00  0.00    +0.202 C 
BRANCH  21  22
ATOM     22  O   LIG A   1      -8.507   2.275 127.357  0.00  0.00    -0.392 OA
ATOM     23  H   LIG A   1      -7.895   1.928 128.031  0.00  0.00    +0.209 HD
ENDBRANCH  21  22
ENDBRANCH  11  21
TORSDOF 4
ENDMDL
MODEL 7
REMARK VINA RESULT:      -5.8      3.013      5.727
REMARK  Name = NuBBE_906
REMARK  6 active torsions:
REMARK  status: ('A' for Active; 'I' for Inactive)
REMARK    1  A    between atoms: N_10  and  C_16
REMARK    2  A    between atoms: C_11  and  C_12
REMARK    3  A    between atoms: C_11  and  S_14
REMARK    4  A    between atoms: C_12  and  O_13
REMARK    5  A    between atoms: S_14  and  C_15
REMARK    6  A    between atoms: C_20  and  O_21
REMARK                            x       y       z     vdW  Elec       q    Type
REMARK                         _______ _______ _______ _____ _____    ______ ____
ROOT
ATOM      1  O   LIG A   1      -7.358   5.208 128.990  0.00  0.00    -0.272 OA
ATOM      2  C   LIG A   1      -7.134   5.350 130.195  0.00  0.00    +0.257 C 
ATOM      3  N   LIG A   1      -5.907   5.758 130.677  0.00  0.00    -0.253 N 
ATOM      4  C   LIG A   1      -4.685   5.891 129.988  0.00  0.00    +0.082 A 
ATOM      5  C   LIG A   1      -3.722   6.392 130.876  0.00  0.00    -0.020 A 
ATOM      6  C   LIG A   1      -4.285   6.577 132.253  0.00  0.00    +0.069 C 
ATOM      7  C   LIG A   1      -5.781   6.420 131.981  0.00  0.00    +0.172 C 
ATOM      8  C   LIG A   1      -6.518   5.656 133.072  0.00  0.00    +0.238 C 
ATOM      9  O   LIG A   1      -6.191   5.783 134.254  0.00  0.00    -0.274 OA
ATOM     10  N   LIG A   1      -7.639   4.931 132.658  0.00  0.00    -0.279 N 
ATOM     11  C   LIG A   1      -8.242   5.207 131.309  0.00  0.00    +0.183 C 
ATOM     12  C   LIG A   1      -8.465   4.345 133.711  0.00  0.00    +0.134 C 
ATOM     13  C   LIG A   1      -2.408   6.608 130.485  0.00  0.00    +0.006 A 
ATOM     14  C   LIG A   1      -2.056   6.321 129.168  0.00  0.00    +0.004 A 
ATOM     15  C   LIG A   1      -3.010   5.816 128.273  0.00  0.00    +0.047 A 
ATOM     16  C   LIG A   1      -4.328   5.596 128.679  0.00  0.00    +0.138 A 
ENDROOT
BRANCH  11  17
ATOM     17  S   LIG A   1      -9.360   3.797 130.771  0.00  0.00    -0.127 S 
ATOM     18  C   LIG A   1     -10.928   4.679 130.520  0.00  0.00    +0.087 C 
ENDBRANCH  11  17
BRANCH  16  19
ATOM     19  O   LIG A   1      -5.168   5.100 127.730  0.00  0.00    -0.505 OA
ATOM     20  H   LIG A   1      -4.677   4.455 127.180  0.00  0.00    +0.292 HD
ENDBRANCH  16  19
BRANCH  11  21
ATOM     21  C   LIG A   1      -9.051   6.544 131.276  0.00  0.00    +0.202 C 
BRANCH  21  22
ATOM     22  O   LIG A   1      -8.691   7.405 130.194  0.00  0.00    -0.392 OA
ATOM     23  H   LIG A   1      -7.729   7.323 130.062  0.00  0.00    +0.209 HD
ENDBRANCH  21  22
ENDBRANCH  11  21
TORSDOF 4
ENDMDL
MODEL 8
REMARK VINA RESULT:      -5.7      5.356      6.707
REMARK  Name = NuBBE_906
REMARK  6 active torsions:
REMARK  status: ('A' for Active; 'I' for Inactive)
REMARK    1  A    between atoms: N_10  and  C_16
REMARK    2  A    between atoms: C_11  and  C_12
REMARK    3  A    between atoms: C_11  and  S_14
REMARK    4  A    between atoms: C_12  and  O_13
REMARK    5  A    between atoms: S_14  and  C_15
REMARK    6  A    between atoms: C_20  and  O_21
REMARK                            x       y       z     vdW  Elec       q    Type
REMARK                         _______ _______ _______ _____ _____    ______ ____
ROOT
ATOM      1  O   LIG A   1      -4.160   4.091 125.002  0.00  0.00    -0.272 OA
ATOM      2  C   LIG A   1      -5.174   3.835 125.657  0.00  0.00    +0.257 C 
ATOM      3  N   LIG A   1      -6.366   3.469 125.065  0.00  0.00    -0.253 N 
ATOM      4  C   LIG A   1      -6.724   3.504 123.703  0.00  0.00    +0.082 A 
ATOM      5  C   LIG A   1      -8.018   2.983 123.566  0.00  0.00    -0.020 A 
ATOM      6  C   LIG A   1      -8.604   2.606 124.894  0.00  0.00    +0.069 C 
ATOM      7  C   LIG A   1      -7.367   2.680 125.790  0.00  0.00    +0.172 C 
ATOM      8  C   LIG A   1      -7.652   3.262 127.167  0.00  0.00    +0.238 C 
ATOM      9  O   LIG A   1      -8.722   3.031 127.735  0.00  0.00    -0.274 OA
ATOM     10  N   LIG A   1      -6.591   3.942 127.773  0.00  0.00    -0.279 N 
ATOM     11  C   LIG A   1      -5.199   3.771 127.234  0.00  0.00    +0.183 C 
ATOM     12  C   LIG A   1      -6.782   4.345 129.164  0.00  0.00    +0.134 C 
ATOM     13  C   LIG A   1      -8.652   2.910 122.334  0.00  0.00    +0.006 A 
ATOM     14  C   LIG A   1      -7.964   3.364 121.210  0.00  0.00    +0.004 A 
ATOM     15  C   LIG A   1      -6.671   3.892 121.335  0.00  0.00    +0.047 A 
ATOM     16  C   LIG A   1      -6.046   3.967 122.583  0.00  0.00    +0.138 A 
ENDROOT
BRANCH  11  17
ATOM     17  S   LIG A   1      -4.070   5.144 127.840  0.00  0.00    -0.127 S 
ATOM     18  C   LIG A   1      -3.057   4.245 129.052  0.00  0.00    +0.087 C 
ENDBRANCH  11  17
BRANCH  16  19
ATOM     19  O   LIG A   1      -4.793   4.500 122.588  0.00  0.00    -0.505 OA
ATOM     20  H   LIG A   1      -4.648   4.955 123.444  0.00  0.00    +0.292 HD
ENDBRANCH  16  19
BRANCH  11  21
ATOM     21  C   LIG A   1      -4.575   2.389 127.612  0.00  0.00    +0.202 C 
BRANCH  21  22
ATOM     22  O   LIG A   1      -3.805   1.801 126.561  0.00  0.00    -0.392 OA
ATOM     23  H   LIG A   1      -3.432   2.527 126.030  0.00  0.00    +0.209 HD
ENDBRANCH  21  22
ENDBRANCH  11  21
TORSDOF 4
ENDMDL
MODEL 9
REMARK VINA RESULT:      -5.6      5.976      8.909
REMARK  Name = NuBBE_906
REMARK  6 active torsions:
REMARK  status: ('A' for Active; 'I' for Inactive)
REMARK    1  A    between atoms: N_10  and  C_16
REMARK    2  A    between atoms: C_11  and  C_12
REMARK    3  A    between atoms: C_11  and  S_14
REMARK    4  A    between atoms: C_12  and  O_13
REMARK    5  A    between atoms: S_14  and  C_15
REMARK    6  A    between atoms: C_20  and  O_21
REMARK                            x       y       z     vdW  Elec       q    Type
REMARK                         _______ _______ _______ _____ _____    ______ ____
ROOT
ATOM      1  O   LIG A   1      -6.512   1.019 127.987  0.00  0.00    -0.272 OA
ATOM      2  C   LIG A   1      -7.001   0.790 126.878  0.00  0.00    +0.257 C 
ATOM      3  N   LIG A   1      -7.707  -0.363 126.603  0.00  0.00    -0.253 N 
ATOM      4  C   LIG A   1      -7.841  -1.526 127.386  0.00  0.00    +0.082 A 
ATOM      5  C   LIG A   1      -8.702  -2.415 126.726  0.00  0.00    -0.020 A 
ATOM      6  C   LIG A   1      -9.155  -1.866 125.406  0.00  0.00    +0.069 C 
ATOM      7  C   LIG A   1      -8.701  -0.410 125.524  0.00  0.00    +0.172 C 
ATOM      8  C   LIG A   1      -8.148   0.158 124.225  0.00  0.00    +0.238 C 
ATOM      9  O   LIG A   1      -8.631  -0.174 123.141  0.00  0.00    -0.274 OA
ATOM     10  N   LIG A   1      -7.175   1.153 124.360  0.00  0.00    -0.279 N 
ATOM     11  C   LIG A   1      -6.987   1.829 125.689  0.00  0.00    +0.183 C 
ATOM     12  C   LIG A   1      -6.767   1.839 123.137  0.00  0.00    +0.134 C 
ATOM     13  C   LIG A   1      -9.008  -3.663 127.250  0.00  0.00    +0.006 A 
ATOM     14  C   LIG A   1      -8.442  -4.023 128.471  0.00  0.00    +0.004 A 
ATOM     15  C   LIG A   1      -7.577  -3.144 129.138  0.00  0.00    +0.047 A 
ATOM     16  C   LIG A   1      -7.270  -1.892 128.598  0.00  0.00    +0.138 A 
ENDROOT
BRANCH  11  17
ATOM     17  S   LIG A   1      -5.329   2.708 125.769  0.00  0.00    -0.127 S 
ATOM     18  C   LIG A   1      -5.864   4.440 125.882  0.00  0.00    +0.087 C 
ENDBRANCH  11  17
BRANCH  16  19
ATOM     19  O   LIG A   1      -6.416  -1.123 129.327  0.00  0.00    -0.505 OA
ATOM     20  H   LIG A   1      -6.783  -0.216 129.389  0.00  0.00    +0.292 HD
ENDBRANCH  16  19
BRANCH  11  21
ATOM     21  C   LIG A   1      -8.126   2.851 126.007  0.00  0.00    +0.202 C 
BRANCH  21  22
ATOM     22  O   LIG A   1      -8.638   2.743 127.337  0.00  0.00    -0.392 OA
ATOM     23  H   LIG A   1      -7.880   2.603 127.932  0.00  0.00    +0.209 HD
ENDBRANCH  21  22
ENDBRANCH  11  21
TORSDOF 4
ENDMDL
