MODEL 1
REMARK VINA RESULT:      -7.1      0.000      0.000
REMARK  Name = NuBBE_1829
REMARK  5 active torsions:
REMARK  status: ('A' for Active; 'I' for Inactive)
REMARK    1  A    between atoms: C_2  and  O_3
REMARK    2  A    between atoms: C_2  and  C_11
REMARK    3  A    between atoms: O_3  and  C_4
REMARK    4  A    between atoms: C_4  and  C_5
REMARK    5  A    between atoms: C_16  and  O_17
REMARK                            x       y       z     vdW  Elec       q    Type
REMARK                         _______ _______ _______ _____ _____    ______ ____
ROOT
ATOM      1  O   LIG A   1     -10.201  -0.079 122.764  0.00  0.00    -0.245 OA
ATOM      2  C   LIG A   1      -9.098   0.066 123.263  0.00  0.00    +0.343 C 
ENDROOT
BRANCH   2   3
ATOM      3  C   LIG A   1      -8.211  -1.072 123.605  0.00  0.00    +0.100 A 
ATOM      4  C   LIG A   1      -6.837  -0.809 123.721  0.00  0.00    +0.019 A 
ATOM      5  C   LIG A   1      -5.941  -1.841 124.005  0.00  0.00    +0.001 A 
ATOM      6  C   LIG A   1      -6.410  -3.143 124.168  0.00  0.00    +0.004 A 
ATOM      7  C   LIG A   1      -7.775  -3.417 124.053  0.00  0.00    +0.046 A 
ATOM      8  C   LIG A   1      -8.673  -2.385 123.768  0.00  0.00    +0.131 A 
BRANCH   8   9
ATOM      9  O   LIG A   1      -9.997  -2.687 123.614  0.00  0.00    -0.506 OA
ATOM     10  H   LIG A   1     -10.312  -3.176 124.390  0.00  0.00    +0.292 HD
ENDBRANCH   8   9
ENDBRANCH   2   3
BRANCH   2  11
ATOM     11  O   LIG A   1      -8.472   1.241 123.519  0.00  0.00    -0.456 OA
BRANCH  11  12
ATOM     12  C   LIG A   1      -9.101   2.405 122.977  0.00  0.00    +0.268 C 
BRANCH  12  13
ATOM     13  C   LIG A   1      -8.207   3.054 121.951  0.00  0.00    -0.010 A 
ATOM     14  C   LIG A   1      -6.815   3.079 122.122  0.00  0.00    +0.007 A 
ATOM     15  C   LIG A   1      -5.996   3.646 121.144  0.00  0.00    +0.000 A 
ATOM     16  C   LIG A   1      -6.560   4.199 119.996  0.00  0.00    +0.000 A 
ATOM     17  C   LIG A   1      -7.944   4.193 119.827  0.00  0.00    +0.000 A 
ATOM     18  C   LIG A   1      -8.763   3.621 120.799  0.00  0.00    +0.007 A 
ENDBRANCH  12  13
ENDBRANCH  11  12
ENDBRANCH   2  11
TORSDOF 5
ENDMDL
MODEL 2
REMARK VINA RESULT:      -6.9      9.555     10.731
REMARK  Name = NuBBE_1829
REMARK  5 active torsions:
REMARK  status: ('A' for Active; 'I' for Inactive)
REMARK    1  A    between atoms: C_2  and  O_3
REMARK    2  A    between atoms: C_2  and  C_11
REMARK    3  A    between atoms: O_3  and  C_4
REMARK    4  A    between atoms: C_4  and  C_5
REMARK    5  A    between atoms: C_16  and  O_17
REMARK                            x       y       z     vdW  Elec       q    Type
REMARK                         _______ _______ _______ _____ _____    ______ ____
ROOT
ATOM      1  O   LIG A   1      -9.041   6.507 129.854  0.00  0.00    -0.245 OA
ATOM      2  C   LIG A   1      -9.687   6.271 130.860  0.00  0.00    +0.343 C 
ENDROOT
BRANCH   2   3
ATOM      3  C   LIG A   1      -9.520   5.028 131.653  0.00  0.00    +0.100 A 
ATOM      4  C   LIG A   1      -9.686   3.806 130.982  0.00  0.00    +0.019 A 
ATOM      5  C   LIG A   1      -9.579   2.599 131.676  0.00  0.00    +0.001 A 
ATOM      6  C   LIG A   1      -9.312   2.605 133.044  0.00  0.00    +0.004 A 
ATOM      7  C   LIG A   1      -9.148   3.815 133.721  0.00  0.00    +0.046 A 
ATOM      8  C   LIG A   1      -9.255   5.024 133.029  0.00  0.00    +0.131 A 
BRANCH   8   9
ATOM      9  O   LIG A   1      -9.136   6.195 133.724  0.00  0.00    -0.506 OA
ATOM     10  H   LIG A   1      -8.932   6.003 134.653  0.00  0.00    +0.292 HD
ENDBRANCH   8   9
ENDBRANCH   2   3
BRANCH   2  11
ATOM     11  O   LIG A   1     -10.587   7.090 131.458  0.00  0.00    -0.456 OA
BRANCH  11  12
ATOM     12  C   LIG A   1     -11.956   6.701 131.325  0.00  0.00    +0.268 C 
BRANCH  12  13
ATOM     13  C   LIG A   1     -12.560   7.323 130.092  0.00  0.00    -0.010 A 
ATOM     14  C   LIG A   1     -12.665   8.715 129.965  0.00  0.00    +0.007 A 
ATOM     15  C   LIG A   1     -13.188   9.279 128.800  0.00  0.00    +0.000 A 
ATOM     16  C   LIG A   1     -13.616   8.458 127.759  0.00  0.00    +0.000 A 
ATOM     17  C   LIG A   1     -13.531   7.072 127.884  0.00  0.00    +0.000 A 
ATOM     18  C   LIG A   1     -13.003   6.508 129.044  0.00  0.00    +0.007 A 
ENDBRANCH  12  13
ENDBRANCH  11  12
ENDBRANCH   2  11
TORSDOF 5
ENDMDL
MODEL 3
REMARK VINA RESULT:      -6.7      2.062      6.195
REMARK  Name = NuBBE_1829
REMARK  5 active torsions:
REMARK  status: ('A' for Active; 'I' for Inactive)
REMARK    1  A    between atoms: C_2  and  O_3
REMARK    2  A    between atoms: C_2  and  C_11
REMARK    3  A    between atoms: O_3  and  C_4
REMARK    4  A    between atoms: C_4  and  C_5
REMARK    5  A    between atoms: C_16  and  O_17
REMARK                            x       y       z     vdW  Elec       q    Type
REMARK                         _______ _______ _______ _____ _____    ______ ____
ROOT
ATOM      1  O   LIG A   1      -8.992   3.082 123.126  0.00  0.00    -0.245 OA
ATOM      2  C   LIG A   1      -7.844   2.808 122.822  0.00  0.00    +0.343 C 
ENDROOT
BRANCH   2   3
ATOM      3  C   LIG A   1      -7.128   3.466 121.701  0.00  0.00    +0.100 A 
ATOM      4  C   LIG A   1      -5.761   3.731 121.876  0.00  0.00    +0.019 A 
ATOM      5  C   LIG A   1      -5.034   4.382 120.877  0.00  0.00    +0.001 A 
ATOM      6  C   LIG A   1      -5.669   4.777 119.701  0.00  0.00    +0.004 A 
ATOM      7  C   LIG A   1      -7.029   4.520 119.518  0.00  0.00    +0.046 A 
ATOM      8  C   LIG A   1      -7.758   3.870 120.517  0.00  0.00    +0.131 A 
BRANCH   8   9
ATOM      9  O   LIG A   1      -9.098   3.673 120.333  0.00  0.00    -0.506 OA
ATOM     10  H   LIG A   1      -9.598   4.250 120.932  0.00  0.00    +0.292 HD
ENDBRANCH   8   9
ENDBRANCH   2   3
BRANCH   2  11
ATOM     11  O   LIG A   1      -7.018   1.944 123.462  0.00  0.00    -0.456 OA
BRANCH  11  12
ATOM     12  C   LIG A   1      -7.664   0.859 124.134  0.00  0.00    +0.268 C 
BRANCH  12  13
ATOM     13  C   LIG A   1      -6.852  -0.403 123.991  0.00  0.00    -0.010 A 
ATOM     14  C   LIG A   1      -6.805  -1.094 122.772  0.00  0.00    +0.007 A 
ATOM     15  C   LIG A   1      -6.016  -2.238 122.641  0.00  0.00    +0.000 A 
ATOM     16  C   LIG A   1      -5.276  -2.704 123.727  0.00  0.00    +0.000 A 
ATOM     17  C   LIG A   1      -5.331  -2.031 124.947  0.00  0.00    +0.000 A 
ATOM     18  C   LIG A   1      -6.114  -0.885 125.077  0.00  0.00    +0.007 A 
ENDBRANCH  12  13
ENDBRANCH  11  12
ENDBRANCH   2  11
TORSDOF 5
ENDMDL
MODEL 4
REMARK VINA RESULT:      -6.6      4.029      5.576
REMARK  Name = NuBBE_1829
REMARK  5 active torsions:
REMARK  status: ('A' for Active; 'I' for Inactive)
REMARK    1  A    between atoms: C_2  and  O_3
REMARK    2  A    between atoms: C_2  and  C_11
REMARK    3  A    between atoms: O_3  and  C_4
REMARK    4  A    between atoms: C_4  and  C_5
REMARK    5  A    between atoms: C_16  and  O_17
REMARK                            x       y       z     vdW  Elec       q    Type
REMARK                         _______ _______ _______ _____ _____    ______ ____
ROOT
ATOM      1  O   LIG A   1      -9.724  -0.831 125.679  0.00  0.00    -0.245 OA
ATOM      2  C   LIG A   1      -9.314  -1.962 125.875  0.00  0.00    +0.343 C 
ENDROOT
BRANCH   2   3
ATOM      3  C   LIG A   1      -8.344  -2.295 126.947  0.00  0.00    +0.100 A 
ATOM      4  C   LIG A   1      -8.722  -3.274 127.879  0.00  0.00    +0.019 A 
ATOM      5  C   LIG A   1      -7.872  -3.610 128.935  0.00  0.00    +0.001 A 
ATOM      6  C   LIG A   1      -6.643  -2.966 129.069  0.00  0.00    +0.004 A 
ATOM      7  C   LIG A   1      -6.258  -1.989 128.148  0.00  0.00    +0.046 A 
ATOM      8  C   LIG A   1      -7.108  -1.652 127.091  0.00  0.00    +0.131 A 
BRANCH   8   9
ATOM      9  O   LIG A   1      -6.728  -0.660 126.231  0.00  0.00    -0.506 OA
ATOM     10  H   LIG A   1      -7.404  -0.548 125.544  0.00  0.00    +0.292 HD
ENDBRANCH   8   9
ENDBRANCH   2   3
BRANCH   2  11
ATOM     11  O   LIG A   1      -9.703  -3.089 125.229  0.00  0.00    -0.456 OA
BRANCH  11  12
ATOM     12  C   LIG A   1      -9.386  -3.141 123.836  0.00  0.00    +0.268 C 
BRANCH  12  13
ATOM     13  C   LIG A   1      -7.900  -3.000 123.631  0.00  0.00    -0.010 A 
ATOM     14  C   LIG A   1      -7.000  -3.862 124.273  0.00  0.00    +0.007 A 
ATOM     15  C   LIG A   1      -5.628  -3.748 124.041  0.00  0.00    +0.000 A 
ATOM     16  C   LIG A   1      -5.145  -2.768 123.175  0.00  0.00    +0.000 A 
ATOM     17  C   LIG A   1      -6.033  -1.895 122.546  0.00  0.00    +0.000 A 
ATOM     18  C   LIG A   1      -7.404  -2.013 122.772  0.00  0.00    +0.007 A 
ENDBRANCH  12  13
ENDBRANCH  11  12
ENDBRANCH   2  11
TORSDOF 5
ENDMDL
MODEL 5
REMARK VINA RESULT:      -6.5      8.677     11.146
REMARK  Name = NuBBE_1829
REMARK  5 active torsions:
REMARK  status: ('A' for Active; 'I' for Inactive)
REMARK    1  A    between atoms: C_2  and  O_3
REMARK    2  A    between atoms: C_2  and  C_11
REMARK    3  A    between atoms: O_3  and  C_4
REMARK    4  A    between atoms: C_4  and  C_5
REMARK    5  A    between atoms: C_16  and  O_17
REMARK                            x       y       z     vdW  Elec       q    Type
REMARK                         _______ _______ _______ _____ _____    ______ ____
ROOT
ATOM      1  O   LIG A   1     -10.016   6.473 132.508  0.00  0.00    -0.245 OA
ATOM      2  C   LIG A   1     -10.192   6.180 131.338  0.00  0.00    +0.343 C 
ENDROOT
BRANCH   2   3
ATOM      3  C   LIG A   1     -10.894   7.069 130.380  0.00  0.00    +0.100 A 
ATOM      4  C   LIG A   1     -10.146   7.587 129.312  0.00  0.00    +0.019 A 
ATOM      5  C   LIG A   1     -10.734   8.460 128.394  0.00  0.00    +0.001 A 
ATOM      6  C   LIG A   1     -12.072   8.825 128.542  0.00  0.00    +0.004 A 
ATOM      7  C   LIG A   1     -12.825   8.316 129.602  0.00  0.00    +0.046 A 
ATOM      8  C   LIG A   1     -12.237   7.444 130.521  0.00  0.00    +0.131 A 
BRANCH   8   9
ATOM      9  O   LIG A   1     -12.983   6.997 131.576  0.00  0.00    -0.506 OA
ATOM     10  H   LIG A   1     -13.630   7.675 131.828  0.00  0.00    +0.292 HD
ENDBRANCH   8   9
ENDBRANCH   2   3
BRANCH   2  11
ATOM     11  O   LIG A   1      -9.739   5.072 130.702  0.00  0.00    -0.456 OA
BRANCH  11  12
ATOM     12  C   LIG A   1     -10.617   3.943 130.730  0.00  0.00    +0.268 C 
BRANCH  12  13
ATOM     13  C   LIG A   1      -9.824   2.662 130.742  0.00  0.00    -0.010 A 
ATOM     14  C   LIG A   1      -8.917   2.366 129.715  0.00  0.00    +0.007 A 
ATOM     15  C   LIG A   1      -8.157   1.196 129.761  0.00  0.00    +0.000 A 
ATOM     16  C   LIG A   1      -8.305   0.310 130.827  0.00  0.00    +0.000 A 
ATOM     17  C   LIG A   1      -9.217   0.589 131.844  0.00  0.00    +0.000 A 
ATOM     18  C   LIG A   1      -9.971   1.760 131.802  0.00  0.00    +0.007 A 
ENDBRANCH  12  13
ENDBRANCH  11  12
ENDBRANCH   2  11
TORSDOF 5
ENDMDL
MODEL 6
REMARK VINA RESULT:      -6.4      9.423     11.324
REMARK  Name = NuBBE_1829
REMARK  5 active torsions:
REMARK  status: ('A' for Active; 'I' for Inactive)
REMARK    1  A    between atoms: C_2  and  O_3
REMARK    2  A    between atoms: C_2  and  C_11
REMARK    3  A    between atoms: O_3  and  C_4
REMARK    4  A    between atoms: C_4  and  C_5
REMARK    5  A    between atoms: C_16  and  O_17
REMARK                            x       y       z     vdW  Elec       q    Type
REMARK                         _______ _______ _______ _____ _____    ______ ____
ROOT
ATOM      1  O   LIG A   1     -10.189   4.413 129.888  0.00  0.00    -0.245 OA
ATOM      2  C   LIG A   1      -9.889   5.593 129.843  0.00  0.00    +0.343 C 
ENDROOT
BRANCH   2   3
ATOM      3  C   LIG A   1     -10.898   6.680 129.774  0.00  0.00    +0.100 A 
ATOM      4  C   LIG A   1     -10.781   7.603 128.723  0.00  0.00    +0.019 A 
ATOM      5  C   LIG A   1     -11.674   8.671 128.619  0.00  0.00    +0.001 A 
ATOM      6  C   LIG A   1     -12.684   8.828 129.567  0.00  0.00    +0.004 A 
ATOM      7  C   LIG A   1     -12.808   7.916 130.617  0.00  0.00    +0.046 A 
ATOM      8  C   LIG A   1     -11.914   6.847 130.723  0.00  0.00    +0.131 A 
BRANCH   8   9
ATOM      9  O   LIG A   1     -12.028   5.995 131.786  0.00  0.00    -0.506 OA
ATOM     10  H   LIG A   1     -11.683   5.122 131.543  0.00  0.00    +0.292 HD
ENDBRANCH   8   9
ENDBRANCH   2   3
BRANCH   2  11
ATOM     11  O   LIG A   1      -8.641   6.117 129.917  0.00  0.00    -0.456 OA
BRANCH  11  12
ATOM     12  C   LIG A   1      -8.343   6.828 131.122  0.00  0.00    +0.268 C 
BRANCH  12  13
ATOM     13  C   LIG A   1      -6.888   6.663 131.480  0.00  0.00    -0.010 A 
ATOM     14  C   LIG A   1      -5.884   7.268 130.710  0.00  0.00    +0.007 A 
ATOM     15  C   LIG A   1      -4.543   7.143 131.078  0.00  0.00    +0.000 A 
ATOM     16  C   LIG A   1      -4.195   6.407 132.209  0.00  0.00    +0.000 A 
ATOM     17  C   LIG A   1      -5.186   5.789 132.970  0.00  0.00    +0.000 A 
ATOM     18  C   LIG A   1      -6.526   5.919 132.609  0.00  0.00    +0.007 A 
ENDBRANCH  12  13
ENDBRANCH  11  12
ENDBRANCH   2  11
TORSDOF 5
ENDMDL
MODEL 7
REMARK VINA RESULT:      -6.3      2.167      6.325
REMARK  Name = NuBBE_1829
REMARK  5 active torsions:
REMARK  status: ('A' for Active; 'I' for Inactive)
REMARK    1  A    between atoms: C_2  and  O_3
REMARK    2  A    between atoms: C_2  and  C_11
REMARK    3  A    between atoms: O_3  and  C_4
REMARK    4  A    between atoms: C_4  and  C_5
REMARK    5  A    between atoms: C_16  and  O_17
REMARK                            x       y       z     vdW  Elec       q    Type
REMARK                         _______ _______ _______ _____ _____    ______ ____
ROOT
ATOM      1  O   LIG A   1      -9.965  -2.148 123.221  0.00  0.00    -0.245 OA
ATOM      2  C   LIG A   1      -8.855  -1.650 123.292  0.00  0.00    +0.343 C 
ENDROOT
BRANCH   2   3
ATOM      3  C   LIG A   1      -8.629  -0.183 123.307  0.00  0.00    +0.100 A 
ATOM      4  C   LIG A   1      -7.385   0.274 123.772  0.00  0.00    +0.019 A 
ATOM      5  C   LIG A   1      -7.119   1.642 123.848  0.00  0.00    +0.001 A 
ATOM      6  C   LIG A   1      -8.094   2.562 123.467  0.00  0.00    +0.004 A 
ATOM      7  C   LIG A   1      -9.335   2.118 123.005  0.00  0.00    +0.046 A 
ATOM      8  C   LIG A   1      -9.603   0.749 122.929  0.00  0.00    +0.131 A 
BRANCH   8   9
ATOM      9  O   LIG A   1     -10.842   0.342 122.518  0.00  0.00    -0.506 OA
ATOM     10  H   LIG A   1     -11.318  -0.055 123.263  0.00  0.00    +0.292 HD
ENDBRANCH   8   9
ENDBRANCH   2   3
BRANCH   2  11
ATOM     11  O   LIG A   1      -7.678  -2.306 123.436  0.00  0.00    -0.456 OA
BRANCH  11  12
ATOM     12  C   LIG A   1      -7.731  -3.500 124.222  0.00  0.00    +0.268 C 
BRANCH  12  13
ATOM     13  C   LIG A   1      -7.719  -3.161 125.691  0.00  0.00    -0.010 A 
ATOM     14  C   LIG A   1      -8.721  -3.637 126.548  0.00  0.00    +0.007 A 
ATOM     15  C   LIG A   1      -8.675  -3.351 127.913  0.00  0.00    +0.000 A 
ATOM     16  C   LIG A   1      -7.634  -2.582 128.430  0.00  0.00    +0.000 A 
ATOM     17  C   LIG A   1      -6.642  -2.091 127.582  0.00  0.00    +0.000 A 
ATOM     18  C   LIG A   1      -6.684  -2.381 126.219  0.00  0.00    +0.007 A 
ENDBRANCH  12  13
ENDBRANCH  11  12
ENDBRANCH   2  11
TORSDOF 5
ENDMDL
MODEL 8
REMARK VINA RESULT:      -6.3      1.197      2.050
REMARK  Name = NuBBE_1829
REMARK  5 active torsions:
REMARK  status: ('A' for Active; 'I' for Inactive)
REMARK    1  A    between atoms: C_2  and  O_3
REMARK    2  A    between atoms: C_2  and  C_11
REMARK    3  A    between atoms: O_3  and  C_4
REMARK    4  A    between atoms: C_4  and  C_5
REMARK    5  A    between atoms: C_16  and  O_17
REMARK                            x       y       z     vdW  Elec       q    Type
REMARK                         _______ _______ _______ _____ _____    ______ ____
ROOT
ATOM      1  O   LIG A   1      -6.199   1.078 125.344  0.00  0.00    -0.245 OA
ATOM      2  C   LIG A   1      -6.863   0.494 124.506  0.00  0.00    +0.343 C 
ENDROOT
BRANCH   2   3
ATOM      3  C   LIG A   1      -7.024  -0.981 124.489  0.00  0.00    +0.100 A 
ATOM      4  C   LIG A   1      -5.865  -1.755 124.321  0.00  0.00    +0.019 A 
ATOM      5  C   LIG A   1      -5.948  -3.148 124.258  0.00  0.00    +0.001 A 
ATOM      6  C   LIG A   1      -7.189  -3.775 124.357  0.00  0.00    +0.004 A 
ATOM      7  C   LIG A   1      -8.348  -3.014 124.523  0.00  0.00    +0.046 A 
ATOM      8  C   LIG A   1      -8.267  -1.621 124.585  0.00  0.00    +0.131 A 
BRANCH   8   9
ATOM      9  O   LIG A   1      -9.421  -0.897 124.700  0.00  0.00    -0.506 OA
ATOM     10  H   LIG A   1      -9.649  -0.508 123.841  0.00  0.00    +0.292 HD
ENDBRANCH   8   9
ENDBRANCH   2   3
BRANCH   2  11
ATOM     11  O   LIG A   1      -7.606   1.057 123.521  0.00  0.00    -0.456 OA
BRANCH  11  12
ATOM     12  C   LIG A   1      -7.716   2.481 123.572  0.00  0.00    +0.268 C 
BRANCH  12  13
ATOM     13  C   LIG A   1      -7.446   3.076 122.213  0.00  0.00    -0.010 A 
ATOM     14  C   LIG A   1      -8.501   3.436 121.362  0.00  0.00    +0.007 A 
ATOM     15  C   LIG A   1      -8.238   4.025 120.124  0.00  0.00    +0.000 A 
ATOM     16  C   LIG A   1      -6.921   4.251 119.725  0.00  0.00    +0.000 A 
ATOM     17  C   LIG A   1      -5.867   3.880 120.558  0.00  0.00    +0.000 A 
ATOM     18  C   LIG A   1      -6.129   3.298 121.797  0.00  0.00    +0.007 A 
ENDBRANCH  12  13
ENDBRANCH  11  12
ENDBRANCH   2  11
TORSDOF 5
ENDMDL
MODEL 9
REMARK VINA RESULT:      -6.2      9.220     11.572
REMARK  Name = NuBBE_1829
REMARK  5 active torsions:
REMARK  status: ('A' for Active; 'I' for Inactive)
REMARK    1  A    between atoms: C_2  and  O_3
REMARK    2  A    between atoms: C_2  and  C_11
REMARK    3  A    between atoms: O_3  and  C_4
REMARK    4  A    between atoms: C_4  and  C_5
REMARK    5  A    between atoms: C_16  and  O_17
REMARK                            x       y       z     vdW  Elec       q    Type
REMARK                         _______ _______ _______ _____ _____    ______ ____
ROOT
ATOM      1  O   LIG A   1      -9.333   5.824 128.122  0.00  0.00    -0.245 OA
ATOM      2  C   LIG A   1      -9.988   6.341 129.010  0.00  0.00    +0.343 C 
ENDROOT
BRANCH   2   3
ATOM      3  C   LIG A   1     -11.160   7.212 128.746  0.00  0.00    +0.100 A 
ATOM      4  C   LIG A   1     -11.658   7.967 129.819  0.00  0.00    +0.019 A 
ATOM      5  C   LIG A   1     -12.781   8.780 129.650  0.00  0.00    +0.001 A 
ATOM      6  C   LIG A   1     -13.416   8.838 128.410  0.00  0.00    +0.004 A 
ATOM      7  C   LIG A   1     -12.929   8.090 127.337  0.00  0.00    +0.046 A 
ATOM      8  C   LIG A   1     -11.806   7.275 127.505  0.00  0.00    +0.131 A 
BRANCH   8   9
ATOM      9  O   LIG A   1     -11.379   6.517 126.451  0.00  0.00    -0.506 OA
ATOM     10  H   LIG A   1     -11.711   6.894 125.621  0.00  0.00    +0.292 HD
ENDBRANCH   8   9
ENDBRANCH   2   3
BRANCH   2  11
ATOM     11  O   LIG A   1      -9.825   6.168 130.345  0.00  0.00    -0.456 OA
BRANCH  11  12
ATOM     12  C   LIG A   1      -8.475   6.233 130.813  0.00  0.00    +0.268 C 
BRANCH  12  13
ATOM     13  C   LIG A   1      -8.348   5.537 132.144  0.00  0.00    -0.010 A 
ATOM     14  C   LIG A   1      -7.311   5.861 133.030  0.00  0.00    +0.007 A 
ATOM     15  C   LIG A   1      -7.230   5.239 134.277  0.00  0.00    +0.000 A 
ATOM     16  C   LIG A   1      -8.177   4.284 134.644  0.00  0.00    +0.000 A 
ATOM     17  C   LIG A   1      -9.201   3.944 133.761  0.00  0.00    +0.000 A 
ATOM     18  C   LIG A   1      -9.287   4.569 132.518  0.00  0.00    +0.007 A 
ENDBRANCH  12  13
ENDBRANCH  11  12
ENDBRANCH   2  11
TORSDOF 5
ENDMDL
