MODEL 1
REMARK VINA RESULT:      -6.6      0.000      0.000
REMARK  Name = NuBBE_1417
REMARK  6 active torsions:
REMARK  status: ('A' for Active; 'I' for Inactive)
REMARK    1  A    between atoms: C_1  and  C_3
REMARK    2  A    between atoms: C_1  and  C_4
REMARK    3  A    between atoms: C_6  and  C_7
REMARK    4  A    between atoms: C_6  and  C_9
REMARK    5  A    between atoms: C_13  and  C_14
REMARK    6  A    between atoms: C_13  and  C_15
REMARK                            x       y       z     vdW  Elec       q    Type
REMARK                         _______ _______ _______ _____ _____    ______ ____
ROOT
ATOM      1  C   LIG A   1      -6.728  -2.461 125.826  0.00  0.00    +0.028 C 
ATOM      2  C   LIG A   1      -8.294  -2.694 125.925  0.00  0.00    -0.007 C 
ATOM      3  C   LIG A   1      -9.063  -1.351 125.881  0.00  0.00    +0.016 C 
ATOM      4  C   LIG A   1      -8.639  -3.405 127.269  0.00  0.00    +0.015 C 
ATOM      5  C   LIG A   1      -8.071  -2.693 128.492  0.00  0.00    +0.031 C 
ATOM      6  C   LIG A   1      -6.562  -2.693 128.400  0.00  0.00    -0.070 C 
ATOM      7  C   LIG A   1      -5.743  -3.283 129.307  0.00  0.00    -0.076 C 
ATOM      8  C   LIG A   1      -6.212  -4.012 130.549  0.00  0.00    +0.038 C 
ATOM      9  C   LIG A   1      -4.233  -3.303 129.222  0.00  0.00    +0.038 C 
ATOM     10  C   LIG A   1      -6.118  -1.922 127.161  0.00  0.00    +0.039 C 
ENDROOT
BRANCH   1  11
ATOM     11  C   LIG A   1      -6.276  -1.615 124.610  0.00  0.00    -0.075 C 
ATOM     12  C   LIG A   1      -6.313  -0.270 124.562  0.00  0.00    +0.007 C 
ATOM     13  C   LIG A   1      -5.708  -2.361 123.427  0.00  0.00    +0.038 C 
ENDBRANCH   1  11
BRANCH   2  14
ATOM     14  C   LIG A   1      -8.756  -3.660 124.826  0.00  0.00    -0.027 C 
ATOM     15  C   LIG A   1      -9.429  -3.374 123.695  0.00  0.00    +0.004 C 
ENDBRANCH   2  14
TORSDOF 2
ENDMDL
MODEL 2
REMARK VINA RESULT:      -6.2      1.696      3.023
REMARK  Name = NuBBE_1417
REMARK  6 active torsions:
REMARK  status: ('A' for Active; 'I' for Inactive)
REMARK    1  A    between atoms: C_1  and  C_3
REMARK    2  A    between atoms: C_1  and  C_4
REMARK    3  A    between atoms: C_6  and  C_7
REMARK    4  A    between atoms: C_6  and  C_9
REMARK    5  A    between atoms: C_13  and  C_14
REMARK    6  A    between atoms: C_13  and  C_15
REMARK                            x       y       z     vdW  Elec       q    Type
REMARK                         _______ _______ _______ _____ _____    ______ ____
ROOT
ATOM      1  C   LIG A   1      -7.694  -0.884 124.853  0.00  0.00    +0.028 C 
ATOM      2  C   LIG A   1      -7.734  -2.198 123.966  0.00  0.00    -0.007 C 
ATOM      3  C   LIG A   1      -9.075  -2.317 123.201  0.00  0.00    +0.016 C 
ATOM      4  C   LIG A   1      -7.583  -3.455 124.876  0.00  0.00    +0.015 C 
ATOM      5  C   LIG A   1      -8.583  -3.492 126.027  0.00  0.00    +0.031 C 
ATOM      6  C   LIG A   1      -8.338  -2.300 126.924  0.00  0.00    -0.070 C 
ATOM      7  C   LIG A   1      -7.985  -2.389 128.231  0.00  0.00    -0.076 C 
ATOM      8  C   LIG A   1      -7.801  -3.689 128.989  0.00  0.00    +0.038 C 
ATOM      9  C   LIG A   1      -7.724  -1.208 129.138  0.00  0.00    +0.038 C 
ATOM     10  C   LIG A   1      -8.566  -1.009 126.145  0.00  0.00    +0.039 C 
ENDROOT
BRANCH   1  11
ATOM     11  C   LIG A   1      -7.998   0.425 124.083  0.00  0.00    -0.075 C 
ATOM     12  C   LIG A   1      -7.113   1.071 123.301  0.00  0.00    +0.007 C 
ATOM     13  C   LIG A   1      -9.402   0.970 124.182  0.00  0.00    +0.038 C 
ENDBRANCH   1  11
BRANCH   2  14
ATOM     14  C   LIG A   1      -6.524  -2.236 123.022  0.00  0.00    -0.027 C 
ATOM     15  C   LIG A   1      -5.319  -2.797 123.234  0.00  0.00    +0.004 C 
ENDBRANCH   2  14
TORSDOF 2
ENDMDL
MODEL 3
REMARK VINA RESULT:      -5.9      1.961      5.162
REMARK  Name = NuBBE_1417
REMARK  6 active torsions:
REMARK  status: ('A' for Active; 'I' for Inactive)
REMARK    1  A    between atoms: C_1  and  C_3
REMARK    2  A    between atoms: C_1  and  C_4
REMARK    3  A    between atoms: C_6  and  C_7
REMARK    4  A    between atoms: C_6  and  C_9
REMARK    5  A    between atoms: C_13  and  C_14
REMARK    6  A    between atoms: C_13  and  C_15
REMARK                            x       y       z     vdW  Elec       q    Type
REMARK                         _______ _______ _______ _____ _____    ______ ____
ROOT
ATOM      1  C   LIG A   1      -7.715  -1.526 124.608  0.00  0.00    +0.028 C 
ATOM      2  C   LIG A   1      -6.364  -1.931 125.332  0.00  0.00    -0.007 C 
ATOM      3  C   LIG A   1      -6.613  -2.302 126.815  0.00  0.00    +0.016 C 
ATOM      4  C   LIG A   1      -5.364  -0.736 125.294  0.00  0.00    +0.015 C 
ATOM      5  C   LIG A   1      -5.954   0.563 125.833  0.00  0.00    +0.031 C 
ATOM      6  C   LIG A   1      -7.118   0.970 124.959  0.00  0.00    -0.070 C 
ATOM      7  C   LIG A   1      -7.173   2.127 124.252  0.00  0.00    -0.076 C 
ATOM      8  C   LIG A   1      -6.090   3.187 124.245  0.00  0.00    +0.038 C 
ATOM      9  C   LIG A   1      -8.324   2.543 123.364  0.00  0.00    +0.038 C 
ATOM     10  C   LIG A   1      -8.206  -0.098 125.014  0.00  0.00    +0.039 C 
ENDROOT
BRANCH   1  11
ATOM     11  C   LIG A   1      -8.850  -2.574 124.724  0.00  0.00    -0.075 C 
ATOM     12  C   LIG A   1      -9.498  -2.872 125.866  0.00  0.00    +0.007 C 
ATOM     13  C   LIG A   1      -9.285  -3.258 123.451  0.00  0.00    +0.038 C 
ENDBRANCH   1  11
BRANCH   2  14
ATOM     14  C   LIG A   1      -5.671  -3.064 124.563  0.00  0.00    -0.027 C 
ATOM     15  C   LIG A   1      -5.129  -3.024 123.330  0.00  0.00    +0.004 C 
ENDBRANCH   2  14
TORSDOF 2
ENDMDL
MODEL 4
REMARK VINA RESULT:      -5.8      2.030      6.051
REMARK  Name = NuBBE_1417
REMARK  6 active torsions:
REMARK  status: ('A' for Active; 'I' for Inactive)
REMARK    1  A    between atoms: C_1  and  C_3
REMARK    2  A    between atoms: C_1  and  C_4
REMARK    3  A    between atoms: C_6  and  C_7
REMARK    4  A    between atoms: C_6  and  C_9
REMARK    5  A    between atoms: C_13  and  C_14
REMARK    6  A    between atoms: C_13  and  C_15
REMARK                            x       y       z     vdW  Elec       q    Type
REMARK                         _______ _______ _______ _____ _____    ______ ____
ROOT
ATOM      1  C   LIG A   1      -5.841  -3.562 130.382  0.00  0.00    +0.028 C 
ATOM      2  C   LIG A   1      -4.780  -2.453 129.985  0.00  0.00    -0.007 C 
ATOM      3  C   LIG A   1      -4.801  -1.272 130.988  0.00  0.00    +0.016 C 
ATOM      4  C   LIG A   1      -5.107  -1.890 128.569  0.00  0.00    +0.015 C 
ATOM      5  C   LIG A   1      -6.546  -1.404 128.430  0.00  0.00    +0.031 C 
ATOM      6  C   LIG A   1      -7.479  -2.576 128.635  0.00  0.00    -0.070 C 
ATOM      7  C   LIG A   1      -8.345  -3.034 127.697  0.00  0.00    -0.076 C 
ATOM      8  C   LIG A   1      -8.520  -2.434 126.316  0.00  0.00    +0.038 C 
ATOM      9  C   LIG A   1      -9.275  -4.212 127.882  0.00  0.00    +0.038 C 
ATOM     10  C   LIG A   1      -7.307  -3.135 130.043  0.00  0.00    +0.039 C 
ENDROOT
BRANCH   1  11
ATOM     11  C   LIG A   1      -5.719  -4.082 131.836  0.00  0.00    -0.075 C 
ATOM     12  C   LIG A   1      -4.767  -4.932 132.264  0.00  0.00    +0.007 C 
ATOM     13  C   LIG A   1      -6.710  -3.547 132.842  0.00  0.00    +0.038 C 
ENDBRANCH   1  11
BRANCH   2  14
ATOM     14  C   LIG A   1      -3.383  -3.077 129.859  0.00  0.00    -0.027 C 
ATOM     15  C   LIG A   1      -2.954  -3.981 128.958  0.00  0.00    +0.004 C 
ENDBRANCH   2  14
TORSDOF 2
ENDMDL
MODEL 5
REMARK VINA RESULT:      -5.8      8.808     10.800
REMARK  Name = NuBBE_1417
REMARK  6 active torsions:
REMARK  status: ('A' for Active; 'I' for Inactive)
REMARK    1  A    between atoms: C_1  and  C_3
REMARK    2  A    between atoms: C_1  and  C_4
REMARK    3  A    between atoms: C_6  and  C_7
REMARK    4  A    between atoms: C_6  and  C_9
REMARK    5  A    between atoms: C_13  and  C_14
REMARK    6  A    between atoms: C_13  and  C_15
REMARK                            x       y       z     vdW  Elec       q    Type
REMARK                         _______ _______ _______ _____ _____    ______ ____
ROOT
ATOM      1  C   LIG A   1      -4.155   5.878 130.739  0.00  0.00    +0.028 C 
ATOM      2  C   LIG A   1      -3.121   7.049 130.471  0.00  0.00    -0.007 C 
ATOM      3  C   LIG A   1      -3.826   8.296 129.882  0.00  0.00    +0.016 C 
ATOM      4  C   LIG A   1      -2.040   6.579 129.451  0.00  0.00    +0.015 C 
ATOM      5  C   LIG A   1      -2.631   6.010 128.165  0.00  0.00    +0.031 C 
ATOM      6  C   LIG A   1      -3.444   4.781 128.503  0.00  0.00    -0.070 C 
ATOM      7  C   LIG A   1      -3.176   3.536 128.033  0.00  0.00    -0.076 C 
ATOM      8  C   LIG A   1      -2.040   3.195 127.090  0.00  0.00    +0.038 C 
ATOM      9  C   LIG A   1      -3.971   2.296 128.372  0.00  0.00    +0.038 C 
ATOM     10  C   LIG A   1      -4.599   5.161 129.423  0.00  0.00    +0.039 C 
ENDROOT
BRANCH   1  11
ATOM     11  C   LIG A   1      -5.371   6.276 131.611  0.00  0.00    -0.075 C 
ATOM     12  C   LIG A   1      -6.518   6.789 131.129  0.00  0.00    +0.007 C 
ATOM     13  C   LIG A   1      -5.268   6.014 133.094  0.00  0.00    +0.038 C 
ENDBRANCH   1  11
BRANCH   2  14
ATOM     14  C   LIG A   1      -2.347   7.377 131.756  0.00  0.00    -0.027 C 
ATOM     15  C   LIG A   1      -1.145   6.912 132.146  0.00  0.00    +0.004 C 
ENDBRANCH   2  14
TORSDOF 2
ENDMDL
MODEL 6
REMARK VINA RESULT:      -5.7     11.327     12.831
REMARK  Name = NuBBE_1417
REMARK  6 active torsions:
REMARK  status: ('A' for Active; 'I' for Inactive)
REMARK    1  A    between atoms: C_1  and  C_3
REMARK    2  A    between atoms: C_1  and  C_4
REMARK    3  A    between atoms: C_6  and  C_7
REMARK    4  A    between atoms: C_6  and  C_9
REMARK    5  A    between atoms: C_13  and  C_14
REMARK    6  A    between atoms: C_13  and  C_15
REMARK                            x       y       z     vdW  Elec       q    Type
REMARK                         _______ _______ _______ _____ _____    ______ ____
ROOT
ATOM      1  C   LIG A   1      -3.272   7.096 131.962  0.00  0.00    +0.028 C 
ATOM      2  C   LIG A   1      -2.232   5.999 131.483  0.00  0.00    -0.007 C 
ATOM      3  C   LIG A   1      -2.296   4.737 132.378  0.00  0.00    +0.016 C 
ATOM      4  C   LIG A   1      -0.785   6.573 131.559  0.00  0.00    +0.015 C 
ATOM      5  C   LIG A   1      -0.438   7.156 132.925  0.00  0.00    +0.031 C 
ATOM      6  C   LIG A   1      -1.360   8.320 133.208  0.00  0.00    -0.070 C 
ATOM      7  C   LIG A   1      -0.940   9.596 133.401  0.00  0.00    -0.076 C 
ATOM      8  C   LIG A   1       0.508  10.041 133.382  0.00  0.00    +0.038 C 
ATOM      9  C   LIG A   1      -1.850  10.773 133.672  0.00  0.00    +0.038 C 
ATOM     10  C   LIG A   1      -2.805   7.837 133.257  0.00  0.00    +0.039 C 
ENDROOT
BRANCH   1  11
ATOM     11  C   LIG A   1      -4.732   6.592 132.087  0.00  0.00    -0.075 C 
ATOM     12  C   LIG A   1      -5.233   5.971 133.171  0.00  0.00    +0.007 C 
ATOM     13  C   LIG A   1      -5.656   6.872 130.927  0.00  0.00    +0.038 C 
ENDBRANCH   1  11
BRANCH   2  14
ATOM     14  C   LIG A   1      -2.458   5.668 130.001  0.00  0.00    -0.027 C 
ATOM     15  C   LIG A   1      -2.175   6.427 128.925  0.00  0.00    +0.004 C 
ENDBRANCH   2  14
TORSDOF 2
ENDMDL
MODEL 7
REMARK VINA RESULT:      -5.4     15.216     16.831
REMARK  Name = NuBBE_1417
REMARK  6 active torsions:
REMARK  status: ('A' for Active; 'I' for Inactive)
REMARK    1  A    between atoms: C_1  and  C_3
REMARK    2  A    between atoms: C_1  and  C_4
REMARK    3  A    between atoms: C_6  and  C_7
REMARK    4  A    between atoms: C_6  and  C_9
REMARK    5  A    between atoms: C_13  and  C_14
REMARK    6  A    between atoms: C_13  and  C_15
REMARK                            x       y       z     vdW  Elec       q    Type
REMARK                         _______ _______ _______ _____ _____    ______ ____
ROOT
ATOM      1  C   LIG A   1       0.645  11.085 133.458  0.00  0.00    +0.028 C 
ATOM      2  C   LIG A   1      -0.398  12.205 133.043  0.00  0.00    -0.007 C 
ATOM      3  C   LIG A   1      -0.930  12.962 134.284  0.00  0.00    +0.016 C 
ATOM      4  C   LIG A   1      -1.613  11.552 132.316  0.00  0.00    +0.015 C 
ATOM      5  C   LIG A   1      -2.253  10.418 133.110  0.00  0.00    +0.031 C 
ATOM      6  C   LIG A   1      -1.236   9.313 133.288  0.00  0.00    -0.070 C 
ATOM      7  C   LIG A   1      -1.390   8.051 132.813  0.00  0.00    -0.076 C 
ATOM      8  C   LIG A   1      -2.604   7.556 132.053  0.00  0.00    +0.038 C 
ATOM      9  C   LIG A   1      -0.377   6.939 132.972  0.00  0.00    +0.038 C 
ATOM     10  C   LIG A   1      -0.044   9.830 134.086  0.00  0.00    +0.039 C 
ENDROOT
BRANCH   1  11
ATOM     11  C   LIG A   1       1.820  11.589 134.332  0.00  0.00    -0.075 C 
ATOM     12  C   LIG A   1       2.808  12.391 133.892  0.00  0.00    +0.007 C 
ATOM     13  C   LIG A   1       1.814  11.189 135.788  0.00  0.00    +0.038 C 
ENDBRANCH   1  11
BRANCH   2  14
ATOM     14  C   LIG A   1       0.227  13.154 132.011  0.00  0.00    -0.027 C 
ATOM     15  C   LIG A   1       0.683  12.861 130.778  0.00  0.00    +0.004 C 
ENDBRANCH   2  14
TORSDOF 2
ENDMDL
MODEL 8
REMARK VINA RESULT:      -5.4      3.629      6.300
REMARK  Name = NuBBE_1417
REMARK  6 active torsions:
REMARK  status: ('A' for Active; 'I' for Inactive)
REMARK    1  A    between atoms: C_1  and  C_3
REMARK    2  A    between atoms: C_1  and  C_4
REMARK    3  A    between atoms: C_6  and  C_7
REMARK    4  A    between atoms: C_6  and  C_9
REMARK    5  A    between atoms: C_13  and  C_14
REMARK    6  A    between atoms: C_13  and  C_15
REMARK                            x       y       z     vdW  Elec       q    Type
REMARK                         _______ _______ _______ _____ _____    ______ ____
ROOT
ATOM      1  C   LIG A   1      -5.751   2.334 125.093  0.00  0.00    +0.028 C 
ATOM      2  C   LIG A   1      -6.654   3.169 124.092  0.00  0.00    -0.007 C 
ATOM      3  C   LIG A   1      -7.889   3.762 124.813  0.00  0.00    +0.016 C 
ATOM      4  C   LIG A   1      -7.163   2.246 122.943  0.00  0.00    +0.015 C 
ATOM      5  C   LIG A   1      -7.854   0.982 123.445  0.00  0.00    +0.031 C 
ATOM      6  C   LIG A   1      -6.857   0.158 124.227  0.00  0.00    -0.070 C 
ATOM      7  C   LIG A   1      -6.474  -1.099 123.887  0.00  0.00    -0.076 C 
ATOM      8  C   LIG A   1      -6.999  -1.869 122.692  0.00  0.00    +0.038 C 
ATOM      9  C   LIG A   1      -5.469  -1.932 124.651  0.00  0.00    +0.038 C 
ATOM     10  C   LIG A   1      -6.374   0.943 125.441  0.00  0.00    +0.039 C 
ENDROOT
BRANCH   1  11
ATOM     11  C   LIG A   1      -5.319   3.102 126.366  0.00  0.00    -0.075 C 
ATOM     12  C   LIG A   1      -5.980   3.066 127.538  0.00  0.00    +0.007 C 
ATOM     13  C   LIG A   1      -4.037   3.895 126.288  0.00  0.00    +0.038 C 
ENDBRANCH   1  11
BRANCH   2  14
ATOM     14  C   LIG A   1      -5.815   4.251 123.398  0.00  0.00    -0.027 C 
ATOM     15  C   LIG A   1      -5.304   4.238 122.152  0.00  0.00    +0.004 C 
ENDBRANCH   2  14
TORSDOF 2
ENDMDL
MODEL 9
REMARK VINA RESULT:      -5.3      1.668      5.399
REMARK  Name = NuBBE_1417
REMARK  6 active torsions:
REMARK  status: ('A' for Active; 'I' for Inactive)
REMARK    1  A    between atoms: C_1  and  C_3
REMARK    2  A    between atoms: C_1  and  C_4
REMARK    3  A    between atoms: C_6  and  C_7
REMARK    4  A    between atoms: C_6  and  C_9
REMARK    5  A    between atoms: C_13  and  C_14
REMARK    6  A    between atoms: C_13  and  C_15
REMARK                            x       y       z     vdW  Elec       q    Type
REMARK                         _______ _______ _______ _____ _____    ______ ____
ROOT
ATOM      1  C   LIG A   1      -5.392  -2.263 129.518  0.00  0.00    +0.028 C 
ATOM      2  C   LIG A   1      -6.452  -3.102 130.346  0.00  0.00    -0.007 C 
ATOM      3  C   LIG A   1      -6.084  -4.606 130.367  0.00  0.00    +0.016 C 
ATOM      4  C   LIG A   1      -7.863  -2.960 129.698  0.00  0.00    +0.015 C 
ATOM      5  C   LIG A   1      -7.880  -3.294 128.210  0.00  0.00    +0.031 C 
ATOM      6  C   LIG A   1      -6.988  -2.316 127.480  0.00  0.00    -0.070 C 
ATOM      7  C   LIG A   1      -7.421  -1.462 126.517  0.00  0.00    -0.076 C 
ATOM      8  C   LIG A   1      -8.849  -1.373 126.020  0.00  0.00    +0.038 C 
ATOM      9  C   LIG A   1      -6.545  -0.469 125.787  0.00  0.00    +0.038 C 
ATOM     10  C   LIG A   1      -5.553  -2.453 127.975  0.00  0.00    +0.039 C 
ENDROOT
BRANCH   1  11
ATOM     11  C   LIG A   1      -3.923  -2.455 129.967  0.00  0.00    -0.075 C 
ATOM     12  C   LIG A   1      -3.345  -1.792 130.987  0.00  0.00    +0.007 C 
ATOM     13  C   LIG A   1      -3.113  -3.500 129.239  0.00  0.00    +0.038 C 
ENDBRANCH   1  11
BRANCH   2  14
ATOM     14  C   LIG A   1      -6.598  -2.524 131.761  0.00  0.00    -0.027 C 
ATOM     15  C   LIG A   1      -6.699  -3.190 132.927  0.00  0.00    +0.004 C 
ENDBRANCH   2  14
TORSDOF 2
ENDMDL
