MODEL 1
REMARK VINA RESULT:      -7.6      0.000      0.000
REMARK  Name = NuBBE_2227
REMARK  2 active torsions:
REMARK  status: ('A' for Active; 'I' for Inactive)
REMARK    1  A    between atoms: O_1  and  C_2
REMARK    2  A    between atoms: O_1  and  C_3
REMARK                            x       y       z     vdW  Elec       q    Type
REMARK                         _______ _______ _______ _____ _____    ______ ____
ROOT
ATOM      1  C   LIG A   1      -9.035  -2.223 125.802  0.00  0.00    +0.129 A 
ATOM      2  C   LIG A   1      -8.225  -1.168 126.293  0.00  0.00    +0.039 A 
ATOM      3  C   LIG A   1      -7.958   0.123 125.593  0.00  0.00    +0.042 A 
ATOM      4  C   LIG A   1      -6.821   0.890 125.975  0.00  0.00    +0.023 A 
ATOM      5  C   LIG A   1      -6.053   0.581 127.100  0.00  0.00    +0.119 A 
ATOM      6  C   LIG A   1      -6.510  -0.503 128.005  0.00  0.00    +0.212 C 
ATOM      7  O   LIG A   1      -6.011  -0.673 129.113  0.00  0.00    -0.285 OA
ATOM      8  C   LIG A   1      -7.581  -1.412 127.528  0.00  0.00    +0.035 A 
ATOM      9  C   LIG A   1      -7.845  -2.555 128.302  0.00  0.00    +0.012 A 
ATOM     10  C   LIG A   1      -8.712  -3.527 127.832  0.00  0.00    +0.004 A 
ATOM     11  C   LIG A   1      -9.278  -3.376 126.572  0.00  0.00    +0.046 A 
ATOM     12  N   LIG A   1      -4.944   1.261 127.498  0.00  0.00    -0.251 NA
ATOM     13  C   LIG A   1      -4.575   2.320 126.757  0.00  0.00    +0.112 A 
ATOM     14  C   LIG A   1      -5.277   2.756 125.649  0.00  0.00    +0.028 A 
ATOM     15  C   LIG A   1      -6.424   2.057 125.260  0.00  0.00    -0.010 A 
ATOM     16  C   LIG A   1      -7.203   2.518 124.197  0.00  0.00    +0.058 A 
ATOM     17  C   LIG A   1      -8.368   1.843 123.920  0.00  0.00    +0.167 A 
ATOM     18  C   LIG A   1      -8.747   0.701 124.599  0.00  0.00    +0.175 A 
ATOM     19  O   LIG A   1      -9.995   0.310 124.206  0.00  0.00    -0.452 OA
ATOM     20  C   LIG A   1     -10.284   1.231 123.142  0.00  0.00    +0.466 C 
ATOM     21  O   LIG A   1      -9.275   2.240 122.985  0.00  0.00    -0.453 OA
ENDROOT
BRANCH   1  22
ATOM     22  O   LIG A   1      -9.448  -2.181 124.492  0.00  0.00    -0.494 OA
ATOM     23  C   LIG A   1      -9.037  -3.283 123.685  0.00  0.00    +0.277 C 
ENDBRANCH   1  22
TORSDOF 1
ENDMDL
MODEL 2
REMARK VINA RESULT:      -7.5      1.499      4.635
REMARK  Name = NuBBE_2227
REMARK  2 active torsions:
REMARK  status: ('A' for Active; 'I' for Inactive)
REMARK    1  A    between atoms: O_1  and  C_2
REMARK    2  A    between atoms: O_1  and  C_3
REMARK                            x       y       z     vdW  Elec       q    Type
REMARK                         _______ _______ _______ _____ _____    ______ ____
ROOT
ATOM      1  C   LIG A   1      -6.899   1.346 125.026  0.00  0.00    +0.129 A 
ATOM      2  C   LIG A   1      -6.788   0.265 125.937  0.00  0.00    +0.039 A 
ATOM      3  C   LIG A   1      -7.616  -0.977 125.918  0.00  0.00    +0.042 A 
ATOM      4  C   LIG A   1      -7.704  -1.763 127.102  0.00  0.00    +0.023 A 
ATOM      5  C   LIG A   1      -6.903  -1.524 128.220  0.00  0.00    +0.119 A 
ATOM      6  C   LIG A   1      -5.830  -0.503 128.129  0.00  0.00    +0.212 C 
ATOM      7  O   LIG A   1      -4.958  -0.402 128.988  0.00  0.00    -0.285 OA
ATOM      8  C   LIG A   1      -5.844   0.431 126.977  0.00  0.00    +0.035 A 
ATOM      9  C   LIG A   1      -4.959   1.522 127.022  0.00  0.00    +0.012 A 
ATOM     10  C   LIG A   1      -5.035   2.518 126.063  0.00  0.00    +0.004 A 
ATOM     11  C   LIG A   1      -6.023   2.447 125.090  0.00  0.00    +0.046 A 
ATOM     12  N   LIG A   1      -6.961  -2.224 129.385  0.00  0.00    -0.251 NA
ATOM     13  C   LIG A   1      -7.848  -3.232 129.452  0.00  0.00    +0.112 A 
ATOM     14  C   LIG A   1      -8.664  -3.599 128.398  0.00  0.00    +0.028 A 
ATOM     15  C   LIG A   1      -8.583  -2.880 127.201  0.00  0.00    -0.010 A 
ATOM     16  C   LIG A   1      -9.332  -3.275 126.091  0.00  0.00    +0.058 A 
ATOM     17  C   LIG A   1      -9.142  -2.588 124.916  0.00  0.00    +0.167 A 
ATOM     18  C   LIG A   1      -8.304  -1.493 124.820  0.00  0.00    +0.175 A 
ATOM     19  O   LIG A   1      -8.210  -1.082 123.521  0.00  0.00    -0.452 OA
ATOM     20  C   LIG A   1      -9.160  -1.934 122.861  0.00  0.00    +0.466 C 
ATOM     21  O   LIG A   1      -9.722  -2.928 123.732  0.00  0.00    -0.453 OA
ENDROOT
BRANCH   1  22
ATOM     22  O   LIG A   1      -7.981   1.387 124.181  0.00  0.00    -0.494 OA
ATOM     23  C   LIG A   1      -9.006   2.310 124.543  0.00  0.00    +0.277 C 
ENDBRANCH   1  22
TORSDOF 1
ENDMDL
MODEL 3
REMARK VINA RESULT:      -7.3      2.057      4.324
REMARK  Name = NuBBE_2227
REMARK  2 active torsions:
REMARK  status: ('A' for Active; 'I' for Inactive)
REMARK    1  A    between atoms: O_1  and  C_2
REMARK    2  A    between atoms: O_1  and  C_3
REMARK                            x       y       z     vdW  Elec       q    Type
REMARK                         _______ _______ _______ _____ _____    ______ ____
ROOT
ATOM      1  C   LIG A   1      -7.545  -1.501 128.584  0.00  0.00    +0.129 A 
ATOM      2  C   LIG A   1      -7.816  -1.219 127.222  0.00  0.00    +0.039 A 
ATOM      3  C   LIG A   1      -7.434   0.030 126.499  0.00  0.00    +0.042 A 
ATOM      4  C   LIG A   1      -8.120   0.366 125.297  0.00  0.00    +0.023 A 
ATOM      5  C   LIG A   1      -9.002  -0.514 124.668  0.00  0.00    +0.119 A 
ATOM      6  C   LIG A   1      -9.131  -1.897 125.191  0.00  0.00    +0.212 C 
ATOM      7  O   LIG A   1      -9.711  -2.776 124.560  0.00  0.00    -0.285 OA
ATOM      8  C   LIG A   1      -8.564  -2.198 126.528  0.00  0.00    +0.035 A 
ATOM      9  C   LIG A   1      -8.886  -3.442 127.097  0.00  0.00    +0.012 A 
ATOM     10  C   LIG A   1      -8.528  -3.720 128.405  0.00  0.00    +0.004 A 
ATOM     11  C   LIG A   1      -7.890  -2.741 129.156  0.00  0.00    +0.046 A 
ATOM     12  N   LIG A   1      -9.703  -0.238 123.535  0.00  0.00    -0.251 NA
ATOM     13  C   LIG A   1      -9.515   0.969 122.975  0.00  0.00    +0.112 A 
ATOM     14  C   LIG A   1      -8.634   1.911 123.474  0.00  0.00    +0.028 A 
ATOM     15  C   LIG A   1      -7.908   1.608 124.631  0.00  0.00    -0.010 A 
ATOM     16  C   LIG A   1      -6.951   2.502 125.115  0.00  0.00    +0.058 A 
ATOM     17  C   LIG A   1      -6.204   2.110 126.201  0.00  0.00    +0.167 A 
ATOM     18  C   LIG A   1      -6.418   0.914 126.860  0.00  0.00    +0.175 A 
ATOM     19  O   LIG A   1      -5.463   0.726 127.818  0.00  0.00    -0.452 OA
ATOM     20  C   LIG A   1      -4.734   1.963 127.772  0.00  0.00    +0.466 C 
ATOM     21  O   LIG A   1      -5.168   2.830 126.712  0.00  0.00    -0.453 OA
ENDROOT
BRANCH   1  22
ATOM     22  O   LIG A   1      -7.090  -0.485 129.390  0.00  0.00    -0.494 OA
ATOM     23  C   LIG A   1      -8.030   0.008 130.343  0.00  0.00    +0.277 C 
ENDBRANCH   1  22
TORSDOF 1
ENDMDL
MODEL 4
REMARK VINA RESULT:      -7.2      2.024      6.012
REMARK  Name = NuBBE_2227
REMARK  2 active torsions:
REMARK  status: ('A' for Active; 'I' for Inactive)
REMARK    1  A    between atoms: O_1  and  C_2
REMARK    2  A    between atoms: O_1  and  C_3
REMARK                            x       y       z     vdW  Elec       q    Type
REMARK                         _______ _______ _______ _____ _____    ______ ____
ROOT
ATOM      1  C   LIG A   1      -7.250   2.047 126.586  0.00  0.00    +0.129 A 
ATOM      2  C   LIG A   1      -8.025   1.077 125.903  0.00  0.00    +0.039 A 
ATOM      3  C   LIG A   1      -8.148  -0.362 126.280  0.00  0.00    +0.042 A 
ATOM      4  C   LIG A   1      -8.590  -1.296 125.300  0.00  0.00    +0.023 A 
ATOM      5  C   LIG A   1      -9.090  -0.896 124.060  0.00  0.00    +0.119 A 
ATOM      6  C   LIG A   1      -9.295   0.550 123.799  0.00  0.00    +0.212 C 
ATOM      7  O   LIG A   1      -9.931   0.949 122.828  0.00  0.00    -0.285 OA
ATOM      8  C   LIG A   1      -8.681   1.526 124.733  0.00  0.00    +0.035 A 
ATOM      9  C   LIG A   1      -8.698   2.878 124.352  0.00  0.00    +0.012 A 
ATOM     10  C   LIG A   1      -8.001   3.817 125.094  0.00  0.00    +0.004 A 
ATOM     11  C   LIG A   1      -7.253   3.397 126.186  0.00  0.00    +0.046 A 
ATOM     12  N   LIG A   1      -9.503  -1.742 123.076  0.00  0.00    -0.251 NA
ATOM     13  C   LIG A   1      -9.435  -3.060 123.332  0.00  0.00    +0.112 A 
ATOM     14  C   LIG A   1      -9.003  -3.580 124.538  0.00  0.00    +0.028 A 
ATOM     15  C   LIG A   1      -8.597  -2.699 125.546  0.00  0.00    -0.010 A 
ATOM     16  C   LIG A   1      -8.234  -3.186 126.802  0.00  0.00    +0.058 A 
ATOM     17  C   LIG A   1      -7.934  -2.268 127.780  0.00  0.00    +0.167 A 
ATOM     18  C   LIG A   1      -7.909  -0.907 127.542  0.00  0.00    +0.175 A 
ATOM     19  O   LIG A   1      -7.702  -0.227 128.708  0.00  0.00    -0.452 OA
ATOM     20  C   LIG A   1      -7.475  -1.290 129.647  0.00  0.00    +0.466 C 
ATOM     21  O   LIG A   1      -7.668  -2.593 129.075  0.00  0.00    -0.453 OA
ENDROOT
BRANCH   1  22
ATOM     22  O   LIG A   1      -6.360   1.625 127.544  0.00  0.00    -0.494 OA
ATOM     23  C   LIG A   1      -4.983   1.843 127.241  0.00  0.00    +0.277 C 
ENDBRANCH   1  22
TORSDOF 1
ENDMDL
MODEL 5
REMARK VINA RESULT:      -7.0      2.423      4.403
REMARK  Name = NuBBE_2227
REMARK  2 active torsions:
REMARK  status: ('A' for Active; 'I' for Inactive)
REMARK    1  A    between atoms: O_1  and  C_2
REMARK    2  A    between atoms: O_1  and  C_3
REMARK                            x       y       z     vdW  Elec       q    Type
REMARK                         _______ _______ _______ _____ _____    ______ ____
ROOT
ATOM      1  C   LIG A   1      -7.659   0.232 128.795  0.00  0.00    +0.129 A 
ATOM      2  C   LIG A   1      -7.777  -0.679 127.715  0.00  0.00    +0.039 A 
ATOM      3  C   LIG A   1      -7.691  -0.328 126.266  0.00  0.00    +0.042 A 
ATOM      4  C   LIG A   1      -8.241  -1.225 125.307  0.00  0.00    +0.023 A 
ATOM      5  C   LIG A   1      -8.689  -2.502 125.648  0.00  0.00    +0.119 A 
ATOM      6  C   LIG A   1      -8.466  -2.996 127.029  0.00  0.00    +0.212 C 
ATOM      7  O   LIG A   1      -8.632  -4.175 127.329  0.00  0.00    -0.285 OA
ATOM      8  C   LIG A   1      -8.059  -2.019 128.068  0.00  0.00    +0.035 A 
ATOM      9  C   LIG A   1      -8.067  -2.459 129.403  0.00  0.00    +0.012 A 
ATOM     10  C   LIG A   1      -7.859  -1.557 130.433  0.00  0.00    +0.004 A 
ATOM     11  C   LIG A   1      -7.689  -0.212 130.131  0.00  0.00    +0.046 A 
ATOM     12  N   LIG A   1      -9.246  -3.390 124.781  0.00  0.00    -0.251 NA
ATOM     13  C   LIG A   1      -9.355  -3.008 123.497  0.00  0.00    +0.112 A 
ATOM     14  C   LIG A   1      -8.905  -1.789 123.024  0.00  0.00    +0.028 A 
ATOM     15  C   LIG A   1      -8.321  -0.892 123.924  0.00  0.00    -0.010 A 
ATOM     16  C   LIG A   1      -7.782   0.312 123.467  0.00  0.00    +0.058 A 
ATOM     17  C   LIG A   1      -7.138   1.111 124.382  0.00  0.00    +0.167 A 
ATOM     18  C   LIG A   1      -7.074   0.800 125.727  0.00  0.00    +0.175 A 
ATOM     19  O   LIG A   1      -6.277   1.697 126.381  0.00  0.00    -0.452 OA
ATOM     20  C   LIG A   1      -5.973   2.647 125.348  0.00  0.00    +0.466 C 
ATOM     21  O   LIG A   1      -6.477   2.257 124.061  0.00  0.00    -0.453 OA
ENDROOT
BRANCH   1  22
ATOM     22  O   LIG A   1      -7.681   1.579 128.526  0.00  0.00    -0.494 OA
ATOM     23  C   LIG A   1      -8.582   2.348 129.322  0.00  0.00    +0.277 C 
ENDBRANCH   1  22
TORSDOF 1
ENDMDL
MODEL 6
REMARK VINA RESULT:      -6.5      8.301      9.644
REMARK  Name = NuBBE_2227
REMARK  2 active torsions:
REMARK  status: ('A' for Active; 'I' for Inactive)
REMARK    1  A    between atoms: O_1  and  C_2
REMARK    2  A    between atoms: O_1  and  C_3
REMARK                            x       y       z     vdW  Elec       q    Type
REMARK                         _______ _______ _______ _____ _____    ______ ____
ROOT
ATOM      1  C   LIG A   1      -7.507   4.996 132.613  0.00  0.00    +0.129 A 
ATOM      2  C   LIG A   1      -6.236   5.306 132.067  0.00  0.00    +0.039 A 
ATOM      3  C   LIG A   1      -4.963   4.582 132.358  0.00  0.00    +0.042 A 
ATOM      4  C   LIG A   1      -3.725   5.236 132.097  0.00  0.00    +0.023 A 
ATOM      5  C   LIG A   1      -3.650   6.448 131.410  0.00  0.00    +0.119 A 
ATOM      6  C   LIG A   1      -4.885   7.013 130.811  0.00  0.00    +0.212 C 
ATOM      7  O   LIG A   1      -4.850   7.946 130.015  0.00  0.00    -0.285 OA
ATOM      8  C   LIG A   1      -6.190   6.439 131.222  0.00  0.00    +0.035 A 
ATOM      9  C   LIG A   1      -7.349   7.124 130.819  0.00  0.00    +0.012 A 
ATOM     10  C   LIG A   1      -8.588   6.739 131.303  0.00  0.00    +0.004 A 
ATOM     11  C   LIG A   1      -8.661   5.701 132.222  0.00  0.00    +0.046 A 
ATOM     12  N   LIG A   1      -2.500   7.130 131.155  0.00  0.00    -0.251 NA
ATOM     13  C   LIG A   1      -1.352   6.581 131.588  0.00  0.00    +0.112 A 
ATOM     14  C   LIG A   1      -1.289   5.362 132.238  0.00  0.00    +0.028 A 
ATOM     15  C   LIG A   1      -2.477   4.665 132.479  0.00  0.00    -0.010 A 
ATOM     16  C   LIG A   1      -2.442   3.396 133.060  0.00  0.00    +0.058 A 
ATOM     17  C   LIG A   1      -3.633   2.720 133.187  0.00  0.00    +0.167 A 
ATOM     18  C   LIG A   1      -4.847   3.277 132.834  0.00  0.00    +0.175 A 
ATOM     19  O   LIG A   1      -5.843   2.350 132.950  0.00  0.00    -0.452 OA
ATOM     20  C   LIG A   1      -5.154   1.229 133.526  0.00  0.00    +0.466 C 
ATOM     21  O   LIG A   1      -3.737   1.439 133.635  0.00  0.00    -0.453 OA
ENDROOT
BRANCH   1  22
ATOM     22  O   LIG A   1      -7.575   4.106 133.658  0.00  0.00    -0.494 OA
ATOM     23  C   LIG A   1      -8.891   3.705 134.036  0.00  0.00    +0.277 C 
ENDBRANCH   1  22
TORSDOF 1
ENDMDL
MODEL 7
REMARK VINA RESULT:      -6.5      2.586      5.053
REMARK  Name = NuBBE_2227
REMARK  2 active torsions:
REMARK  status: ('A' for Active; 'I' for Inactive)
REMARK    1  A    between atoms: O_1  and  C_2
REMARK    2  A    between atoms: O_1  and  C_3
REMARK                            x       y       z     vdW  Elec       q    Type
REMARK                         _______ _______ _______ _____ _____    ______ ____
ROOT
ATOM      1  C   LIG A   1      -8.052   0.743 125.304  0.00  0.00    +0.129 A 
ATOM      2  C   LIG A   1      -8.211  -0.228 126.324  0.00  0.00    +0.039 A 
ATOM      3  C   LIG A   1      -8.055   0.015 127.789  0.00  0.00    +0.042 A 
ATOM      4  C   LIG A   1      -7.819  -1.095 128.649  0.00  0.00    +0.023 A 
ATOM      5  C   LIG A   1      -7.913  -2.416 128.208  0.00  0.00    +0.119 A 
ATOM      6  C   LIG A   1      -8.404  -2.681 126.833  0.00  0.00    +0.212 C 
ATOM      7  O   LIG A   1      -8.719  -3.809 126.464  0.00  0.00    -0.285 OA
ATOM      8  C   LIG A   1      -8.483  -1.544 125.884  0.00  0.00    +0.035 A 
ATOM      9  C   LIG A   1      -8.738  -1.848 124.535  0.00  0.00    +0.012 A 
ATOM     10  C   LIG A   1      -8.662  -0.856 123.573  0.00  0.00    +0.004 A 
ATOM     11  C   LIG A   1      -8.287   0.427 123.952  0.00  0.00    +0.046 A 
ATOM     12  N   LIG A   1      -7.674  -3.513 128.976  0.00  0.00    -0.251 NA
ATOM     13  C   LIG A   1      -7.337  -3.302 130.260  0.00  0.00    +0.112 A 
ATOM     14  C   LIG A   1      -7.258  -2.045 130.829  0.00  0.00    +0.028 A 
ATOM     15  C   LIG A   1      -7.521  -0.926 130.032  0.00  0.00    -0.010 A 
ATOM     16  C   LIG A   1      -7.529   0.352 130.593  0.00  0.00    +0.058 A 
ATOM     17  C   LIG A   1      -7.886   1.403 129.782  0.00  0.00    +0.167 A 
ATOM     18  C   LIG A   1      -8.159   1.245 128.436  0.00  0.00    +0.175 A 
ATOM     19  O   LIG A   1      -8.601   2.423 127.904  0.00  0.00    -0.452 OA
ATOM     20  C   LIG A   1      -8.449   3.334 129.004  0.00  0.00    +0.466 C 
ATOM     21  O   LIG A   1      -8.041   2.683 130.218  0.00  0.00    -0.453 OA
ENDROOT
BRANCH   1  22
ATOM     22  O   LIG A   1      -7.503   1.959 125.631  0.00  0.00    -0.494 OA
ATOM     23  C   LIG A   1      -6.126   2.120 125.293  0.00  0.00    +0.277 C 
ENDBRANCH   1  22
TORSDOF 1
ENDMDL
MODEL 8
REMARK VINA RESULT:      -6.4      4.026      7.265
REMARK  Name = NuBBE_2227
REMARK  2 active torsions:
REMARK  status: ('A' for Active; 'I' for Inactive)
REMARK    1  A    between atoms: O_1  and  C_2
REMARK    2  A    between atoms: O_1  and  C_3
REMARK                            x       y       z     vdW  Elec       q    Type
REMARK                         _______ _______ _______ _____ _____    ______ ____
ROOT
ATOM      1  C   LIG A   1      -8.332   1.742 132.366  0.00  0.00    +0.129 A 
ATOM      2  C   LIG A   1      -8.307   1.110 131.098  0.00  0.00    +0.039 A 
ATOM      3  C   LIG A   1      -7.834  -0.280 130.827  0.00  0.00    +0.042 A 
ATOM      4  C   LIG A   1      -7.463  -0.634 129.498  0.00  0.00    +0.023 A 
ATOM      5  C   LIG A   1      -7.698   0.205 128.408  0.00  0.00    +0.119 A 
ATOM      6  C   LIG A   1      -8.480   1.449 128.614  0.00  0.00    +0.212 C 
ATOM      7  O   LIG A   1      -8.908   2.108 127.670  0.00  0.00    -0.285 OA
ATOM      8  C   LIG A   1      -8.716   1.908 130.004  0.00  0.00    +0.035 A 
ATOM      9  C   LIG A   1      -9.262   3.192 130.173  0.00  0.00    +0.012 A 
ATOM     10  C   LIG A   1      -9.355   3.747 131.438  0.00  0.00    +0.004 A 
ATOM     11  C   LIG A   1      -8.861   3.038 132.525  0.00  0.00    +0.046 A 
ATOM     12  N   LIG A   1      -7.342  -0.069 127.123  0.00  0.00    -0.251 NA
ATOM     13  C   LIG A   1      -6.733  -1.245 126.892  0.00  0.00    +0.112 A 
ATOM     14  C   LIG A   1      -6.487  -2.181 127.878  0.00  0.00    +0.028 A 
ATOM     15  C   LIG A   1      -6.872  -1.894 129.192  0.00  0.00    -0.010 A 
ATOM     16  C   LIG A   1      -6.713  -2.849 130.197  0.00  0.00    +0.058 A 
ATOM     17  C   LIG A   1      -7.194  -2.545 131.448  0.00  0.00    +0.167 A 
ATOM     18  C   LIG A   1      -7.752  -1.318 131.754  0.00  0.00    +0.175 A 
ATOM     19  O   LIG A   1      -8.253  -1.331 133.025  0.00  0.00    -0.452 OA
ATOM     20  C   LIG A   1      -7.836  -2.618 133.506  0.00  0.00    +0.466 C 
ATOM     21  O   LIG A   1      -7.204  -3.417 132.494  0.00  0.00    -0.453 OA
ENDROOT
BRANCH   1  22
ATOM     22  O   LIG A   1      -7.680   1.140 133.415  0.00  0.00    -0.494 OA
ATOM     23  C   LIG A   1      -6.466   1.768 133.823  0.00  0.00    +0.277 C 
ENDBRANCH   1  22
TORSDOF 1
ENDMDL
MODEL 9
REMARK VINA RESULT:      -6.4      2.896      4.313
REMARK  Name = NuBBE_2227
REMARK  2 active torsions:
REMARK  status: ('A' for Active; 'I' for Inactive)
REMARK    1  A    between atoms: O_1  and  C_2
REMARK    2  A    between atoms: O_1  and  C_3
REMARK                            x       y       z     vdW  Elec       q    Type
REMARK                         _______ _______ _______ _____ _____    ______ ____
ROOT
ATOM      1  C   LIG A   1      -8.664   1.787 129.464  0.00  0.00    +0.129 A 
ATOM      2  C   LIG A   1      -8.175   0.932 128.445  0.00  0.00    +0.039 A 
ATOM      3  C   LIG A   1      -8.151   1.243 126.985  0.00  0.00    +0.042 A 
ATOM      4  C   LIG A   1      -8.044   0.171 126.054  0.00  0.00    +0.023 A 
ATOM      5  C   LIG A   1      -7.773  -1.140 126.452  0.00  0.00    +0.119 A 
ATOM      6  C   LIG A   1      -7.454  -1.407 127.876  0.00  0.00    +0.212 C 
ATOM      7  O   LIG A   1      -6.994  -2.483 128.246  0.00  0.00    -0.285 OA
ATOM      8  C   LIG A   1      -7.732  -0.341 128.870  0.00  0.00    +0.035 A 
ATOM      9  C   LIG A   1      -7.632  -0.688 130.229  0.00  0.00    +0.012 A 
ATOM     10  C   LIG A   1      -8.035   0.207 131.205  0.00  0.00    +0.004 A 
ATOM     11  C   LIG A   1      -8.581   1.426 130.822  0.00  0.00    +0.046 A 
ATOM     12  N   LIG A   1      -7.685  -2.207 125.612  0.00  0.00    -0.251 NA
ATOM     13  C   LIG A   1      -7.858  -1.971 124.300  0.00  0.00    +0.112 A 
ATOM     14  C   LIG A   1      -8.084  -0.712 123.776  0.00  0.00    +0.028 A 
ATOM     15  C   LIG A   1      -8.156   0.378 124.649  0.00  0.00    -0.010 A 
ATOM     16  C   LIG A   1      -8.302   1.673 124.148  0.00  0.00    +0.058 A 
ATOM     17  C   LIG A   1      -8.273   2.712 125.047  0.00  0.00    +0.167 A 
ATOM     18  C   LIG A   1      -8.182   2.514 126.412  0.00  0.00    +0.175 A 
ATOM     19  O   LIG A   1      -8.053   3.712 127.055  0.00  0.00    -0.452 OA
ATOM     20  C   LIG A   1      -8.204   4.655 125.982  0.00  0.00    +0.466 C 
ATOM     21  O   LIG A   1      -8.296   4.027 124.694  0.00  0.00    -0.453 OA
ENDROOT
BRANCH   1  22
ATOM     22  O   LIG A   1      -9.375   2.906 129.101  0.00  0.00    -0.494 OA
ATOM     23  C   LIG A   1      -9.661   3.820 130.158  0.00  0.00    +0.277 C 
ENDBRANCH   1  22
TORSDOF 1
ENDMDL
