MODEL 1
REMARK VINA RESULT:      -7.4      0.000      0.000
REMARK  Name = NuBBE_1936
REMARK  3 active torsions:
REMARK  status: ('A' for Active; 'I' for Inactive)
REMARK    1  A    between atoms: C_1  and  C_2
REMARK    2  A    between atoms: C_2  and  C_15
REMARK    3  A    between atoms: C_6  and  C_7
REMARK                            x       y       z     vdW  Elec       q    Type
REMARK                         _______ _______ _______ _____ _____    ______ ____
ROOT
ATOM      1  C   LIG A   1      -8.136  -3.629 124.359  0.00  0.00    +0.012 C 
ATOM      2  C   LIG A   1      -8.319  -2.096 124.304  0.00  0.00    -0.025 C 
ATOM      3  C   LIG A   1      -6.986  -1.208 124.087  0.00  0.00    +0.000 C 
ATOM      4  C   LIG A   1      -5.865  -1.430 125.158  0.00  0.00    +0.016 C 
ATOM      5  C   LIG A   1      -5.128  -2.774 125.106  0.00  0.00    +0.031 C 
ATOM      6  C   LIG A   1      -5.012  -3.382 123.733  0.00  0.00    -0.076 C 
ATOM      7  C   LIG A   1      -4.368  -4.736 123.645  0.00  0.00    +0.038 C 
ATOM      8  C   LIG A   1      -5.522  -2.782 122.649  0.00  0.00    -0.027 C 
ATOM      9  C   LIG A   1      -6.286  -1.492 122.712  0.00  0.00    +0.039 C 
ATOM     10  C   LIG A   1      -7.425   0.289 124.219  0.00  0.00    -0.070 C 
ATOM     11  C   LIG A   1      -8.133   0.657 125.510  0.00  0.00    +0.031 C 
ATOM     12  C   LIG A   1      -9.347  -0.226 125.755  0.00  0.00    +0.005 C 
ATOM     13  C   LIG A   1      -9.002  -1.707 125.650  0.00  0.00    +0.007 C 
ATOM     14  C   LIG A   1      -7.255   1.247 123.288  0.00  0.00    +0.008 C 
ATOM     15  C   LIG A   1      -9.334  -1.863 123.146  0.00  0.00    +0.012 C 
ENDROOT
TORSDOF 0
ENDMDL
MODEL 2
REMARK VINA RESULT:      -6.5      1.447      4.654
REMARK  Name = NuBBE_1936
REMARK  3 active torsions:
REMARK  status: ('A' for Active; 'I' for Inactive)
REMARK    1  A    between atoms: C_1  and  C_2
REMARK    2  A    between atoms: C_2  and  C_15
REMARK    3  A    between atoms: C_6  and  C_7
REMARK                            x       y       z     vdW  Elec       q    Type
REMARK                         _______ _______ _______ _____ _____    ______ ____
ROOT
ATOM      1  C   LIG A   1      -5.973   0.256 125.258  0.00  0.00    +0.012 C 
ATOM      2  C   LIG A   1      -6.573  -0.993 124.575  0.00  0.00    -0.025 C 
ATOM      3  C   LIG A   1      -7.972  -1.547 125.166  0.00  0.00    +0.000 C 
ATOM      4  C   LIG A   1      -7.947  -1.908 126.690  0.00  0.00    +0.016 C 
ATOM      5  C   LIG A   1      -7.858  -0.731 127.668  0.00  0.00    +0.031 C 
ATOM      6  C   LIG A   1      -8.502   0.543 127.189  0.00  0.00    -0.076 C 
ATOM      7  C   LIG A   1      -8.371   1.745 128.079  0.00  0.00    +0.038 C 
ATOM      8  C   LIG A   1      -9.103   0.627 125.994  0.00  0.00    -0.027 C 
ATOM      9  C   LIG A   1      -9.143  -0.514 125.019  0.00  0.00    +0.039 C 
ATOM     10  C   LIG A   1      -8.275  -2.883 124.406  0.00  0.00    -0.070 C 
ATOM     11  C   LIG A   1      -7.187  -3.939 124.472  0.00  0.00    +0.031 C 
ATOM     12  C   LIG A   1      -5.851  -3.399 123.986  0.00  0.00    +0.005 C 
ATOM     13  C   LIG A   1      -5.478  -2.097 124.683  0.00  0.00    +0.007 C 
ATOM     14  C   LIG A   1      -9.384  -3.151 123.692  0.00  0.00    +0.008 C 
ATOM     15  C   LIG A   1      -6.725  -0.588 123.079  0.00  0.00    +0.012 C 
ENDROOT
TORSDOF 0
ENDMDL
MODEL 3
REMARK VINA RESULT:      -6.4      1.268      4.327
REMARK  Name = NuBBE_1936
REMARK  3 active torsions:
REMARK  status: ('A' for Active; 'I' for Inactive)
REMARK    1  A    between atoms: C_1  and  C_2
REMARK    2  A    between atoms: C_2  and  C_15
REMARK    3  A    between atoms: C_6  and  C_7
REMARK                            x       y       z     vdW  Elec       q    Type
REMARK                         _______ _______ _______ _____ _____    ______ ____
ROOT
ATOM      1  C   LIG A   1      -8.952   0.114 126.098  0.00  0.00    +0.012 C 
ATOM      2  C   LIG A   1      -8.194  -1.203 125.817  0.00  0.00    -0.025 C 
ATOM      3  C   LIG A   1      -7.672  -1.437 124.305  0.00  0.00    +0.000 C 
ATOM      4  C   LIG A   1      -8.789  -1.387 123.208  0.00  0.00    +0.016 C 
ATOM      5  C   LIG A   1      -9.397  -0.010 122.916  0.00  0.00    +0.031 C 
ATOM      6  C   LIG A   1      -8.462   1.153 123.117  0.00  0.00    -0.076 C 
ATOM      7  C   LIG A   1      -9.037   2.527 122.920  0.00  0.00    +0.038 C 
ATOM      8  C   LIG A   1      -7.196   0.982 123.522  0.00  0.00    -0.027 C 
ATOM      9  C   LIG A   1      -6.620  -0.364 123.854  0.00  0.00    +0.039 C 
ATOM     10  C   LIG A   1      -7.082  -2.887 124.260  0.00  0.00    -0.070 C 
ATOM     11  C   LIG A   1      -8.021  -3.995 124.701  0.00  0.00    +0.031 C 
ATOM     12  C   LIG A   1      -8.572  -3.740 126.096  0.00  0.00    +0.005 C 
ATOM     13  C   LIG A   1      -9.173  -2.346 126.223  0.00  0.00    +0.007 C 
ATOM     14  C   LIG A   1      -5.828  -3.218 123.898  0.00  0.00    +0.008 C 
ATOM     15  C   LIG A   1      -7.002  -1.191 126.818  0.00  0.00    +0.012 C 
ENDROOT
TORSDOF 0
ENDMDL
MODEL 4
REMARK VINA RESULT:      -6.4      1.467      4.112
REMARK  Name = NuBBE_1936
REMARK  3 active torsions:
REMARK  status: ('A' for Active; 'I' for Inactive)
REMARK    1  A    between atoms: C_1  and  C_2
REMARK    2  A    between atoms: C_2  and  C_15
REMARK    3  A    between atoms: C_6  and  C_7
REMARK                            x       y       z     vdW  Elec       q    Type
REMARK                         _______ _______ _______ _____ _____    ______ ____
ROOT
ATOM      1  C   LIG A   1      -5.860  -0.563 126.058  0.00  0.00    +0.012 C 
ATOM      2  C   LIG A   1      -6.869  -1.674 125.689  0.00  0.00    -0.025 C 
ATOM      3  C   LIG A   1      -8.087  -1.259 124.712  0.00  0.00    +0.000 C 
ATOM      4  C   LIG A   1      -8.978  -0.081 125.234  0.00  0.00    +0.016 C 
ATOM      5  C   LIG A   1      -8.336   1.312 125.229  0.00  0.00    +0.031 C 
ATOM      6  C   LIG A   1      -7.318   1.538 124.143  0.00  0.00    -0.076 C 
ATOM      7  C   LIG A   1      -6.606   2.860 124.147  0.00  0.00    +0.038 C 
ATOM      8  C   LIG A   1      -7.005   0.584 123.256  0.00  0.00    -0.027 C 
ATOM      9  C   LIG A   1      -7.599  -0.794 123.296  0.00  0.00    +0.039 C 
ATOM     10  C   LIG A   1      -9.027  -2.509 124.623  0.00  0.00    -0.070 C 
ATOM     11  C   LIG A   1      -9.536  -3.047 125.948  0.00  0.00    +0.031 C 
ATOM     12  C   LIG A   1      -8.392  -3.370 126.898  0.00  0.00    +0.005 C 
ATOM     13  C   LIG A   1      -7.430  -2.197 127.046  0.00  0.00    +0.007 C 
ATOM     14  C   LIG A   1      -9.388  -3.147 123.493  0.00  0.00    +0.008 C 
ATOM     15  C   LIG A   1      -6.000  -2.795 125.046  0.00  0.00    +0.012 C 
ENDROOT
TORSDOF 0
ENDMDL
MODEL 5
REMARK VINA RESULT:      -6.4      1.657      3.907
REMARK  Name = NuBBE_1936
REMARK  3 active torsions:
REMARK  status: ('A' for Active; 'I' for Inactive)
REMARK    1  A    between atoms: C_1  and  C_2
REMARK    2  A    between atoms: C_2  and  C_15
REMARK    3  A    between atoms: C_6  and  C_7
REMARK                            x       y       z     vdW  Elec       q    Type
REMARK                         _______ _______ _______ _____ _____    ______ ____
ROOT
ATOM      1  C   LIG A   1      -8.882  -1.953 126.100  0.00  0.00    +0.012 C 
ATOM      2  C   LIG A   1      -7.970  -2.391 124.932  0.00  0.00    -0.025 C 
ATOM      3  C   LIG A   1      -6.415  -1.959 125.018  0.00  0.00    +0.000 C 
ATOM      4  C   LIG A   1      -6.166  -0.418 125.151  0.00  0.00    +0.016 C 
ATOM      5  C   LIG A   1      -6.546   0.221 126.493  0.00  0.00    +0.031 C 
ATOM      6  C   LIG A   1      -6.416  -0.687 127.687  0.00  0.00    -0.076 C 
ATOM      7  C   LIG A   1      -6.852  -0.130 129.012  0.00  0.00    +0.038 C 
ATOM      8  C   LIG A   1      -6.000  -1.955 127.571  0.00  0.00    -0.027 C 
ATOM      9  C   LIG A   1      -5.677  -2.590 126.249  0.00  0.00    +0.039 C 
ATOM     10  C   LIG A   1      -5.761  -2.390 123.662  0.00  0.00    -0.070 C 
ATOM     11  C   LIG A   1      -6.420  -1.844 122.409  0.00  0.00    +0.031 C 
ATOM     12  C   LIG A   1      -7.902  -2.187 122.361  0.00  0.00    +0.005 C 
ATOM     13  C   LIG A   1      -8.617  -1.792 123.647  0.00  0.00    +0.007 C 
ATOM     14  C   LIG A   1      -4.702  -3.211 123.522  0.00  0.00    +0.008 C 
ATOM     15  C   LIG A   1      -8.112  -3.941 124.884  0.00  0.00    +0.012 C 
ENDROOT
TORSDOF 0
ENDMDL
MODEL 6
REMARK VINA RESULT:      -6.3      1.638      4.167
REMARK  Name = NuBBE_1936
REMARK  3 active torsions:
REMARK  status: ('A' for Active; 'I' for Inactive)
REMARK    1  A    between atoms: C_1  and  C_2
REMARK    2  A    between atoms: C_2  and  C_15
REMARK    3  A    between atoms: C_6  and  C_7
REMARK                            x       y       z     vdW  Elec       q    Type
REMARK                         _______ _______ _______ _____ _____    ______ ____
ROOT
ATOM      1  C   LIG A   1      -8.193  -0.135 127.048  0.00  0.00    +0.012 C 
ATOM      2  C   LIG A   1      -7.860  -1.409 126.240  0.00  0.00    -0.025 C 
ATOM      3  C   LIG A   1      -6.735  -1.270 125.089  0.00  0.00    +0.000 C 
ATOM      4  C   LIG A   1      -7.037  -0.185 124.000  0.00  0.00    +0.016 C 
ATOM      5  C   LIG A   1      -6.935   1.278 124.449  0.00  0.00    +0.031 C 
ATOM      6  C   LIG A   1      -5.929   1.539 125.539  0.00  0.00    -0.076 C 
ATOM      7  C   LIG A   1      -5.851   2.943 126.066  0.00  0.00    +0.038 C 
ATOM      8  C   LIG A   1      -5.187   0.557 126.068  0.00  0.00    -0.027 C 
ATOM      9  C   LIG A   1      -5.326  -0.881 125.660  0.00  0.00    +0.039 C 
ATOM     10  C   LIG A   1      -6.699  -2.644 124.337  0.00  0.00    -0.070 C 
ATOM     11  C   LIG A   1      -8.023  -3.116 123.765  0.00  0.00    +0.031 C 
ATOM     12  C   LIG A   1      -9.105  -3.178 124.833  0.00  0.00    +0.005 C 
ATOM     13  C   LIG A   1      -9.209  -1.871 125.611  0.00  0.00    +0.007 C 
ATOM     14  C   LIG A   1      -5.619  -3.434 124.185  0.00  0.00    +0.008 C 
ATOM     15  C   LIG A   1      -7.428  -2.452 127.313  0.00  0.00    +0.012 C 
ENDROOT
TORSDOF 0
ENDMDL
MODEL 7
REMARK VINA RESULT:      -6.2      2.117      4.161
REMARK  Name = NuBBE_1936
REMARK  3 active torsions:
REMARK  status: ('A' for Active; 'I' for Inactive)
REMARK    1  A    between atoms: C_1  and  C_2
REMARK    2  A    between atoms: C_2  and  C_15
REMARK    3  A    between atoms: C_6  and  C_7
REMARK                            x       y       z     vdW  Elec       q    Type
REMARK                         _______ _______ _______ _____ _____    ______ ____
ROOT
ATOM      1  C   LIG A   1      -5.716  -2.560 126.319  0.00  0.00    +0.012 C 
ATOM      2  C   LIG A   1      -6.629  -1.701 125.416  0.00  0.00    -0.025 C 
ATOM      3  C   LIG A   1      -8.115  -1.387 125.967  0.00  0.00    +0.000 C 
ATOM      4  C   LIG A   1      -8.976  -2.653 126.300  0.00  0.00    +0.016 C 
ATOM      5  C   LIG A   1      -8.554  -3.458 127.536  0.00  0.00    +0.031 C 
ATOM      6  C   LIG A   1      -7.916  -2.649 128.634  0.00  0.00    -0.076 C 
ATOM      7  C   LIG A   1      -7.415  -3.406 129.830  0.00  0.00    +0.038 C 
ATOM      8  C   LIG A   1      -7.737  -1.325 128.525  0.00  0.00    -0.027 C 
ATOM      9  C   LIG A   1      -8.106  -0.550 127.294  0.00  0.00    +0.039 C 
ATOM     10  C   LIG A   1      -8.867  -0.641 124.813  0.00  0.00    -0.070 C 
ATOM     11  C   LIG A   1      -8.911  -1.365 123.480  0.00  0.00    +0.031 C 
ATOM     12  C   LIG A   1      -7.516  -1.727 122.993  0.00  0.00    +0.005 C 
ATOM     13  C   LIG A   1      -6.717  -2.465 124.060  0.00  0.00    +0.007 C 
ATOM     14  C   LIG A   1      -9.439   0.575 124.900  0.00  0.00    +0.008 C 
ATOM     15  C   LIG A   1      -5.831  -0.382 125.193  0.00  0.00    +0.012 C 
ENDROOT
TORSDOF 0
ENDMDL
MODEL 8
REMARK VINA RESULT:      -6.2      2.060      4.002
REMARK  Name = NuBBE_1936
REMARK  3 active torsions:
REMARK  status: ('A' for Active; 'I' for Inactive)
REMARK    1  A    between atoms: C_1  and  C_2
REMARK    2  A    between atoms: C_2  and  C_15
REMARK    3  A    between atoms: C_6  and  C_7
REMARK                            x       y       z     vdW  Elec       q    Type
REMARK                         _______ _______ _______ _____ _____    ______ ____
ROOT
ATOM      1  C   LIG A   1      -7.891   0.158 127.417  0.00  0.00    +0.012 C 
ATOM      2  C   LIG A   1      -8.046  -0.318 125.955  0.00  0.00    -0.025 C 
ATOM      3  C   LIG A   1      -7.746  -1.878 125.659  0.00  0.00    +0.000 C 
ATOM      4  C   LIG A   1      -6.318  -2.366 126.080  0.00  0.00    +0.016 C 
ATOM      5  C   LIG A   1      -6.050  -2.472 127.586  0.00  0.00    +0.031 C 
ATOM      6  C   LIG A   1      -7.256  -2.807 128.424  0.00  0.00    -0.076 C 
ATOM      7  C   LIG A   1      -7.058  -2.843 129.912  0.00  0.00    +0.038 C 
ATOM      8  C   LIG A   1      -8.466  -2.993 127.879  0.00  0.00    -0.027 C 
ATOM      9  C   LIG A   1      -8.733  -2.838 126.410  0.00  0.00    +0.039 C 
ATOM     10  C   LIG A   1      -7.828  -2.058 124.105  0.00  0.00    -0.070 C 
ATOM     11  C   LIG A   1      -6.922  -1.154 123.289  0.00  0.00    +0.031 C 
ATOM     12  C   LIG A   1      -7.150   0.314 123.619  0.00  0.00    +0.005 C 
ATOM     13  C   LIG A   1      -7.081   0.576 125.119  0.00  0.00    +0.007 C 
ATOM     14  C   LIG A   1      -8.639  -2.909 123.450  0.00  0.00    +0.008 C 
ATOM     15  C   LIG A   1      -9.512   0.045 125.577  0.00  0.00    +0.012 C 
ENDROOT
TORSDOF 0
ENDMDL
MODEL 9
REMARK VINA RESULT:      -6.1      1.139      4.482
REMARK  Name = NuBBE_1936
REMARK  3 active torsions:
REMARK  status: ('A' for Active; 'I' for Inactive)
REMARK    1  A    between atoms: C_1  and  C_2
REMARK    2  A    between atoms: C_2  and  C_15
REMARK    3  A    between atoms: C_6  and  C_7
REMARK                            x       y       z     vdW  Elec       q    Type
REMARK                         _______ _______ _______ _____ _____    ______ ____
ROOT
ATOM      1  C   LIG A   1      -8.842  -1.975 123.000  0.00  0.00    +0.012 C 
ATOM      2  C   LIG A   1      -7.642  -2.378 123.887  0.00  0.00    -0.025 C 
ATOM      3  C   LIG A   1      -7.166  -1.308 125.001  0.00  0.00    +0.000 C 
ATOM      4  C   LIG A   1      -6.780   0.102 124.438  0.00  0.00    +0.016 C 
ATOM      5  C   LIG A   1      -7.934   0.969 123.921  0.00  0.00    +0.031 C 
ATOM      6  C   LIG A   1      -9.253   0.751 124.615  0.00  0.00    -0.076 C 
ATOM      7  C   LIG A   1     -10.430   1.520 124.089  0.00  0.00    +0.038 C 
ATOM      8  C   LIG A   1      -9.392  -0.139 125.608  0.00  0.00    -0.027 C 
ATOM      9  C   LIG A   1      -8.271  -1.020 126.076  0.00  0.00    +0.039 C 
ATOM     10  C   LIG A   1      -5.863  -1.892 125.645  0.00  0.00    -0.070 C 
ATOM     11  C   LIG A   1      -4.741  -2.223 124.679  0.00  0.00    +0.031 C 
ATOM     12  C   LIG A   1      -5.207  -3.173 123.585  0.00  0.00    +0.005 C 
ATOM     13  C   LIG A   1      -6.472  -2.673 122.900  0.00  0.00    +0.007 C 
ATOM     14  C   LIG A   1      -5.674  -2.144 126.955  0.00  0.00    +0.008 C 
ATOM     15  C   LIG A   1      -8.079  -3.715 124.554  0.00  0.00    +0.012 C 
ENDROOT
TORSDOF 0
ENDMDL
