MODEL 1
REMARK VINA RESULT:      -7.7      0.000      0.000
REMARK  Name = NuBBE_1639
REMARK  19 active torsions:
REMARK  status: ('A' for Active; 'I' for Inactive)
REMARK    1  A    between atoms: C_1  and  C_2
REMARK    2  A    between atoms: C_6  and  O_8
REMARK    3  A    between atoms: O_8  and  C_9
REMARK    4  A    between atoms: C_9  and  C_11
REMARK    5  A    between atoms: C_14  and  C_16
REMARK    6  A    between atoms: C_14  and  C_34
REMARK    7  A    between atoms: C_16  and  C_17
REMARK    8  A    between atoms: C_17  and  C_18
REMARK    9  A    between atoms: C_19  and  C_20
REMARK   10  A    between atoms: C_19  and  C_33
REMARK   11  A    between atoms: C_20  and  C_21
REMARK   12  A    between atoms: C_21  and  C_22
REMARK   13  A    between atoms: C_23  and  C_24
REMARK   14  A    between atoms: C_23  and  C_30
REMARK   15  A    between atoms: C_24  and  C_25
REMARK   16  A    between atoms: C_25  and  C_26
REMARK   17  A    between atoms: C_27  and  C_28
REMARK   18  A    between atoms: C_27  and  C_29
REMARK   19  A    between atoms: C_30  and  O_32
REMARK                            x       y       z     vdW  Elec       q    Type
REMARK                         _______ _______ _______ _____ _____    ______ ____
ROOT
ATOM      1  C   LIG A   1      -3.175   4.421 130.709  0.00  0.00    +0.031 C 
ENDROOT
BRANCH   1   2
ATOM      2  C   LIG A   1      -3.276   3.828 129.318  0.00  0.00    -0.028 C 
ATOM      3  C   LIG A   1      -3.001   4.451 128.149  0.00  0.00    -0.076 C 
ATOM      4  C   LIG A   1      -2.616   5.903 128.059  0.00  0.00    +0.038 C 
BRANCH   3   5
ATOM      5  C   LIG A   1      -3.179   3.758 126.802  0.00  0.00    +0.034 C 
BRANCH   5   6
ATOM      6  C   LIG A   1      -4.561   3.884 126.120  0.00  0.00    +0.032 C 
BRANCH   6   7
ATOM      7  C   LIG A   1      -5.719   3.942 127.096  0.00  0.00    -0.016 C 
ATOM      8  C   LIG A   1      -7.021   4.287 126.956  0.00  0.00    +0.033 C 
BRANCH   8   9
ATOM      9  C   LIG A   1      -7.687   4.731 125.700  0.00  0.00    +0.333 C 
ATOM     10  O   LIG A   1      -8.698   4.244 125.214  0.00  0.00    -0.245 OA
BRANCH   9  11
ATOM     11  O   LIG A   1      -7.047   5.738 125.082  0.00  0.00    -0.477 OA
ATOM     12  H   LIG A   1      -7.006   6.464 125.726  0.00  0.00    +0.295 HD
ENDBRANCH   9  11
ENDBRANCH   8   9
BRANCH   8  13
ATOM     13  C   LIG A   1      -7.965   4.254 128.148  0.00  0.00    +0.046 C 
BRANCH  13  14
ATOM     14  C   LIG A   1      -7.481   3.447 129.364  0.00  0.00    +0.032 C 
BRANCH  14  15
ATOM     15  C   LIG A   1      -8.590   2.983 130.250  0.00  0.00    -0.028 C 
ATOM     16  C   LIG A   1      -8.439   2.275 131.388  0.00  0.00    -0.080 C 
ATOM     17  C   LIG A   1      -7.115   1.860 131.976  0.00  0.00    +0.038 C 
ATOM     18  C   LIG A   1      -9.646   1.832 132.166  0.00  0.00    +0.038 C 
ENDBRANCH  14  15
ENDBRANCH  13  14
ENDBRANCH   8  13
ENDBRANCH   6   7
ENDBRANCH   5   6
ENDBRANCH   3   5
ENDBRANCH   1   2
BRANCH   1  19
ATOM     19  C   LIG A   1      -4.502   4.379 131.484  0.00  0.00    +0.051 C 
BRANCH  19  29
ATOM     20  C   LIG A   1      -8.278   4.597 134.456  0.00  0.00    +0.048 C 
ATOM     21  C   LIG A   1      -8.362   5.381 133.176  0.00  0.00    -0.005 A 
ATOM     22  C   LIG A   1      -7.207   5.823 132.513  0.00  0.00    +0.128 A 
ATOM     23  C   LIG A   1      -7.303   6.614 131.367  0.00  0.00    -0.002 A 
ATOM     24  C   LIG A   1      -8.575   6.903 130.841  0.00  0.00    +0.053 A 
ATOM     25  C   LIG A   1      -9.726   6.430 131.479  0.00  0.00    +0.132 A 
ATOM     26  C   LIG A   1      -9.620   5.696 132.655  0.00  0.00    +0.053 A 
ATOM     27  C   LIG A   1      -6.070   7.120 130.680  0.00  0.00    +0.043 C 
ATOM     28  C   LIG A   1      -4.826   6.961 131.545  0.00  0.00    +0.052 C 
ATOM     29  C   LIG A   1      -4.802   5.646 132.342  0.00  0.00    +0.108 C 
ATOM     30  O   LIG A   1      -6.026   5.429 133.064  0.00  0.00    -0.485 OA
ATOM     31  C   LIG A   1      -3.771   5.790 133.478  0.00  0.00    +0.056 C 
BRANCH  25  32
ATOM     32  O   LIG A   1     -10.957   6.695 130.828  0.00  0.00    -0.426 OA
BRANCH  32  33
ATOM     33  C   LIG A   1     -11.619   5.803 129.977  0.00  0.00    +0.309 C 
ATOM     34  O   LIG A   1     -11.431   4.599 129.864  0.00  0.00    -0.251 OA
ATOM     35  C   LIG A   1     -12.661   6.544 129.198  0.00  0.00    +0.136 C 
ENDBRANCH  32  33
ENDBRANCH  25  32
ENDBRANCH  19  29
ENDBRANCH   1  19
TORSDOF 13
ENDMDL
MODEL 2
REMARK VINA RESULT:      -7.3      5.165      8.476
REMARK  Name = NuBBE_1639
REMARK  19 active torsions:
REMARK  status: ('A' for Active; 'I' for Inactive)
REMARK    1  A    between atoms: C_1  and  C_2
REMARK    2  A    between atoms: C_6  and  O_8
REMARK    3  A    between atoms: O_8  and  C_9
REMARK    4  A    between atoms: C_9  and  C_11
REMARK    5  A    between atoms: C_14  and  C_16
REMARK    6  A    between atoms: C_14  and  C_34
REMARK    7  A    between atoms: C_16  and  C_17
REMARK    8  A    between atoms: C_17  and  C_18
REMARK    9  A    between atoms: C_19  and  C_20
REMARK   10  A    between atoms: C_19  and  C_33
REMARK   11  A    between atoms: C_20  and  C_21
REMARK   12  A    between atoms: C_21  and  C_22
REMARK   13  A    between atoms: C_23  and  C_24
REMARK   14  A    between atoms: C_23  and  C_30
REMARK   15  A    between atoms: C_24  and  C_25
REMARK   16  A    between atoms: C_25  and  C_26
REMARK   17  A    between atoms: C_27  and  C_28
REMARK   18  A    between atoms: C_27  and  C_29
REMARK   19  A    between atoms: C_30  and  O_32
REMARK                            x       y       z     vdW  Elec       q    Type
REMARK                         _______ _______ _______ _____ _____    ______ ____
ROOT
ATOM      1  C   LIG A   1      -8.672  -3.427 127.362  0.00  0.00    +0.031 C 
ENDROOT
BRANCH   1   2
ATOM      2  C   LIG A   1      -9.164  -2.921 126.021  0.00  0.00    -0.028 C 
ATOM      3  C   LIG A   1      -8.665  -3.234 124.803  0.00  0.00    -0.076 C 
ATOM      4  C   LIG A   1      -7.453  -4.103 124.608  0.00  0.00    +0.038 C 
BRANCH   3   5
ATOM      5  C   LIG A   1      -9.224  -2.627 123.520  0.00  0.00    +0.034 C 
BRANCH   5   6
ATOM      6  C   LIG A   1      -8.253  -1.793 122.653  0.00  0.00    +0.032 C 
BRANCH   6   7
ATOM      7  C   LIG A   1      -7.861  -0.470 123.278  0.00  0.00    -0.016 C 
ATOM      8  C   LIG A   1      -8.564   0.649 123.579  0.00  0.00    +0.033 C 
BRANCH   8   9
ATOM      9  C   LIG A   1     -10.020   0.864 123.348  0.00  0.00    +0.333 C 
ATOM     10  O   LIG A   1     -10.856   1.092 124.211  0.00  0.00    -0.245 OA
BRANCH   9  11
ATOM     11  O   LIG A   1     -10.379   0.754 122.058  0.00  0.00    -0.477 OA
ATOM     12  H   LIG A   1     -11.326   0.969 122.024  0.00  0.00    +0.295 HD
ENDBRANCH   9  11
ENDBRANCH   8   9
BRANCH   8  13
ATOM     13  C   LIG A   1      -7.878   1.851 124.209  0.00  0.00    +0.046 C 
BRANCH  13  14
ATOM     14  C   LIG A   1      -6.804   2.536 123.350  0.00  0.00    +0.032 C 
BRANCH  14  15
ATOM     15  C   LIG A   1      -7.333   3.098 122.071  0.00  0.00    -0.028 C 
ATOM     16  C   LIG A   1      -6.585   3.601 121.067  0.00  0.00    -0.080 C 
ATOM     17  C   LIG A   1      -5.079   3.648 121.055  0.00  0.00    +0.038 C 
ATOM     18  C   LIG A   1      -7.250   4.176 119.848  0.00  0.00    +0.038 C 
ENDBRANCH  14  15
ENDBRANCH  13  14
ENDBRANCH   8  13
ENDBRANCH   6   7
ENDBRANCH   5   6
ENDBRANCH   3   5
ENDBRANCH   1   2
BRANCH   1  19
ATOM     19  C   LIG A   1      -8.154  -2.306 128.279  0.00  0.00    +0.051 C 
BRANCH  19  29
ATOM     20  C   LIG A   1      -5.979   1.033 130.974  0.00  0.00    +0.048 C 
ATOM     21  C   LIG A   1      -5.727   1.071 129.493  0.00  0.00    -0.005 A 
ATOM     22  C   LIG A   1      -5.844  -0.082 128.702  0.00  0.00    +0.128 A 
ATOM     23  C   LIG A   1      -5.533  -0.047 127.341  0.00  0.00    -0.002 A 
ATOM     24  C   LIG A   1      -5.172   1.180 126.755  0.00  0.00    +0.053 A 
ATOM     25  C   LIG A   1      -5.093   2.338 127.535  0.00  0.00    +0.132 A 
ATOM     26  C   LIG A   1      -5.344   2.278 128.901  0.00  0.00    +0.053 A 
ATOM     27  C   LIG A   1      -5.620  -1.287 126.503  0.00  0.00    +0.043 C 
ATOM     28  C   LIG A   1      -5.733  -2.545 127.353  0.00  0.00    +0.052 C 
ATOM     29  C   LIG A   1      -6.627  -2.367 128.591  0.00  0.00    +0.108 C 
ATOM     30  O   LIG A   1      -6.270  -1.200 129.351  0.00  0.00    -0.485 OA
ATOM     31  C   LIG A   1      -6.318  -3.509 129.578  0.00  0.00    +0.056 C 
BRANCH  25  32
ATOM     32  O   LIG A   1      -4.808   3.542 126.843  0.00  0.00    -0.426 OA
BRANCH  32  33
ATOM     33  C   LIG A   1      -3.637   4.293 126.996  0.00  0.00    +0.309 C 
ATOM     34  O   LIG A   1      -3.540   5.466 127.329  0.00  0.00    -0.251 OA
ATOM     35  C   LIG A   1      -2.452   3.425 126.709  0.00  0.00    +0.136 C 
ENDBRANCH  32  33
ENDBRANCH  25  32
ENDBRANCH  19  29
ENDBRANCH   1  19
TORSDOF 13
ENDMDL
MODEL 3
REMARK VINA RESULT:      -7.0      1.296      1.907
REMARK  Name = NuBBE_1639
REMARK  19 active torsions:
REMARK  status: ('A' for Active; 'I' for Inactive)
REMARK    1  A    between atoms: C_1  and  C_2
REMARK    2  A    between atoms: C_6  and  O_8
REMARK    3  A    between atoms: O_8  and  C_9
REMARK    4  A    between atoms: C_9  and  C_11
REMARK    5  A    between atoms: C_14  and  C_16
REMARK    6  A    between atoms: C_14  and  C_34
REMARK    7  A    between atoms: C_16  and  C_17
REMARK    8  A    between atoms: C_17  and  C_18
REMARK    9  A    between atoms: C_19  and  C_20
REMARK   10  A    between atoms: C_19  and  C_33
REMARK   11  A    between atoms: C_20  and  C_21
REMARK   12  A    between atoms: C_21  and  C_22
REMARK   13  A    between atoms: C_23  and  C_24
REMARK   14  A    between atoms: C_23  and  C_30
REMARK   15  A    between atoms: C_24  and  C_25
REMARK   16  A    between atoms: C_25  and  C_26
REMARK   17  A    between atoms: C_27  and  C_28
REMARK   18  A    between atoms: C_27  and  C_29
REMARK   19  A    between atoms: C_30  and  O_32
REMARK                            x       y       z     vdW  Elec       q    Type
REMARK                         _______ _______ _______ _____ _____    ______ ____
ROOT
ATOM      1  C   LIG A   1      -3.383   3.899 131.407  0.00  0.00    +0.031 C 
ENDROOT
BRANCH   1   2
ATOM      2  C   LIG A   1      -3.434   4.066 129.902  0.00  0.00    -0.028 C 
ATOM      3  C   LIG A   1      -2.878   5.064 129.177  0.00  0.00    -0.076 C 
ATOM      4  C   LIG A   1      -2.169   6.236 129.798  0.00  0.00    +0.038 C 
BRANCH   3   5
ATOM      5  C   LIG A   1      -3.032   5.146 127.662  0.00  0.00    +0.034 C 
BRANCH   5   6
ATOM      6  C   LIG A   1      -2.738   3.862 126.852  0.00  0.00    +0.032 C 
BRANCH   6   7
ATOM      7  C   LIG A   1      -3.948   2.972 126.659  0.00  0.00    -0.016 C 
ATOM      8  C   LIG A   1      -5.072   3.097 125.912  0.00  0.00    +0.033 C 
BRANCH   8   9
ATOM      9  C   LIG A   1      -5.415   4.241 125.021  0.00  0.00    +0.333 C 
ATOM     10  O   LIG A   1      -5.320   4.253 123.802  0.00  0.00    -0.245 OA
BRANCH   9  11
ATOM     11  O   LIG A   1      -5.830   5.332 125.687  0.00  0.00    -0.477 OA
ATOM     12  H   LIG A   1      -5.215   6.044 125.443  0.00  0.00    +0.295 HD
ENDBRANCH   9  11
ENDBRANCH   8   9
BRANCH   8  13
ATOM     13  C   LIG A   1      -6.141   2.016 125.930  0.00  0.00    +0.046 C 
BRANCH  13  14
ATOM     14  C   LIG A   1      -7.533   2.458 126.407  0.00  0.00    +0.032 C 
BRANCH  14  15
ATOM     15  C   LIG A   1      -7.816   2.104 127.829  0.00  0.00    -0.028 C 
ATOM     16  C   LIG A   1      -7.540   2.876 128.900  0.00  0.00    -0.080 C 
ATOM     17  C   LIG A   1      -6.925   4.250 128.835  0.00  0.00    +0.038 C 
ATOM     18  C   LIG A   1      -7.840   2.379 130.286  0.00  0.00    +0.038 C 
ENDBRANCH  14  15
ENDBRANCH  13  14
ENDBRANCH   8  13
ENDBRANCH   6   7
ENDBRANCH   5   6
ENDBRANCH   3   5
ENDBRANCH   1   2
BRANCH   1  19
ATOM     19  C   LIG A   1      -4.771   3.715 132.044  0.00  0.00    +0.051 C 
BRANCH  19  29
ATOM     20  C   LIG A   1      -9.197   3.944 133.915  0.00  0.00    +0.048 C 
ATOM     21  C   LIG A   1      -8.838   4.960 132.867  0.00  0.00    -0.005 A 
ATOM     22  C   LIG A   1      -7.505   5.337 132.640  0.00  0.00    +0.128 A 
ATOM     23  C   LIG A   1      -7.195   6.336 131.717  0.00  0.00    -0.002 A 
ATOM     24  C   LIG A   1      -8.231   6.912 130.959  0.00  0.00    +0.053 A 
ATOM     25  C   LIG A   1      -9.556   6.509 131.157  0.00  0.00    +0.132 A 
ATOM     26  C   LIG A   1      -9.860   5.558 132.124  0.00  0.00    +0.053 A 
ATOM     27  C   LIG A   1      -5.775   6.768 131.502  0.00  0.00    +0.043 C 
ATOM     28  C   LIG A   1      -4.850   6.257 132.599  0.00  0.00    +0.052 C 
ATOM     29  C   LIG A   1      -5.179   4.827 133.058  0.00  0.00    +0.108 C 
ATOM     30  O   LIG A   1      -6.572   4.668 133.373  0.00  0.00    -0.485 OA
ATOM     31  C   LIG A   1      -4.505   4.592 134.424  0.00  0.00    +0.056 C 
BRANCH  25  32
ATOM     32  O   LIG A   1     -10.520   7.080 130.288  0.00  0.00    -0.426 OA
BRANCH  32  33
ATOM     33  C   LIG A   1     -11.811   6.577 130.087  0.00  0.00    +0.309 C 
ATOM     34  O   LIG A   1     -12.160   5.707 129.301  0.00  0.00    -0.251 OA
ATOM     35  C   LIG A   1     -12.758   7.259 131.026  0.00  0.00    +0.136 C 
ENDBRANCH  32  33
ENDBRANCH  25  32
ENDBRANCH  19  29
ENDBRANCH   1  19
TORSDOF 13
ENDMDL
MODEL 4
REMARK VINA RESULT:      -7.0      5.319      9.203
REMARK  Name = NuBBE_1639
REMARK  19 active torsions:
REMARK  status: ('A' for Active; 'I' for Inactive)
REMARK    1  A    between atoms: C_1  and  C_2
REMARK    2  A    between atoms: C_6  and  O_8
REMARK    3  A    between atoms: O_8  and  C_9
REMARK    4  A    between atoms: C_9  and  C_11
REMARK    5  A    between atoms: C_14  and  C_16
REMARK    6  A    between atoms: C_14  and  C_34
REMARK    7  A    between atoms: C_16  and  C_17
REMARK    8  A    between atoms: C_17  and  C_18
REMARK    9  A    between atoms: C_19  and  C_20
REMARK   10  A    between atoms: C_19  and  C_33
REMARK   11  A    between atoms: C_20  and  C_21
REMARK   12  A    between atoms: C_21  and  C_22
REMARK   13  A    between atoms: C_23  and  C_24
REMARK   14  A    between atoms: C_23  and  C_30
REMARK   15  A    between atoms: C_24  and  C_25
REMARK   16  A    between atoms: C_25  and  C_26
REMARK   17  A    between atoms: C_27  and  C_28
REMARK   18  A    between atoms: C_27  and  C_29
REMARK   19  A    between atoms: C_30  and  O_32
REMARK                            x       y       z     vdW  Elec       q    Type
REMARK                         _______ _______ _______ _____ _____    ______ ____
ROOT
ATOM      1  C   LIG A   1      -8.958  -0.258 125.926  0.00  0.00    +0.031 C 
ENDROOT
BRANCH   1   2
ATOM      2  C   LIG A   1      -7.723   0.569 126.216  0.00  0.00    -0.028 C 
ATOM      3  C   LIG A   1      -7.224   0.884 127.434  0.00  0.00    -0.076 C 
ATOM      4  C   LIG A   1      -7.901   0.505 128.723  0.00  0.00    +0.038 C 
BRANCH   3   5
ATOM      5  C   LIG A   1      -5.988   1.762 127.601  0.00  0.00    +0.034 C 
BRANCH   5   6
ATOM      6  C   LIG A   1      -6.141   3.265 127.276  0.00  0.00    +0.032 C 
BRANCH   6   7
ATOM      7  C   LIG A   1      -5.829   3.612 125.834  0.00  0.00    -0.016 C 
ATOM      8  C   LIG A   1      -6.613   3.888 124.765  0.00  0.00    +0.033 C 
BRANCH   8   9
ATOM      9  C   LIG A   1      -8.102   3.920 124.748  0.00  0.00    +0.333 C 
ATOM     10  O   LIG A   1      -8.829   3.117 124.179  0.00  0.00    -0.245 OA
BRANCH   9  11
ATOM     11  O   LIG A   1      -8.623   4.967 125.410  0.00  0.00    -0.477 OA
ATOM     12  H   LIG A   1      -9.209   5.418 124.779  0.00  0.00    +0.295 HD
ENDBRANCH   9  11
ENDBRANCH   8   9
BRANCH   8  13
ATOM     13  C   LIG A   1      -5.997   4.199 123.410  0.00  0.00    +0.046 C 
BRANCH  13  14
ATOM     14  C   LIG A   1      -6.231   3.151 122.310  0.00  0.00    +0.032 C 
BRANCH  14  15
ATOM     15  C   LIG A   1      -6.250   3.727 120.933  0.00  0.00    -0.028 C 
ATOM     16  C   LIG A   1      -7.357   3.988 120.207  0.00  0.00    -0.080 C 
ATOM     17  C   LIG A   1      -8.770   3.771 120.683  0.00  0.00    +0.038 C 
ATOM     18  C   LIG A   1      -7.233   4.530 118.811  0.00  0.00    +0.038 C 
ENDBRANCH  14  15
ENDBRANCH  13  14
ENDBRANCH   8  13
ENDBRANCH   6   7
ENDBRANCH   5   6
ENDBRANCH   3   5
ENDBRANCH   1   2
BRANCH   1  19
ATOM     19  C   LIG A   1      -8.921  -0.940 124.548  0.00  0.00    +0.051 C 
BRANCH  19  29
ATOM     20  C   LIG A   1      -8.920  -3.597 128.559  0.00  0.00    +0.048 C 
ATOM     21  C   LIG A   1      -7.594  -3.083 128.071  0.00  0.00    -0.005 A 
ATOM     22  C   LIG A   1      -7.380  -2.778 126.719  0.00  0.00    +0.128 A 
ATOM     23  C   LIG A   1      -6.122  -2.374 126.269  0.00  0.00    -0.002 A 
ATOM     24  C   LIG A   1      -5.085  -2.205 127.205  0.00  0.00    +0.053 A 
ATOM     25  C   LIG A   1      -5.307  -2.471 128.560  0.00  0.00    +0.132 A 
ATOM     26  C   LIG A   1      -6.547  -2.933 128.986  0.00  0.00    +0.053 A 
ATOM     27  C   LIG A   1      -5.883  -2.086 124.818  0.00  0.00    +0.043 C 
ATOM     28  C   LIG A   1      -7.014  -2.602 123.937  0.00  0.00    +0.052 C 
ATOM     29  C   LIG A   1      -8.406  -2.412 124.560  0.00  0.00    +0.108 C 
ATOM     30  O   LIG A   1      -8.467  -2.906 125.909  0.00  0.00    -0.485 OA
ATOM     31  C   LIG A   1      -9.394  -3.340 123.825  0.00  0.00    +0.056 C 
BRANCH  25  32
ATOM     32  O   LIG A   1      -4.232  -2.188 129.439  0.00  0.00    -0.426 OA
BRANCH  32  33
ATOM     33  C   LIG A   1      -4.187  -1.104 130.323  0.00  0.00    +0.309 C 
ATOM     34  O   LIG A   1      -4.004   0.075 130.052  0.00  0.00    -0.251 OA
ATOM     35  C   LIG A   1      -4.431  -1.594 131.717  0.00  0.00    +0.136 C 
ENDBRANCH  32  33
ENDBRANCH  25  32
ENDBRANCH  19  29
ENDBRANCH   1  19
TORSDOF 13
ENDMDL
MODEL 5
REMARK VINA RESULT:      -7.0      4.474      8.493
REMARK  Name = NuBBE_1639
REMARK  19 active torsions:
REMARK  status: ('A' for Active; 'I' for Inactive)
REMARK    1  A    between atoms: C_1  and  C_2
REMARK    2  A    between atoms: C_6  and  O_8
REMARK    3  A    between atoms: O_8  and  C_9
REMARK    4  A    between atoms: C_9  and  C_11
REMARK    5  A    between atoms: C_14  and  C_16
REMARK    6  A    between atoms: C_14  and  C_34
REMARK    7  A    between atoms: C_16  and  C_17
REMARK    8  A    between atoms: C_17  and  C_18
REMARK    9  A    between atoms: C_19  and  C_20
REMARK   10  A    between atoms: C_19  and  C_33
REMARK   11  A    between atoms: C_20  and  C_21
REMARK   12  A    between atoms: C_21  and  C_22
REMARK   13  A    between atoms: C_23  and  C_24
REMARK   14  A    between atoms: C_23  and  C_30
REMARK   15  A    between atoms: C_24  and  C_25
REMARK   16  A    between atoms: C_25  and  C_26
REMARK   17  A    between atoms: C_27  and  C_28
REMARK   18  A    between atoms: C_27  and  C_29
REMARK   19  A    between atoms: C_30  and  O_32
REMARK                            x       y       z     vdW  Elec       q    Type
REMARK                         _______ _______ _______ _____ _____    ______ ____
ROOT
ATOM      1  C   LIG A   1      -6.765   0.049 131.176  0.00  0.00    +0.031 C 
ENDROOT
BRANCH   1   2
ATOM      2  C   LIG A   1      -7.899   1.010 131.470  0.00  0.00    -0.028 C 
ATOM      3  C   LIG A   1      -8.675   1.650 130.566  0.00  0.00    -0.076 C 
ATOM      4  C   LIG A   1      -8.458   1.554 129.080  0.00  0.00    +0.038 C 
BRANCH   3   5
ATOM      5  C   LIG A   1      -9.767   2.630 130.985  0.00  0.00    +0.034 C 
BRANCH   5   6
ATOM      6  C   LIG A   1     -10.100   3.777 130.005  0.00  0.00    +0.032 C 
BRANCH   6   7
ATOM      7  C   LIG A   1     -11.043   4.815 130.578  0.00  0.00    -0.016 C 
ATOM      8  C   LIG A   1     -10.863   5.847 131.438  0.00  0.00    +0.033 C 
BRANCH   8   9
ATOM      9  C   LIG A   1      -9.579   6.244 132.081  0.00  0.00    +0.333 C 
ATOM     10  O   LIG A   1      -8.514   6.418 131.506  0.00  0.00    -0.245 OA
BRANCH   9  11
ATOM     11  O   LIG A   1      -9.667   6.376 133.415  0.00  0.00    -0.477 OA
ATOM     12  H   LIG A   1     -10.393   7.002 133.576  0.00  0.00    +0.295 HD
ENDBRANCH   9  11
ENDBRANCH   8   9
BRANCH   8  13
ATOM     13  C   LIG A   1     -12.031   6.731 131.845  0.00  0.00    +0.046 C 
BRANCH  13  14
ATOM     14  C   LIG A   1     -12.734   7.481 130.702  0.00  0.00    +0.032 C 
BRANCH  14  15
ATOM     15  C   LIG A   1     -11.798   7.974 129.648  0.00  0.00    -0.028 C 
ATOM     16  C   LIG A   1     -11.916   7.741 128.325  0.00  0.00    -0.080 C 
ATOM     17  C   LIG A   1     -13.037   6.967 127.682  0.00  0.00    +0.038 C 
ATOM     18  C   LIG A   1     -10.876   8.263 127.373  0.00  0.00    +0.038 C 
ENDBRANCH  14  15
ENDBRANCH  13  14
ENDBRANCH   8  13
ENDBRANCH   6   7
ENDBRANCH   5   6
ENDBRANCH   3   5
ENDBRANCH   1   2
BRANCH   1  19
ATOM     19  C   LIG A   1      -7.203  -1.425 131.178  0.00  0.00    +0.051 C 
BRANCH  19  29
ATOM     20  C   LIG A   1      -5.330   0.084 127.012  0.00  0.00    +0.048 C 
ATOM     21  C   LIG A   1      -6.513  -0.840 126.941  0.00  0.00    -0.005 A 
ATOM     22  C   LIG A   1      -6.806  -1.734 127.983  0.00  0.00    +0.128 A 
ATOM     23  C   LIG A   1      -7.864  -2.638 127.870  0.00  0.00    -0.002 A 
ATOM     24  C   LIG A   1      -8.682  -2.592 126.725  0.00  0.00    +0.053 A 
ATOM     25  C   LIG A   1      -8.414  -1.675 125.704  0.00  0.00    +0.132 A 
ATOM     26  C   LIG A   1      -7.320  -0.823 125.800  0.00  0.00    +0.053 A 
ATOM     27  C   LIG A   1      -8.154  -3.620 128.965  0.00  0.00    +0.043 C 
ATOM     28  C   LIG A   1      -7.007  -3.718 129.963  0.00  0.00    +0.052 C 
ATOM     29  C   LIG A   1      -6.349  -2.364 130.272  0.00  0.00    +0.108 C 
ATOM     30  O   LIG A   1      -5.999  -1.648 129.076  0.00  0.00    -0.485 OA
ATOM     31  C   LIG A   1      -4.972  -2.631 130.910  0.00  0.00    +0.056 C 
BRANCH  25  32
ATOM     32  O   LIG A   1      -9.342  -1.642 124.633  0.00  0.00    -0.426 OA
BRANCH  32  33
ATOM     33  C   LIG A   1      -9.326  -2.510 123.535  0.00  0.00    +0.309 C 
ATOM     34  O   LIG A   1     -10.023  -3.499 123.353  0.00  0.00    -0.251 OA
ATOM     35  C   LIG A   1      -8.308  -2.035 122.545  0.00  0.00    +0.136 C 
ENDBRANCH  32  33
ENDBRANCH  25  32
ENDBRANCH  19  29
ENDBRANCH   1  19
TORSDOF 13
ENDMDL
MODEL 6
REMARK VINA RESULT:      -7.0      5.130      9.053
REMARK  Name = NuBBE_1639
REMARK  19 active torsions:
REMARK  status: ('A' for Active; 'I' for Inactive)
REMARK    1  A    between atoms: C_1  and  C_2
REMARK    2  A    between atoms: C_6  and  O_8
REMARK    3  A    between atoms: O_8  and  C_9
REMARK    4  A    between atoms: C_9  and  C_11
REMARK    5  A    between atoms: C_14  and  C_16
REMARK    6  A    between atoms: C_14  and  C_34
REMARK    7  A    between atoms: C_16  and  C_17
REMARK    8  A    between atoms: C_17  and  C_18
REMARK    9  A    between atoms: C_19  and  C_20
REMARK   10  A    between atoms: C_19  and  C_33
REMARK   11  A    between atoms: C_20  and  C_21
REMARK   12  A    between atoms: C_21  and  C_22
REMARK   13  A    between atoms: C_23  and  C_24
REMARK   14  A    between atoms: C_23  and  C_30
REMARK   15  A    between atoms: C_24  and  C_25
REMARK   16  A    between atoms: C_25  and  C_26
REMARK   17  A    between atoms: C_27  and  C_28
REMARK   18  A    between atoms: C_27  and  C_29
REMARK   19  A    between atoms: C_30  and  O_32
REMARK                            x       y       z     vdW  Elec       q    Type
REMARK                         _______ _______ _______ _____ _____    ______ ____
ROOT
ATOM      1  C   LIG A   1      -9.232  -0.222 125.862  0.00  0.00    +0.031 C 
ENDROOT
BRANCH   1   2
ATOM      2  C   LIG A   1      -8.893   1.156 126.393  0.00  0.00    -0.028 C 
ATOM      3  C   LIG A   1      -8.278   1.446 127.563  0.00  0.00    -0.076 C 
ATOM      4  C   LIG A   1      -7.899   0.400 128.576  0.00  0.00    +0.038 C 
BRANCH   3   5
ATOM      5  C   LIG A   1      -8.025   2.882 128.010  0.00  0.00    +0.034 C 
BRANCH   5   6
ATOM      6  C   LIG A   1      -7.648   3.104 129.492  0.00  0.00    +0.032 C 
BRANCH   6   7
ATOM      7  C   LIG A   1      -8.110   4.436 130.047  0.00  0.00    -0.016 C 
ATOM      8  C   LIG A   1      -9.312   4.884 130.482  0.00  0.00    +0.033 C 
BRANCH   8   9
ATOM      9  C   LIG A   1     -10.581   4.104 130.524  0.00  0.00    +0.333 C 
ATOM     10  O   LIG A   1     -11.598   4.357 129.894  0.00  0.00    -0.245 OA
BRANCH   9  11
ATOM     11  O   LIG A   1     -10.542   3.064 131.373  0.00  0.00    -0.477 OA
ATOM     12  H   LIG A   1     -10.947   3.376 132.199  0.00  0.00    +0.295 HD
ENDBRANCH   9  11
ENDBRANCH   8   9
BRANCH   8  13
ATOM     13  C   LIG A   1      -9.474   6.310 130.985  0.00  0.00    +0.046 C 
BRANCH  13  14
ATOM     14  C   LIG A   1      -9.575   7.396 129.903  0.00  0.00    +0.032 C 
BRANCH  14  15
ATOM     15  C   LIG A   1     -10.979   7.795 129.589  0.00  0.00    -0.028 C 
ATOM     16  C   LIG A   1     -11.522   7.849 128.356  0.00  0.00    -0.080 C 
ATOM     17  C   LIG A   1     -10.806   7.480 127.082  0.00  0.00    +0.038 C 
ATOM     18  C   LIG A   1     -12.941   8.311 128.176  0.00  0.00    +0.038 C 
ENDBRANCH  14  15
ENDBRANCH  13  14
ENDBRANCH   8  13
ENDBRANCH   6   7
ENDBRANCH   5   6
ENDBRANCH   3   5
ENDBRANCH   1   2
BRANCH   1  19
ATOM     19  C   LIG A   1      -8.554  -0.537 124.518  0.00  0.00    +0.051 C 
BRANCH  19  29
ATOM     20  C   LIG A   1      -9.336  -3.885 127.883  0.00  0.00    +0.048 C 
ATOM     21  C   LIG A   1      -7.972  -3.254 127.841  0.00  0.00    -0.005 A 
ATOM     22  C   LIG A   1      -7.459  -2.700 126.659  0.00  0.00    +0.128 A 
ATOM     23  C   LIG A   1      -6.161  -2.186 126.617  0.00  0.00    -0.002 A 
ATOM     24  C   LIG A   1      -5.398  -2.163 127.799  0.00  0.00    +0.053 A 
ATOM     25  C   LIG A   1      -5.923  -2.680 128.987  0.00  0.00    +0.132 A 
ATOM     26  C   LIG A   1      -7.193  -3.246 129.002  0.00  0.00    +0.053 A 
ATOM     27  C   LIG A   1      -5.598  -1.629 125.344  0.00  0.00    +0.043 C 
ATOM     28  C   LIG A   1      -6.441  -2.005 124.132  0.00  0.00    +0.052 C 
ATOM     29  C   LIG A   1      -7.953  -1.971 124.406  0.00  0.00    +0.108 C 
ATOM     30  O   LIG A   1      -8.304  -2.706 125.591  0.00  0.00    -0.485 OA
ATOM     31  C   LIG A   1      -8.662  -2.774 123.299  0.00  0.00    +0.056 C 
BRANCH  25  32
ATOM     32  O   LIG A   1      -5.117  -2.533 130.144  0.00  0.00    -0.426 OA
BRANCH  32  33
ATOM     33  C   LIG A   1      -4.207  -3.490 130.610  0.00  0.00    +0.309 C 
ATOM     34  O   LIG A   1      -3.004  -3.544 130.394  0.00  0.00    -0.251 OA
ATOM     35  C   LIG A   1      -4.928  -4.479 131.472  0.00  0.00    +0.136 C 
ENDBRANCH  32  33
ENDBRANCH  25  32
ENDBRANCH  19  29
ENDBRANCH   1  19
TORSDOF 13
ENDMDL
MODEL 7
REMARK VINA RESULT:      -6.9      3.114      5.799
REMARK  Name = NuBBE_1639
REMARK  19 active torsions:
REMARK  status: ('A' for Active; 'I' for Inactive)
REMARK    1  A    between atoms: C_1  and  C_2
REMARK    2  A    between atoms: C_6  and  O_8
REMARK    3  A    between atoms: O_8  and  C_9
REMARK    4  A    between atoms: C_9  and  C_11
REMARK    5  A    between atoms: C_14  and  C_16
REMARK    6  A    between atoms: C_14  and  C_34
REMARK    7  A    between atoms: C_16  and  C_17
REMARK    8  A    between atoms: C_17  and  C_18
REMARK    9  A    between atoms: C_19  and  C_20
REMARK   10  A    between atoms: C_19  and  C_33
REMARK   11  A    between atoms: C_20  and  C_21
REMARK   12  A    between atoms: C_21  and  C_22
REMARK   13  A    between atoms: C_23  and  C_24
REMARK   14  A    between atoms: C_23  and  C_30
REMARK   15  A    between atoms: C_24  and  C_25
REMARK   16  A    between atoms: C_25  and  C_26
REMARK   17  A    between atoms: C_27  and  C_28
REMARK   18  A    between atoms: C_27  and  C_29
REMARK   19  A    between atoms: C_30  and  O_32
REMARK                            x       y       z     vdW  Elec       q    Type
REMARK                         _______ _______ _______ _____ _____    ______ ____
ROOT
ATOM      1  C   LIG A   1      -7.543   0.343 128.655  0.00  0.00    +0.031 C 
ENDROOT
BRANCH   1   2
ATOM      2  C   LIG A   1      -8.106   0.883 127.356  0.00  0.00    -0.028 C 
ATOM      3  C   LIG A   1      -8.657   0.165 126.350  0.00  0.00    -0.076 C 
ATOM      4  C   LIG A   1      -8.718  -1.338 126.349  0.00  0.00    +0.038 C 
BRANCH   3   5
ATOM      5  C   LIG A   1      -9.156   0.822 125.067  0.00  0.00    +0.034 C 
BRANCH   5   6
ATOM      6  C   LIG A   1      -9.030   2.359 124.965  0.00  0.00    +0.032 C 
BRANCH   6   7
ATOM      7  C   LIG A   1      -7.886   2.821 124.086  0.00  0.00    -0.016 C 
ATOM      8  C   LIG A   1      -7.019   3.858 124.176  0.00  0.00    +0.033 C 
BRANCH   8   9
ATOM      9  C   LIG A   1      -6.979   4.883 125.255  0.00  0.00    +0.333 C 
ATOM     10  O   LIG A   1      -6.039   5.092 126.011  0.00  0.00    -0.245 OA
BRANCH   9  11
ATOM     11  O   LIG A   1      -8.120   5.582 125.373  0.00  0.00    -0.477 OA
ATOM     12  H   LIG A   1      -7.944   6.276 126.030  0.00  0.00    +0.295 HD
ENDBRANCH   9  11
ENDBRANCH   8   9
BRANCH   8  13
ATOM     13  C   LIG A   1      -5.956   4.076 123.110  0.00  0.00    +0.046 C 
BRANCH  13  14
ATOM     14  C   LIG A   1      -5.974   3.087 121.934  0.00  0.00    +0.032 C 
BRANCH  14  15
ATOM     15  C   LIG A   1      -6.106   3.747 120.601  0.00  0.00    -0.028 C 
ATOM     16  C   LIG A   1      -7.268   4.054 119.990  0.00  0.00    -0.080 C 
ATOM     17  C   LIG A   1      -8.637   3.808 120.569  0.00  0.00    +0.038 C 
ATOM     18  C   LIG A   1      -7.258   4.682 118.625  0.00  0.00    +0.038 C 
ENDBRANCH  14  15
ENDBRANCH  13  14
ENDBRANCH   8  13
ENDBRANCH   6   7
ENDBRANCH   5   6
ENDBRANCH   3   5
ENDBRANCH   1   2
BRANCH   1  19
ATOM     19  C   LIG A   1      -8.068   1.083 129.897  0.00  0.00    +0.051 C 
BRANCH  19  29
ATOM     20  C   LIG A   1      -9.238   3.744 133.730  0.00  0.00    +0.048 C 
ATOM     21  C   LIG A   1      -9.300   4.410 132.383  0.00  0.00    -0.005 A 
ATOM     22  C   LIG A   1      -8.519   3.958 131.308  0.00  0.00    +0.128 A 
ATOM     23  C   LIG A   1      -8.531   4.633 130.086  0.00  0.00    -0.002 A 
ATOM     24  C   LIG A   1      -9.394   5.732 129.922  0.00  0.00    +0.053 A 
ATOM     25  C   LIG A   1     -10.201   6.159 130.980  0.00  0.00    +0.132 A 
ATOM     26  C   LIG A   1     -10.135   5.518 132.212  0.00  0.00    +0.053 A 
ATOM     27  C   LIG A   1      -7.668   4.175 128.949  0.00  0.00    +0.043 C 
ATOM     28  C   LIG A   1      -6.607   3.179 129.401  0.00  0.00    +0.052 C 
ATOM     29  C   LIG A   1      -7.115   2.183 130.456  0.00  0.00    +0.108 C 
ATOM     30  O   LIG A   1      -7.774   2.844 131.550  0.00  0.00    -0.485 OA
ATOM     31  C   LIG A   1      -5.893   1.546 131.146  0.00  0.00    +0.056 C 
BRANCH  25  32
ATOM     32  O   LIG A   1     -11.101   7.217 130.695  0.00  0.00    -0.426 OA
BRANCH  32  33
ATOM     33  C   LIG A   1     -12.496   7.096 130.677  0.00  0.00    +0.309 C 
ATOM     34  O   LIG A   1     -13.267   7.207 131.619  0.00  0.00    -0.251 OA
ATOM     35  C   LIG A   1     -12.950   6.824 129.276  0.00  0.00    +0.136 C 
ENDBRANCH  32  33
ENDBRANCH  25  32
ENDBRANCH  19  29
ENDBRANCH   1  19
TORSDOF 13
ENDMDL
MODEL 8
REMARK VINA RESULT:      -6.9      4.409      8.638
REMARK  Name = NuBBE_1639
REMARK  19 active torsions:
REMARK  status: ('A' for Active; 'I' for Inactive)
REMARK    1  A    between atoms: C_1  and  C_2
REMARK    2  A    between atoms: C_6  and  O_8
REMARK    3  A    between atoms: O_8  and  C_9
REMARK    4  A    between atoms: C_9  and  C_11
REMARK    5  A    between atoms: C_14  and  C_16
REMARK    6  A    between atoms: C_14  and  C_34
REMARK    7  A    between atoms: C_16  and  C_17
REMARK    8  A    between atoms: C_17  and  C_18
REMARK    9  A    between atoms: C_19  and  C_20
REMARK   10  A    between atoms: C_19  and  C_33
REMARK   11  A    between atoms: C_20  and  C_21
REMARK   12  A    between atoms: C_21  and  C_22
REMARK   13  A    between atoms: C_23  and  C_24
REMARK   14  A    between atoms: C_23  and  C_30
REMARK   15  A    between atoms: C_24  and  C_25
REMARK   16  A    between atoms: C_25  and  C_26
REMARK   17  A    between atoms: C_27  and  C_28
REMARK   18  A    between atoms: C_27  and  C_29
REMARK   19  A    between atoms: C_30  and  O_32
REMARK                            x       y       z     vdW  Elec       q    Type
REMARK                         _______ _______ _______ _____ _____    ______ ____
ROOT
ATOM      1  C   LIG A   1      -8.751  -3.273 127.084  0.00  0.00    +0.031 C 
ENDROOT
BRANCH   1   2
ATOM      2  C   LIG A   1      -8.371  -2.089 127.950  0.00  0.00    -0.028 C 
ATOM      3  C   LIG A   1      -7.761  -2.129 129.157  0.00  0.00    -0.076 C 
ATOM      4  C   LIG A   1      -7.433  -3.411 129.872  0.00  0.00    +0.038 C 
BRANCH   3   5
ATOM      5  C   LIG A   1      -7.463  -0.864 129.956  0.00  0.00    +0.034 C 
BRANCH   5   6
ATOM      6  C   LIG A   1      -8.047   0.463 129.420  0.00  0.00    +0.032 C 
BRANCH   6   7
ATOM      7  C   LIG A   1      -6.997   1.510 129.110  0.00  0.00    -0.016 C 
ATOM      8  C   LIG A   1      -7.020   2.865 129.115  0.00  0.00    +0.033 C 
BRANCH   8   9
ATOM      9  C   LIG A   1      -8.187   3.726 129.456  0.00  0.00    +0.333 C 
ATOM     10  O   LIG A   1      -8.877   4.347 128.659  0.00  0.00    -0.245 OA
BRANCH   9  11
ATOM     11  O   LIG A   1      -8.426   3.805 130.776  0.00  0.00    -0.477 OA
ATOM     12  H   LIG A   1      -7.949   4.591 131.088  0.00  0.00    +0.295 HD
ENDBRANCH   9  11
ENDBRANCH   8   9
BRANCH   8  13
ATOM     13  C   LIG A   1      -5.782   3.664 128.740  0.00  0.00    +0.046 C 
BRANCH  13  14
ATOM     14  C   LIG A   1      -4.446   3.119 129.271  0.00  0.00    +0.032 C 
BRANCH  14  15
ATOM     15  C   LIG A   1      -3.494   2.723 128.191  0.00  0.00    -0.028 C 
ATOM     16  C   LIG A   1      -2.629   3.549 127.567  0.00  0.00    -0.080 C 
ATOM     17  C   LIG A   1      -2.458   5.013 127.881  0.00  0.00    +0.038 C 
ATOM     18  C   LIG A   1      -1.752   3.028 126.464  0.00  0.00    +0.038 C 
ENDBRANCH  14  15
ENDBRANCH  13  14
ENDBRANCH   8  13
ENDBRANCH   6   7
ENDBRANCH   5   6
ENDBRANCH   3   5
ENDBRANCH   1   2
BRANCH   1  19
ATOM     19  C   LIG A   1      -9.248  -2.867 125.687  0.00  0.00    +0.051 C 
BRANCH  19  29
ATOM     20  C   LIG A   1      -5.178  -0.386 126.337  0.00  0.00    +0.048 C 
ATOM     21  C   LIG A   1      -6.204   0.203 125.409  0.00  0.00    -0.005 A 
ATOM     22  C   LIG A   1      -7.136  -0.606 124.742  0.00  0.00    +0.128 A 
ATOM     23  C   LIG A   1      -8.033  -0.054 123.826  0.00  0.00    -0.002 A 
ATOM     24  C   LIG A   1      -8.040   1.340 123.634  0.00  0.00    +0.053 A 
ATOM     25  C   LIG A   1      -7.137   2.152 124.328  0.00  0.00    +0.132 A 
ATOM     26  C   LIG A   1      -6.207   1.583 125.190  0.00  0.00    +0.053 A 
ATOM     27  C   LIG A   1      -9.003  -0.923 123.084  0.00  0.00    +0.043 C 
ATOM     28  C   LIG A   1      -8.651  -2.400 123.197  0.00  0.00    +0.052 C 
ATOM     29  C   LIG A   1      -8.141  -2.801 124.591  0.00  0.00    +0.108 C 
ATOM     30  O   LIG A   1      -7.093  -1.931 125.053  0.00  0.00    -0.485 OA
ATOM     31  C   LIG A   1      -7.415  -4.154 124.468  0.00  0.00    +0.056 C 
BRANCH  25  32
ATOM     32  O   LIG A   1      -7.278   3.550 124.137  0.00  0.00    -0.426 OA
BRANCH  32  33
ATOM     33  C   LIG A   1      -6.213   4.454 124.043  0.00  0.00    +0.309 C 
ATOM     34  O   LIG A   1      -5.510   4.681 123.068  0.00  0.00    -0.251 OA
ATOM     35  C   LIG A   1      -6.051   5.164 125.351  0.00  0.00    +0.136 C 
ENDBRANCH  32  33
ENDBRANCH  25  32
ENDBRANCH  19  29
ENDBRANCH   1  19
TORSDOF 13
ENDMDL
MODEL 9
REMARK VINA RESULT:      -6.8      4.530      6.049
REMARK  Name = NuBBE_1639
REMARK  19 active torsions:
REMARK  status: ('A' for Active; 'I' for Inactive)
REMARK    1  A    between atoms: C_1  and  C_2
REMARK    2  A    between atoms: C_6  and  O_8
REMARK    3  A    between atoms: O_8  and  C_9
REMARK    4  A    between atoms: C_9  and  C_11
REMARK    5  A    between atoms: C_14  and  C_16
REMARK    6  A    between atoms: C_14  and  C_34
REMARK    7  A    between atoms: C_16  and  C_17
REMARK    8  A    between atoms: C_17  and  C_18
REMARK    9  A    between atoms: C_19  and  C_20
REMARK   10  A    between atoms: C_19  and  C_33
REMARK   11  A    between atoms: C_20  and  C_21
REMARK   12  A    between atoms: C_21  and  C_22
REMARK   13  A    between atoms: C_23  and  C_24
REMARK   14  A    between atoms: C_23  and  C_30
REMARK   15  A    between atoms: C_24  and  C_25
REMARK   16  A    between atoms: C_25  and  C_26
REMARK   17  A    between atoms: C_27  and  C_28
REMARK   18  A    between atoms: C_27  and  C_29
REMARK   19  A    between atoms: C_30  and  O_32
REMARK                            x       y       z     vdW  Elec       q    Type
REMARK                         _______ _______ _______ _____ _____    ______ ____
ROOT
ATOM      1  C   LIG A   1      -7.672  -0.869 130.366  0.00  0.00    +0.031 C 
ENDROOT
BRANCH   1   2
ATOM      2  C   LIG A   1      -8.388  -1.882 129.495  0.00  0.00    -0.028 C 
ATOM      3  C   LIG A   1      -8.006  -3.156 129.251  0.00  0.00    -0.076 C 
ATOM      4  C   LIG A   1      -6.722  -3.745 129.770  0.00  0.00    +0.038 C 
BRANCH   3   5
ATOM      5  C   LIG A   1      -8.793  -4.073 128.319  0.00  0.00    +0.034 C 
BRANCH   5   6
ATOM      6  C   LIG A   1      -9.246  -3.481 126.965  0.00  0.00    +0.032 C 
BRANCH   6   7
ATOM      7  C   LIG A   1      -8.114  -3.270 125.981  0.00  0.00    -0.016 C 
ATOM      8  C   LIG A   1      -8.086  -2.916 124.674  0.00  0.00    +0.033 C 
BRANCH   8   9
ATOM      9  C   LIG A   1      -9.267  -2.622 123.815  0.00  0.00    +0.333 C 
ATOM     10  O   LIG A   1      -9.994  -3.452 123.288  0.00  0.00    -0.245 OA
BRANCH   9  11
ATOM     11  O   LIG A   1      -9.473  -1.309 123.619  0.00  0.00    -0.477 OA
ATOM     12  H   LIG A   1     -10.437  -1.188 123.601  0.00  0.00    +0.295 HD
ENDBRANCH   9  11
ENDBRANCH   8   9
BRANCH   8  13
ATOM     13  C   LIG A   1      -6.765  -2.790 123.932  0.00  0.00    +0.046 C 
BRANCH  13  14
ATOM     14  C   LIG A   1      -5.989  -1.483 124.161  0.00  0.00    +0.032 C 
BRANCH  14  15
ATOM     15  C   LIG A   1      -5.418  -1.361 125.535  0.00  0.00    -0.028 C 
ATOM     16  C   LIG A   1      -5.902  -0.575 126.519  0.00  0.00    -0.080 C 
ATOM     17  C   LIG A   1      -7.128   0.293 126.403  0.00  0.00    +0.038 C 
ATOM     18  C   LIG A   1      -5.204  -0.515 127.848  0.00  0.00    +0.038 C 
ENDBRANCH  14  15
ENDBRANCH  13  14
ENDBRANCH   8  13
ENDBRANCH   6   7
ENDBRANCH   5   6
ENDBRANCH   3   5
ENDBRANCH   1   2
BRANCH   1  19
ATOM     19  C   LIG A   1      -8.101   0.581 130.088  0.00  0.00    +0.051 C 
BRANCH  19  29
ATOM     20  C   LIG A   1      -9.022   3.595 133.722  0.00  0.00    +0.048 C 
ATOM     21  C   LIG A   1      -9.083   4.156 132.328  0.00  0.00    -0.005 A 
ATOM     22  C   LIG A   1      -8.357   3.579 131.275  0.00  0.00    +0.128 A 
ATOM     23  C   LIG A   1      -8.365   4.155 130.004  0.00  0.00    -0.002 A 
ATOM     24  C   LIG A   1      -9.170   5.285 129.772  0.00  0.00    +0.053 A 
ATOM     25  C   LIG A   1      -9.925   5.839 130.811  0.00  0.00    +0.132 A 
ATOM     26  C   LIG A   1      -9.860   5.293 132.088  0.00  0.00    +0.053 A 
ATOM     27  C   LIG A   1      -7.559   3.562 128.888  0.00  0.00    +0.043 C 
ATOM     28  C   LIG A   1      -6.542   2.546 129.394  0.00  0.00    +0.052 C 
ATOM     29  C   LIG A   1      -7.075   1.666 130.536  0.00  0.00    +0.108 C 
ATOM     30  O   LIG A   1      -7.668   2.447 131.588  0.00  0.00    -0.485 OA
ATOM     31  C   LIG A   1      -5.872   1.017 131.247  0.00  0.00    +0.056 C 
BRANCH  25  32
ATOM     32  O   LIG A   1     -10.773   6.920 130.463  0.00  0.00    -0.426 OA
BRANCH  32  33
ATOM     33  C   LIG A   1     -11.933   6.807 129.687  0.00  0.00    +0.309 C 
ATOM     34  O   LIG A   1     -12.378   5.802 129.151  0.00  0.00    -0.251 OA
ATOM     35  C   LIG A   1     -12.610   8.141 129.615  0.00  0.00    +0.136 C 
ENDBRANCH  32  33
ENDBRANCH  25  32
ENDBRANCH  19  29
ENDBRANCH   1  19
TORSDOF 13
ENDMDL
