MODEL 1
REMARK VINA RESULT:      -9.0      0.000      0.000
REMARK  Name = NuBBE_1520
REMARK  19 active torsions:
REMARK  status: ('A' for Active; 'I' for Inactive)
REMARK    1  A    between atoms: C_1  and  C_2
REMARK    2  A    between atoms: C_6  and  C_10
REMARK    3  A    between atoms: C_12  and  O_14
REMARK    4  A    between atoms: O_14  and  C_15
REMARK    5  A    between atoms: C_17  and  C_20
REMARK    6  A    between atoms: C_20  and  C_22
REMARK    7  A    between atoms: C_20  and  O_26
REMARK    8  A    between atoms: C_22  and  C_23
REMARK    9  A    between atoms: C_22  and  C_24
REMARK   10  A    between atoms: C_22  and  O_25
REMARK   11  A    between atoms: C_31  and  C_32
REMARK   12  A    between atoms: C_36  and  O_38
REMARK   13  A    between atoms: C_39  and  C_40
REMARK   14  A    between atoms: C_39  and  C_41
REMARK   15  A    between atoms: C_42  and  O_46
REMARK   16  A    between atoms: O_46  and  C_47
REMARK   17  A    between atoms: C_47  and  C_49
REMARK   18  A    between atoms: C_50  and  N_51
REMARK   19  A    between atoms: N_51  and  C_52
REMARK                            x       y       z     vdW  Elec       q    Type
REMARK                         _______ _______ _______ _____ _____    ______ ____
ROOT
ATOM      1  C   LIG A   1      -3.218   4.007 131.135  0.00  0.00    +0.014 C 
ATOM      2  C   LIG A   1      -3.559   5.013 129.987  0.00  0.00    +0.003 C 
ATOM      3  C   LIG A   1      -2.948   6.366 130.367  0.00  0.00    -0.015 C 
ATOM      4  C   LIG A   1      -3.636   7.086 131.489  0.00  0.00    -0.019 C 
ATOM      5  C   LIG A   1      -3.579   7.712 130.103  0.00  0.00    +0.016 C 
ATOM      6  C   LIG A   1      -2.573   7.281 132.579  0.00  0.00    +0.004 C 
ATOM      7  C   LIG A   1      -1.211   6.990 131.924  0.00  0.00    +0.005 C 
ATOM      8  C   LIG A   1      -1.448   6.417 130.534  0.00  0.00    +0.008 C 
ATOM      9  C   LIG A   1      -4.980   6.573 131.965  0.00  0.00    +0.008 C 
ATOM     10  C   LIG A   1      -5.856   5.968 130.860  0.00  0.00    +0.005 C 
ATOM     11  C   LIG A   1      -5.111   5.152 129.753  0.00  0.00    +0.004 C 
ATOM     12  C   LIG A   1      -5.808   3.801 129.322  0.00  0.00    -0.025 C 
ATOM     13  C   LIG A   1      -5.989   2.884 130.557  0.00  0.00    +0.012 C 
ATOM     14  C   LIG A   1      -5.011   3.172 128.108  0.00  0.00    +0.007 C 
ATOM     15  C   LIG A   1      -3.472   3.191 128.216  0.00  0.00    +0.036 C 
ATOM     16  C   LIG A   1      -2.891   4.513 128.681  0.00  0.00    +0.122 C 
ATOM     17  C   LIG A   1      -5.555   1.785 127.623  0.00  0.00    +0.006 C 
ATOM     18  C   LIG A   1      -5.277   0.630 128.617  0.00  0.00    +0.015 C 
ATOM     19  C   LIG A   1      -4.798   1.384 126.322  0.00  0.00    +0.015 C 
ATOM     20  C   LIG A   1      -7.075   1.931 127.273  0.00  0.00    +0.183 C 
ATOM     21  C   LIG A   1      -7.917   2.829 128.204  0.00  0.00    +0.046 C 
ATOM     22  C   LIG A   1      -7.223   4.089 128.737  0.00  0.00    +0.011 C 
ENDROOT
BRANCH   6  23
ATOM     23  C   LIG A   1      -2.741   8.565 133.411  0.00  0.00    +0.051 C 
ATOM     24  C   LIG A   1      -2.172   8.609 134.837  0.00  0.00    +0.254 C 
ATOM     25  O   LIG A   1      -1.637   9.923 135.037  0.00  0.00    -0.345 OA
ATOM     26  C   LIG A   1      -1.362  10.547 133.782  0.00  0.00    +0.153 C 
ATOM     27  C   LIG A   1      -2.282   9.872 132.780  0.00  0.00    +0.043 C 
BRANCH  24  28
ATOM     28  O   LIG A   1      -1.149   7.653 135.072  0.00  0.00    -0.354 OA
ATOM     29  C   LIG A   1      -0.846   7.516 136.459  0.00  0.00    +0.197 C 
ENDBRANCH  24  28
BRANCH  26  30
ATOM     30  C   LIG A   1       0.157  10.544 133.444  0.00  0.00    +0.174 C 
BRANCH  30  31
ATOM     31  C   LIG A   1       0.796  11.954 133.225  0.00  0.00    +0.089 C 
ATOM     32  C   LIG A   1       2.221  12.031 133.770  0.00  0.00    +0.044 C 
ATOM     33  C   LIG A   1       0.790  12.426 131.770  0.00  0.00    +0.044 C 
BRANCH  31  34
ATOM     34  O   LIG A   1       0.017  12.923 133.955  0.00  0.00    -0.387 OA
ATOM     35  H   LIG A   1      -0.311  12.459 134.751  0.00  0.00    +0.210 HD
ENDBRANCH  31  34
ENDBRANCH  30  31
BRANCH  30  36
ATOM     36  O   LIG A   1       0.929   9.882 134.453  0.00  0.00    -0.386 OA
ATOM     37  H   LIG A   1       1.774  10.371 134.527  0.00  0.00    +0.210 HD
ENDBRANCH  30  36
ENDBRANCH  26  30
ENDBRANCH   6  23
BRANCH  16  38
ATOM     38  O   LIG A   1      -2.972   5.466 127.615  0.00  0.00    -0.391 OA
ATOM     39  H   LIG A   1      -3.894   5.566 127.337  0.00  0.00    +0.210 HD
ENDBRANCH  16  38
BRANCH  20  40
ATOM     40  O   LIG A   1      -7.707   0.631 127.301  0.00  0.00    -0.457 OA
BRANCH  40  41
ATOM     41  C   LIG A   1      -8.371   0.197 126.204  0.00  0.00    +0.341 C 
ATOM     42  O   LIG A   1      -9.555   0.449 125.939  0.00  0.00    -0.245 OA
BRANCH  41  43
ATOM     43  C   LIG A   1      -7.486  -0.637 125.347  0.00  0.00    +0.080 A 
ATOM     44  C   LIG A   1      -7.351  -0.367 123.961  0.00  0.00    +0.041 A 
ATOM     45  C   LIG A   1      -6.510  -1.212 123.213  0.00  0.00    +0.024 A 
ATOM     46  C   LIG A   1      -5.860  -2.307 123.792  0.00  0.00    +0.002 A 
ATOM     47  C   LIG A   1      -6.010  -2.570 125.147  0.00  0.00    +0.001 A 
ATOM     48  C   LIG A   1      -6.812  -1.736 125.922  0.00  0.00    +0.017 A 
BRANCH  44  49
ATOM     49  N   LIG A   1      -7.917   0.779 123.369  0.00  0.00    -0.346 N 
ATOM     50  C   LIG A   1      -7.093   1.965 123.203  0.00  0.00    +0.125 C 
ATOM     51  H   LIG A   1      -8.428   0.537 122.511  0.00  0.00    +0.146 HD
ENDBRANCH  44  49
ENDBRANCH  41  43
ENDBRANCH  40  41
ENDBRANCH  20  40
TORSDOF 11
ENDMDL
MODEL 2
REMARK VINA RESULT:      -8.9      4.102      5.335
REMARK  Name = NuBBE_1520
REMARK  19 active torsions:
REMARK  status: ('A' for Active; 'I' for Inactive)
REMARK    1  A    between atoms: C_1  and  C_2
REMARK    2  A    between atoms: C_6  and  C_10
REMARK    3  A    between atoms: C_12  and  O_14
REMARK    4  A    between atoms: O_14  and  C_15
REMARK    5  A    between atoms: C_17  and  C_20
REMARK    6  A    between atoms: C_20  and  C_22
REMARK    7  A    between atoms: C_20  and  O_26
REMARK    8  A    between atoms: C_22  and  C_23
REMARK    9  A    between atoms: C_22  and  C_24
REMARK   10  A    between atoms: C_22  and  O_25
REMARK   11  A    between atoms: C_31  and  C_32
REMARK   12  A    between atoms: C_36  and  O_38
REMARK   13  A    between atoms: C_39  and  C_40
REMARK   14  A    between atoms: C_39  and  C_41
REMARK   15  A    between atoms: C_42  and  O_46
REMARK   16  A    between atoms: O_46  and  C_47
REMARK   17  A    between atoms: C_47  and  C_49
REMARK   18  A    between atoms: C_50  and  N_51
REMARK   19  A    between atoms: N_51  and  C_52
REMARK                            x       y       z     vdW  Elec       q    Type
REMARK                         _______ _______ _______ _____ _____    ______ ____
ROOT
ATOM      1  C   LIG A   1      -6.206   3.240 130.867  0.00  0.00    +0.014 C 
ATOM      2  C   LIG A   1      -7.704   2.873 131.126  0.00  0.00    +0.003 C 
ATOM      3  C   LIG A   1      -8.196   3.745 132.286  0.00  0.00    -0.015 C 
ATOM      4  C   LIG A   1      -7.653   3.378 133.636  0.00  0.00    -0.019 C 
ATOM      5  C   LIG A   1      -9.150   3.299 133.368  0.00  0.00    +0.016 C 
ATOM      6  C   LIG A   1      -6.924   4.627 134.151  0.00  0.00    +0.004 C 
ATOM      7  C   LIG A   1      -7.361   5.796 133.250  0.00  0.00    +0.005 C 
ATOM      8  C   LIG A   1      -8.161   5.241 132.081  0.00  0.00    +0.008 C 
ATOM      9  C   LIG A   1      -6.904   2.070 133.786  0.00  0.00    +0.008 C 
ATOM     10  C   LIG A   1      -7.422   0.936 132.891  0.00  0.00    +0.005 C 
ATOM     11  C   LIG A   1      -7.900   1.346 131.459  0.00  0.00    +0.004 C 
ATOM     12  C   LIG A   1      -7.447   0.382 130.292  0.00  0.00    -0.025 C 
ATOM     13  C   LIG A   1      -5.902   0.268 130.271  0.00  0.00    +0.012 C 
ATOM     14  C   LIG A   1      -8.122   0.853 128.940  0.00  0.00    +0.007 C 
ATOM     15  C   LIG A   1      -8.120   2.372 128.668  0.00  0.00    +0.036 C 
ATOM     16  C   LIG A   1      -8.522   3.225 129.857  0.00  0.00    +0.122 C 
ATOM     17  C   LIG A   1      -7.700   0.023 127.680  0.00  0.00    +0.006 C 
ATOM     18  C   LIG A   1      -6.240   0.279 127.231  0.00  0.00    +0.015 C 
ATOM     19  C   LIG A   1      -8.575   0.478 126.474  0.00  0.00    +0.015 C 
ATOM     20  C   LIG A   1      -7.996  -1.491 127.948  0.00  0.00    +0.183 C 
ATOM     21  C   LIG A   1      -7.705  -2.012 129.372  0.00  0.00    +0.046 C 
ATOM     22  C   LIG A   1      -8.021  -1.049 130.522  0.00  0.00    +0.011 C 
ENDROOT
BRANCH   6  23
ATOM     23  C   LIG A   1      -6.967   4.805 135.679  0.00  0.00    +0.051 C 
ATOM     24  C   LIG A   1      -5.732   4.425 136.509  0.00  0.00    +0.254 C 
ATOM     25  O   LIG A   1      -5.608   5.399 137.552  0.00  0.00    -0.345 OA
ATOM     26  C   LIG A   1      -6.305   6.596 137.204  0.00  0.00    +0.153 C 
ATOM     27  C   LIG A   1      -7.374   6.172 136.211  0.00  0.00    +0.043 C 
BRANCH  24  28
ATOM     28  O   LIG A   1      -4.527   4.397 135.758  0.00  0.00    -0.354 OA
ATOM     29  C   LIG A   1      -3.899   3.117 135.792  0.00  0.00    +0.197 C 
ENDBRANCH  24  28
BRANCH  26  30
ATOM     30  C   LIG A   1      -5.339   7.727 136.745  0.00  0.00    +0.174 C 
BRANCH  30  31
ATOM     31  C   LIG A   1      -5.365   9.023 137.618  0.00  0.00    +0.089 C 
ATOM     32  C   LIG A   1      -4.426  10.099 137.078  0.00  0.00    +0.044 C 
ATOM     33  C   LIG A   1      -6.759   9.624 137.807  0.00  0.00    +0.044 C 
BRANCH  31  34
ATOM     34  O   LIG A   1      -4.900   8.687 138.942  0.00  0.00    -0.387 OA
ATOM     35  H   LIG A   1      -4.098   8.144 138.813  0.00  0.00    +0.210 HD
ENDBRANCH  31  34
ENDBRANCH  30  31
BRANCH  30  36
ATOM     36  O   LIG A   1      -3.979   7.279 136.691  0.00  0.00    -0.386 OA
ATOM     37  H   LIG A   1      -3.865   6.639 137.423  0.00  0.00    +0.210 HD
ENDBRANCH  30  36
ENDBRANCH  26  30
ENDBRANCH   6  23
BRANCH  16  38
ATOM     38  O   LIG A   1      -9.936   3.116 130.058  0.00  0.00    -0.391 OA
ATOM     39  H   LIG A   1     -10.221   3.764 130.719  0.00  0.00    +0.210 HD
ENDBRANCH  16  38
BRANCH  20  40
ATOM     40  O   LIG A   1      -7.200  -2.307 127.059  0.00  0.00    -0.457 OA
BRANCH  40  41
ATOM     41  C   LIG A   1      -7.802  -2.929 126.018  0.00  0.00    +0.341 C 
ATOM     42  O   LIG A   1      -8.832  -3.613 126.093  0.00  0.00    -0.245 OA
BRANCH  41  43
ATOM     43  C   LIG A   1      -7.055  -2.684 124.754  0.00  0.00    +0.080 A 
ATOM     44  C   LIG A   1      -7.706  -2.140 123.618  0.00  0.00    +0.041 A 
ATOM     45  C   LIG A   1      -6.937  -1.956 122.454  0.00  0.00    +0.024 A 
ATOM     46  C   LIG A   1      -5.591  -2.332 122.392  0.00  0.00    +0.002 A 
ATOM     47  C   LIG A   1      -4.967  -2.877 123.506  0.00  0.00    +0.001 A 
ATOM     48  C   LIG A   1      -5.692  -3.045 124.683  0.00  0.00    +0.017 A 
BRANCH  44  49
ATOM     49  N   LIG A   1      -9.031  -1.667 123.678  0.00  0.00    -0.346 N 
ATOM     50  C   LIG A   1      -9.382  -0.462 122.944  0.00  0.00    +0.125 C 
ATOM     51  H   LIG A   1      -9.703  -2.429 123.518  0.00  0.00    +0.146 HD
ENDBRANCH  44  49
ENDBRANCH  41  43
ENDBRANCH  40  41
ENDBRANCH  20  40
TORSDOF 11
ENDMDL
MODEL 3
REMARK VINA RESULT:      -8.7      1.991      2.693
REMARK  Name = NuBBE_1520
REMARK  19 active torsions:
REMARK  status: ('A' for Active; 'I' for Inactive)
REMARK    1  A    between atoms: C_1  and  C_2
REMARK    2  A    between atoms: C_6  and  C_10
REMARK    3  A    between atoms: C_12  and  O_14
REMARK    4  A    between atoms: O_14  and  C_15
REMARK    5  A    between atoms: C_17  and  C_20
REMARK    6  A    between atoms: C_20  and  C_22
REMARK    7  A    between atoms: C_20  and  O_26
REMARK    8  A    between atoms: C_22  and  C_23
REMARK    9  A    between atoms: C_22  and  C_24
REMARK   10  A    between atoms: C_22  and  O_25
REMARK   11  A    between atoms: C_31  and  C_32
REMARK   12  A    between atoms: C_36  and  O_38
REMARK   13  A    between atoms: C_39  and  C_40
REMARK   14  A    between atoms: C_39  and  C_41
REMARK   15  A    between atoms: C_42  and  O_46
REMARK   16  A    between atoms: O_46  and  C_47
REMARK   17  A    between atoms: C_47  and  C_49
REMARK   18  A    between atoms: C_50  and  N_51
REMARK   19  A    between atoms: N_51  and  C_52
REMARK                            x       y       z     vdW  Elec       q    Type
REMARK                         _______ _______ _______ _____ _____    ______ ____
ROOT
ATOM      1  C   LIG A   1      -3.499   3.769 130.078  0.00  0.00    +0.014 C 
ATOM      2  C   LIG A   1      -4.302   4.901 129.359  0.00  0.00    +0.003 C 
ATOM      3  C   LIG A   1      -3.767   6.241 129.875  0.00  0.00    -0.015 C 
ATOM      4  C   LIG A   1      -4.145   6.579 131.287  0.00  0.00    -0.019 C 
ATOM      5  C   LIG A   1      -4.604   7.469 130.141  0.00  0.00    +0.016 C 
ATOM      6  C   LIG A   1      -2.823   6.749 132.049  0.00  0.00    +0.004 C 
ATOM      7  C   LIG A   1      -1.713   6.856 130.987  0.00  0.00    +0.005 C 
ATOM      8  C   LIG A   1      -2.308   6.539 129.623  0.00  0.00    +0.008 C 
ATOM      9  C   LIG A   1      -5.199   5.738 131.978  0.00  0.00    +0.008 C 
ATOM     10  C   LIG A   1      -6.301   5.213 131.048  0.00  0.00    +0.005 C 
ATOM     11  C   LIG A   1      -5.853   4.790 129.611  0.00  0.00    +0.004 C 
ATOM     12  C   LIG A   1      -6.485   3.446 129.071  0.00  0.00    -0.025 C 
ATOM     13  C   LIG A   1      -6.157   2.283 130.040  0.00  0.00    +0.012 C 
ATOM     14  C   LIG A   1      -6.044   3.234 127.566  0.00  0.00    +0.007 C 
ATOM     15  C   LIG A   1      -4.563   3.521 127.240  0.00  0.00    +0.036 C 
ATOM     16  C   LIG A   1      -4.026   4.808 127.836  0.00  0.00    +0.122 C 
ATOM     17  C   LIG A   1      -6.546   1.895 126.925  0.00  0.00    +0.006 C 
ATOM     18  C   LIG A   1      -5.833   0.638 127.483  0.00  0.00    +0.015 C 
ATOM     19  C   LIG A   1      -6.196   1.913 125.407  0.00  0.00    +0.015 C 
ATOM     20  C   LIG A   1      -8.104   1.819 127.063  0.00  0.00    +0.183 C 
ATOM     21  C   LIG A   1      -8.709   2.339 128.384  0.00  0.00    +0.046 C 
ATOM     22  C   LIG A   1      -8.036   3.574 128.997  0.00  0.00    +0.011 C 
ENDROOT
BRANCH   6  23
ATOM     23  C   LIG A   1      -2.871   7.785 133.186  0.00  0.00    +0.051 C 
ATOM     24  C   LIG A   1      -3.026   7.296 134.634  0.00  0.00    +0.254 C 
ATOM     25  O   LIG A   1      -2.205   8.136 135.453  0.00  0.00    -0.345 OA
ATOM     26  C   LIG A   1      -1.194   8.768 134.666  0.00  0.00    +0.153 C 
ATOM     27  C   LIG A   1      -1.743   8.804 133.250  0.00  0.00    +0.043 C 
BRANCH  24  28
ATOM     28  O   LIG A   1      -2.638   5.944 134.823  0.00  0.00    -0.354 OA
ATOM     29  C   LIG A   1      -3.517   5.248 135.704  0.00  0.00    +0.197 C 
ENDBRANCH  24  28
BRANCH  26  30
ATOM     30  C   LIG A   1       0.201   8.103 134.855  0.00  0.00    +0.174 C 
BRANCH  30  31
ATOM     31  C   LIG A   1       0.545   7.677 136.318  0.00  0.00    +0.089 C 
ATOM     32  C   LIG A   1       1.961   7.118 136.437  0.00  0.00    +0.044 C 
ATOM     33  C   LIG A   1       0.355   8.786 137.355  0.00  0.00    +0.044 C 
BRANCH  31  34
ATOM     34  O   LIG A   1      -0.356   6.619 136.707  0.00  0.00    -0.387 OA
ATOM     35  H   LIG A   1       0.139   6.068 137.345  0.00  0.00    +0.210 HD
ENDBRANCH  31  34
ENDBRANCH  30  31
BRANCH  30  36
ATOM     36  O   LIG A   1       0.356   6.943 134.028  0.00  0.00    -0.386 OA
ATOM     37  H   LIG A   1      -0.116   7.130 133.190  0.00  0.00    +0.210 HD
ENDBRANCH  30  36
ENDBRANCH  26  30
ENDBRANCH   6  23
BRANCH  16  38
ATOM     38  O   LIG A   1      -4.552   5.922 127.106  0.00  0.00    -0.391 OA
ATOM     39  H   LIG A   1      -3.905   6.642 127.100  0.00  0.00    +0.210 HD
ENDBRANCH  16  38
BRANCH  20  40
ATOM     40  O   LIG A   1      -8.537   0.445 126.943  0.00  0.00    -0.457 OA
BRANCH  40  41
ATOM     41  C   LIG A   1      -9.205   0.058 125.831  0.00  0.00    +0.341 C 
ATOM     42  O   LIG A   1     -10.298   0.507 125.462  0.00  0.00    -0.245 OA
BRANCH  41  43
ATOM     43  C   LIG A   1      -8.447  -0.994 125.101  0.00  0.00    +0.080 A 
ATOM     44  C   LIG A   1      -7.988  -2.157 125.770  0.00  0.00    +0.041 A 
ATOM     45  C   LIG A   1      -7.262  -3.097 125.015  0.00  0.00    +0.024 A 
ATOM     46  C   LIG A   1      -6.958  -2.884 123.667  0.00  0.00    +0.002 A 
ATOM     47  C   LIG A   1      -7.400  -1.736 123.025  0.00  0.00    +0.001 A 
ATOM     48  C   LIG A   1      -8.146  -0.799 123.735  0.00  0.00    +0.017 A 
BRANCH  44  49
ATOM     49  N   LIG A   1      -8.356  -2.443 127.099  0.00  0.00    -0.346 N 
ATOM     50  C   LIG A   1      -8.840  -3.773 127.424  0.00  0.00    +0.125 C 
ATOM     51  H   LIG A   1      -7.637  -2.118 127.759  0.00  0.00    +0.146 HD
ENDBRANCH  44  49
ENDBRANCH  41  43
ENDBRANCH  40  41
ENDBRANCH  20  40
TORSDOF 11
ENDMDL
MODEL 4
REMARK VINA RESULT:      -8.5      5.124     12.691
REMARK  Name = NuBBE_1520
REMARK  19 active torsions:
REMARK  status: ('A' for Active; 'I' for Inactive)
REMARK    1  A    between atoms: C_1  and  C_2
REMARK    2  A    between atoms: C_6  and  C_10
REMARK    3  A    between atoms: C_12  and  O_14
REMARK    4  A    between atoms: O_14  and  C_15
REMARK    5  A    between atoms: C_17  and  C_20
REMARK    6  A    between atoms: C_20  and  C_22
REMARK    7  A    between atoms: C_20  and  O_26
REMARK    8  A    between atoms: C_22  and  C_23
REMARK    9  A    between atoms: C_22  and  C_24
REMARK   10  A    between atoms: C_22  and  O_25
REMARK   11  A    between atoms: C_31  and  C_32
REMARK   12  A    between atoms: C_36  and  O_38
REMARK   13  A    between atoms: C_39  and  C_40
REMARK   14  A    between atoms: C_39  and  C_41
REMARK   15  A    between atoms: C_42  and  O_46
REMARK   16  A    between atoms: O_46  and  C_47
REMARK   17  A    between atoms: C_47  and  C_49
REMARK   18  A    between atoms: C_50  and  N_51
REMARK   19  A    between atoms: N_51  and  C_52
REMARK                            x       y       z     vdW  Elec       q    Type
REMARK                         _______ _______ _______ _____ _____    ______ ____
ROOT
ATOM      1  C   LIG A   1      -5.998   3.705 130.193  0.00  0.00    +0.014 C 
ATOM      2  C   LIG A   1      -6.510   2.499 131.046  0.00  0.00    +0.003 C 
ATOM      3  C   LIG A   1      -6.850   1.363 130.076  0.00  0.00    -0.015 C 
ATOM      4  C   LIG A   1      -8.085   1.576 129.251  0.00  0.00    -0.019 C 
ATOM      5  C   LIG A   1      -8.010   0.408 130.225  0.00  0.00    +0.016 C 
ATOM      6  C   LIG A   1      -7.628   1.521 127.786  0.00  0.00    +0.004 C 
ATOM      7  C   LIG A   1      -6.208   0.926 127.788  0.00  0.00    +0.005 C 
ATOM      8  C   LIG A   1      -5.722   0.825 129.227  0.00  0.00    +0.008 C 
ATOM      9  C   LIG A   1      -9.009   2.721 129.609  0.00  0.00    +0.008 C 
ATOM     10  C   LIG A   1      -9.092   3.023 131.112  0.00  0.00    +0.005 C 
ATOM     11  C   LIG A   1      -7.763   2.872 131.923  0.00  0.00    +0.004 C 
ATOM     12  C   LIG A   1      -7.479   4.015 132.977  0.00  0.00    -0.025 C 
ATOM     13  C   LIG A   1      -7.457   5.392 132.267  0.00  0.00    +0.012 C 
ATOM     14  C   LIG A   1      -6.182   3.646 133.804  0.00  0.00    +0.007 C 
ATOM     15  C   LIG A   1      -4.990   3.091 132.996  0.00  0.00    +0.036 C 
ATOM     16  C   LIG A   1      -5.360   2.032 131.976  0.00  0.00    +0.122 C 
ATOM     17  C   LIG A   1      -5.741   4.734 134.842  0.00  0.00    +0.006 C 
ATOM     18  C   LIG A   1      -5.159   6.012 134.188  0.00  0.00    +0.015 C 
ATOM     19  C   LIG A   1      -4.576   4.157 135.699  0.00  0.00    +0.015 C 
ATOM     20  C   LIG A   1      -6.943   5.037 135.800  0.00  0.00    +0.183 C 
ATOM     21  C   LIG A   1      -8.347   5.076 135.160  0.00  0.00    +0.046 C 
ATOM     22  C   LIG A   1      -8.611   4.055 134.046  0.00  0.00    +0.011 C 
ENDROOT
BRANCH   6  23
ATOM     23  C   LIG A   1      -8.675   0.950 126.813  0.00  0.00    +0.051 C 
ATOM     24  C   LIG A   1      -8.926   1.672 125.481  0.00  0.00    +0.254 C 
ATOM     25  O   LIG A   1      -9.135   0.662 124.486  0.00  0.00    -0.345 OA
ATOM     26  C   LIG A   1      -8.576  -0.582 124.912  0.00  0.00    +0.153 C 
ATOM     27  C   LIG A   1      -8.545  -0.517 126.430  0.00  0.00    +0.043 C 
BRANCH  24  28
ATOM     28  O   LIG A   1      -7.852   2.506 125.074  0.00  0.00    -0.354 OA
ATOM     29  C   LIG A   1      -8.157   3.240 123.889  0.00  0.00    +0.197 C 
ENDBRANCH  24  28
BRANCH  26  30
ATOM     30  C   LIG A   1      -7.227  -0.895 124.201  0.00  0.00    +0.174 C 
BRANCH  30  31
ATOM     31  C   LIG A   1      -7.170  -2.264 123.449  0.00  0.00    +0.089 C 
ATOM     32  C   LIG A   1      -6.343  -3.302 124.204  0.00  0.00    +0.044 C 
ATOM     33  C   LIG A   1      -8.542  -2.856 123.123  0.00  0.00    +0.044 C 
BRANCH  31  34
ATOM     34  O   LIG A   1      -6.521  -2.056 122.178  0.00  0.00    -0.387 OA
ATOM     35  H   LIG A   1      -6.920  -2.704 121.564  0.00  0.00    +0.210 HD
ENDBRANCH  31  34
ENDBRANCH  30  31
BRANCH  30  36
ATOM     36  O   LIG A   1      -6.871   0.122 123.257  0.00  0.00    -0.386 OA
ATOM     37  H   LIG A   1      -6.776   0.955 123.764  0.00  0.00    +0.210 HD
ENDBRANCH  30  36
ENDBRANCH  26  30
ENDBRANCH   6  23
BRANCH  16  38
ATOM     38  O   LIG A   1      -5.656   0.806 132.654  0.00  0.00    -0.391 OA
ATOM     39  H   LIG A   1      -6.616   0.691 132.715  0.00  0.00    +0.210 HD
ENDBRANCH  16  38
BRANCH  20  40
ATOM     40  O   LIG A   1      -6.756   6.328 136.423  0.00  0.00    -0.457 OA
BRANCH  40  41
ATOM     41  C   LIG A   1      -6.952   6.452 137.756  0.00  0.00    +0.341 C 
ATOM     42  O   LIG A   1      -6.489   5.695 138.620  0.00  0.00    -0.245 OA
BRANCH  41  43
ATOM     43  C   LIG A   1      -7.809   7.631 138.055  0.00  0.00    +0.080 A 
ATOM     44  C   LIG A   1      -7.529   8.473 139.161  0.00  0.00    +0.041 A 
ATOM     45  C   LIG A   1      -8.397   9.556 139.390  0.00  0.00    +0.024 A 
ATOM     46  C   LIG A   1      -9.523   9.781 138.591  0.00  0.00    +0.002 A 
ATOM     47  C   LIG A   1      -9.796   8.943 137.519  0.00  0.00    +0.001 A 
ATOM     48  C   LIG A   1      -8.941   7.878 137.247  0.00  0.00    +0.017 A 
BRANCH  44  49
ATOM     49  N   LIG A   1      -6.355   8.328 139.925  0.00  0.00    -0.346 N 
ATOM     50  C   LIG A   1      -6.463   8.234 141.371  0.00  0.00    +0.125 C 
ATOM     51  H   LIG A   1      -5.746   7.598 139.533  0.00  0.00    +0.146 HD
ENDBRANCH  44  49
ENDBRANCH  41  43
ENDBRANCH  40  41
ENDBRANCH  20  40
TORSDOF 11
ENDMDL
MODEL 5
REMARK VINA RESULT:      -8.0      2.954     12.340
REMARK  Name = NuBBE_1520
REMARK  19 active torsions:
REMARK  status: ('A' for Active; 'I' for Inactive)
REMARK    1  A    between atoms: C_1  and  C_2
REMARK    2  A    between atoms: C_6  and  C_10
REMARK    3  A    between atoms: C_12  and  O_14
REMARK    4  A    between atoms: O_14  and  C_15
REMARK    5  A    between atoms: C_17  and  C_20
REMARK    6  A    between atoms: C_20  and  C_22
REMARK    7  A    between atoms: C_20  and  O_26
REMARK    8  A    between atoms: C_22  and  C_23
REMARK    9  A    between atoms: C_22  and  C_24
REMARK   10  A    between atoms: C_22  and  O_25
REMARK   11  A    between atoms: C_31  and  C_32
REMARK   12  A    between atoms: C_36  and  O_38
REMARK   13  A    between atoms: C_39  and  C_40
REMARK   14  A    between atoms: C_39  and  C_41
REMARK   15  A    between atoms: C_42  and  O_46
REMARK   16  A    between atoms: O_46  and  C_47
REMARK   17  A    between atoms: C_47  and  C_49
REMARK   18  A    between atoms: C_50  and  N_51
REMARK   19  A    between atoms: N_51  and  C_52
REMARK                            x       y       z     vdW  Elec       q    Type
REMARK                         _______ _______ _______ _____ _____    ______ ____
ROOT
ATOM      1  C   LIG A   1      -5.698   2.330 130.227  0.00  0.00    +0.014 C 
ATOM      2  C   LIG A   1      -6.394   3.689 129.890  0.00  0.00    +0.003 C 
ATOM      3  C   LIG A   1      -7.448   3.409 128.813  0.00  0.00    -0.015 C 
ATOM      4  C   LIG A   1      -6.903   3.107 127.449  0.00  0.00    -0.019 C 
ATOM      5  C   LIG A   1      -7.786   4.329 127.664  0.00  0.00    +0.016 C 
ATOM      6  C   LIG A   1      -7.422   1.708 127.087  0.00  0.00    +0.004 C 
ATOM      7  C   LIG A   1      -8.541   1.380 128.092  0.00  0.00    +0.005 C 
ATOM      8  C   LIG A   1      -8.558   2.450 129.174  0.00  0.00    +0.008 C 
ATOM      9  C   LIG A   1      -5.432   3.352 127.184  0.00  0.00    +0.008 C 
ATOM     10  C   LIG A   1      -4.841   4.549 127.942  0.00  0.00    +0.005 C 
ATOM     11  C   LIG A   1      -5.373   4.781 129.394  0.00  0.00    +0.004 C 
ATOM     12  C   LIG A   1      -4.273   5.150 130.468  0.00  0.00    -0.025 C 
ATOM     13  C   LIG A   1      -3.194   4.039 130.520  0.00  0.00    +0.012 C 
ATOM     14  C   LIG A   1      -4.983   5.486 131.841  0.00  0.00    +0.007 C 
ATOM     15  C   LIG A   1      -6.127   4.543 132.270  0.00  0.00    +0.036 C 
ATOM     16  C   LIG A   1      -7.110   4.205 131.165  0.00  0.00    +0.122 C 
ATOM     17  C   LIG A   1      -4.000   5.802 133.020  0.00  0.00    +0.006 C 
ATOM     18  C   LIG A   1      -3.231   4.560 133.534  0.00  0.00    +0.015 C 
ATOM     19  C   LIG A   1      -4.834   6.290 134.241  0.00  0.00    +0.015 C 
ATOM     20  C   LIG A   1      -3.048   6.968 132.587  0.00  0.00    +0.183 C 
ATOM     21  C   LIG A   1      -2.551   6.951 131.126  0.00  0.00    +0.046 C 
ATOM     22  C   LIG A   1      -3.562   6.479 130.073  0.00  0.00    +0.011 C 
ENDROOT
BRANCH   6  23
ATOM     23  C   LIG A   1      -7.681   1.493 125.585  0.00  0.00    +0.051 C 
ATOM     24  C   LIG A   1      -6.712   0.614 124.781  0.00  0.00    +0.254 C 
ATOM     25  O   LIG A   1      -7.498  -0.139 123.850  0.00  0.00    -0.345 OA
ATOM     26  C   LIG A   1      -8.857  -0.210 124.287  0.00  0.00    +0.153 C 
ATOM     27  C   LIG A   1      -9.063   1.003 125.178  0.00  0.00    +0.043 C 
BRANCH  24  28
ATOM     28  O   LIG A   1      -5.957  -0.283 125.582  0.00  0.00    -0.354 OA
ATOM     29  C   LIG A   1      -5.397  -1.349 124.818  0.00  0.00    +0.197 C 
ENDBRANCH  24  28
BRANCH  26  30
ATOM     30  C   LIG A   1      -9.205  -1.595 124.906  0.00  0.00    +0.174 C 
BRANCH  30  31
ATOM     31  C   LIG A   1      -8.920  -2.828 123.988  0.00  0.00    +0.089 C 
ATOM     32  C   LIG A   1      -8.289  -2.422 122.658  0.00  0.00    +0.044 C 
ATOM     33  C   LIG A   1      -8.058  -3.910 124.642  0.00  0.00    +0.044 C 
BRANCH  31  34
ATOM     34  O   LIG A   1     -10.177  -3.463 123.678  0.00  0.00    -0.387 OA
ATOM     35  H   LIG A   1     -10.773  -3.256 124.425  0.00  0.00    +0.210 HD
ENDBRANCH  31  34
ENDBRANCH  30  31
BRANCH  30  36
ATOM     36  O   LIG A   1      -8.512  -1.818 126.140  0.00  0.00    -0.386 OA
ATOM     37  H   LIG A   1      -7.643  -1.373 126.059  0.00  0.00    +0.210 HD
ENDBRANCH  30  36
ENDBRANCH  26  30
ENDBRANCH   6  23
BRANCH  16  38
ATOM     38  O   LIG A   1      -7.946   5.340 130.913  0.00  0.00    -0.391 OA
ATOM     39  H   LIG A   1      -7.932   5.931 131.680  0.00  0.00    +0.210 HD
ENDBRANCH  16  38
BRANCH  20  40
ATOM     40  O   LIG A   1      -1.859   6.956 133.409  0.00  0.00    -0.457 OA
BRANCH  40  41
ATOM     41  C   LIG A   1      -1.164   8.104 133.583  0.00  0.00    +0.341 C 
ATOM     42  O   LIG A   1      -0.051   8.347 133.098  0.00  0.00    -0.245 OA
BRANCH  41  43
ATOM     43  C   LIG A   1      -1.920   9.051 134.447  0.00  0.00    +0.080 A 
ATOM     44  C   LIG A   1      -2.144  10.390 134.037  0.00  0.00    +0.041 A 
ATOM     45  C   LIG A   1      -2.850  11.230 134.918  0.00  0.00    +0.024 A 
ATOM     46  C   LIG A   1      -3.282  10.788 136.173  0.00  0.00    +0.002 A 
ATOM     47  C   LIG A   1      -3.045   9.479 136.570  0.00  0.00    +0.001 A 
ATOM     48  C   LIG A   1      -2.375   8.613 135.710  0.00  0.00    +0.017 A 
BRANCH  44  49
ATOM     49  N   LIG A   1      -1.805  10.838 132.745  0.00  0.00    -0.346 N 
ATOM     50  C   LIG A   1      -0.786  11.864 132.601  0.00  0.00    +0.125 C 
ATOM     51  H   LIG A   1      -1.651  10.045 132.109  0.00  0.00    +0.146 HD
ENDBRANCH  44  49
ENDBRANCH  41  43
ENDBRANCH  40  41
ENDBRANCH  20  40
TORSDOF 11
ENDMDL
MODEL 6
REMARK VINA RESULT:      -8.0      6.030     10.824
REMARK  Name = NuBBE_1520
REMARK  19 active torsions:
REMARK  status: ('A' for Active; 'I' for Inactive)
REMARK    1  A    between atoms: C_1  and  C_2
REMARK    2  A    between atoms: C_6  and  C_10
REMARK    3  A    between atoms: C_12  and  O_14
REMARK    4  A    between atoms: O_14  and  C_15
REMARK    5  A    between atoms: C_17  and  C_20
REMARK    6  A    between atoms: C_20  and  C_22
REMARK    7  A    between atoms: C_20  and  O_26
REMARK    8  A    between atoms: C_22  and  C_23
REMARK    9  A    between atoms: C_22  and  C_24
REMARK   10  A    between atoms: C_22  and  O_25
REMARK   11  A    between atoms: C_31  and  C_32
REMARK   12  A    between atoms: C_36  and  O_38
REMARK   13  A    between atoms: C_39  and  C_40
REMARK   14  A    between atoms: C_39  and  C_41
REMARK   15  A    between atoms: C_42  and  O_46
REMARK   16  A    between atoms: O_46  and  C_47
REMARK   17  A    between atoms: C_47  and  C_49
REMARK   18  A    between atoms: C_50  and  N_51
REMARK   19  A    between atoms: N_51  and  C_52
REMARK                            x       y       z     vdW  Elec       q    Type
REMARK                         _______ _______ _______ _____ _____    ______ ____
ROOT
ATOM      1  C   LIG A   1      -5.720  -0.524 129.567  0.00  0.00    +0.014 C 
ATOM      2  C   LIG A   1      -5.325   0.018 130.980  0.00  0.00    +0.003 C 
ATOM      3  C   LIG A   1      -4.630  -1.124 131.730  0.00  0.00    -0.015 C 
ATOM      4  C   LIG A   1      -5.531  -2.237 132.175  0.00  0.00    -0.019 C 
ATOM      5  C   LIG A   1      -4.772  -1.411 133.205  0.00  0.00    +0.016 C 
ATOM      6  C   LIG A   1      -4.991  -3.510 131.508  0.00  0.00    +0.004 C 
ATOM      7  C   LIG A   1      -3.586  -3.169 130.979  0.00  0.00    +0.005 C 
ATOM      8  C   LIG A   1      -3.360  -1.670 131.121  0.00  0.00    +0.008 C 
ATOM      9  C   LIG A   1      -7.030  -2.036 132.091  0.00  0.00    +0.008 C 
ATOM     10  C   LIG A   1      -7.492  -0.595 132.349  0.00  0.00    +0.005 C 
ATOM     11  C   LIG A   1      -6.569   0.538 131.793  0.00  0.00    +0.004 C 
ATOM     12  C   LIG A   1      -7.318   1.744 131.099  0.00  0.00    -0.025 C 
ATOM     13  C   LIG A   1      -8.192   1.219 129.932  0.00  0.00    +0.012 C 
ATOM     14  C   LIG A   1      -6.263   2.861 130.720  0.00  0.00    +0.007 C 
ATOM     15  C   LIG A   1      -4.942   2.369 130.092  0.00  0.00    +0.036 C 
ATOM     16  C   LIG A   1      -4.315   1.180 130.795  0.00  0.00    +0.122 C 
ATOM     17  C   LIG A   1      -6.864   4.089 129.956  0.00  0.00    +0.006 C 
ATOM     18  C   LIG A   1      -7.286   3.766 128.501  0.00  0.00    +0.015 C 
ATOM     19  C   LIG A   1      -5.755   5.175 129.818  0.00  0.00    +0.015 C 
ATOM     20  C   LIG A   1      -8.031   4.694 130.807  0.00  0.00    +0.183 C 
ATOM     21  C   LIG A   1      -8.949   3.691 131.536  0.00  0.00    +0.046 C 
ATOM     22  C   LIG A   1      -8.265   2.447 132.117  0.00  0.00    +0.011 C 
ENDROOT
BRANCH   6  23
ATOM     23  C   LIG A   1      -5.185  -4.794 132.334  0.00  0.00    +0.051 C 
ATOM     24  C   LIG A   1      -4.059  -5.254 133.273  0.00  0.00    +0.254 C 
ATOM     25  O   LIG A   1      -4.681  -5.773 134.454  0.00  0.00    -0.345 OA
ATOM     26  C   LIG A   1      -6.009  -5.263 134.586  0.00  0.00    +0.153 C 
ATOM     27  C   LIG A   1      -6.447  -4.898 133.177  0.00  0.00    +0.043 C 
BRANCH  24  28
ATOM     28  O   LIG A   1      -3.164  -4.215 133.640  0.00  0.00    -0.354 OA
ATOM     29  C   LIG A   1      -2.121  -4.678 134.495  0.00  0.00    +0.197 C 
ENDBRANCH  24  28
BRANCH  26  30
ATOM     30  C   LIG A   1      -6.104  -4.138 135.657  0.00  0.00    +0.174 C 
BRANCH  30  31
ATOM     31  C   LIG A   1      -7.539  -3.864 136.213  0.00  0.00    +0.089 C 
ATOM     32  C   LIG A   1      -8.442  -5.091 136.106  0.00  0.00    +0.044 C 
ATOM     33  C   LIG A   1      -7.565  -3.347 137.653  0.00  0.00    +0.044 C 
BRANCH  31  34
ATOM     34  O   LIG A   1      -8.145  -2.827 135.413  0.00  0.00    -0.387 OA
ATOM     35  H   LIG A   1      -7.943  -3.054 134.484  0.00  0.00    +0.210 HD
ENDBRANCH  31  34
ENDBRANCH  30  31
BRANCH  30  36
ATOM     36  O   LIG A   1      -5.257  -4.399 136.783  0.00  0.00    -0.386 OA
ATOM     37  H   LIG A   1      -5.799  -4.892 137.434  0.00  0.00    +0.210 HD
ENDBRANCH  30  36
ENDBRANCH  26  30
ENDBRANCH   6  23
BRANCH  16  38
ATOM     38  O   LIG A   1      -3.735   1.613 132.031  0.00  0.00    -0.391 OA
ATOM     39  H   LIG A   1      -3.076   2.301 131.857  0.00  0.00    +0.210 HD
ENDBRANCH  16  38
BRANCH  20  40
ATOM     40  O   LIG A   1      -8.898   5.477 129.955  0.00  0.00    -0.457 OA
BRANCH  40  41
ATOM     41  C   LIG A   1      -9.041   6.801 130.197  0.00  0.00    +0.341 C 
ATOM     42  O   LIG A   1      -8.110   7.610 130.316  0.00  0.00    -0.245 OA
BRANCH  41  43
ATOM     43  C   LIG A   1     -10.480   7.165 130.308  0.00  0.00    +0.080 A 
ATOM     44  C   LIG A   1     -11.093   8.005 129.344  0.00  0.00    +0.041 A 
ATOM     45  C   LIG A   1     -12.452   8.320 129.527  0.00  0.00    +0.024 A 
ATOM     46  C   LIG A   1     -13.172   7.865 130.638  0.00  0.00    +0.002 A 
ATOM     47  C   LIG A   1     -12.557   7.055 131.582  0.00  0.00    +0.001 A 
ATOM     48  C   LIG A   1     -11.221   6.701 131.416  0.00  0.00    +0.017 A 
BRANCH  44  49
ATOM     49  N   LIG A   1     -10.423   8.401 128.170  0.00  0.00    -0.346 N 
ATOM     50  C   LIG A   1     -10.890   7.898 126.889  0.00  0.00    +0.125 C 
ATOM     51  H   LIG A   1     -10.272   9.418 128.156  0.00  0.00    +0.146 HD
ENDBRANCH  44  49
ENDBRANCH  41  43
ENDBRANCH  40  41
ENDBRANCH  20  40
TORSDOF 11
ENDMDL
MODEL 7
REMARK VINA RESULT:      -7.9      7.072      9.306
REMARK  Name = NuBBE_1520
REMARK  19 active torsions:
REMARK  status: ('A' for Active; 'I' for Inactive)
REMARK    1  A    between atoms: C_1  and  C_2
REMARK    2  A    between atoms: C_6  and  C_10
REMARK    3  A    between atoms: C_12  and  O_14
REMARK    4  A    between atoms: O_14  and  C_15
REMARK    5  A    between atoms: C_17  and  C_20
REMARK    6  A    between atoms: C_20  and  C_22
REMARK    7  A    between atoms: C_20  and  O_26
REMARK    8  A    between atoms: C_22  and  C_23
REMARK    9  A    between atoms: C_22  and  C_24
REMARK   10  A    between atoms: C_22  and  O_25
REMARK   11  A    between atoms: C_31  and  C_32
REMARK   12  A    between atoms: C_36  and  O_38
REMARK   13  A    between atoms: C_39  and  C_40
REMARK   14  A    between atoms: C_39  and  C_41
REMARK   15  A    between atoms: C_42  and  O_46
REMARK   16  A    between atoms: O_46  and  C_47
REMARK   17  A    between atoms: C_47  and  C_49
REMARK   18  A    between atoms: C_50  and  N_51
REMARK   19  A    between atoms: N_51  and  C_52
REMARK                            x       y       z     vdW  Elec       q    Type
REMARK                         _______ _______ _______ _____ _____    ______ ____
ROOT
ATOM      1  C   LIG A   1      -3.179  -2.222 131.422  0.00  0.00    +0.014 C 
ATOM      2  C   LIG A   1      -4.414  -1.485 132.037  0.00  0.00    +0.003 C 
ATOM      3  C   LIG A   1      -4.086  -1.191 133.505  0.00  0.00    -0.015 C 
ATOM      4  C   LIG A   1      -4.082  -2.387 134.411  0.00  0.00    -0.019 C 
ATOM      5  C   LIG A   1      -5.072  -1.254 134.647  0.00  0.00    +0.016 C 
ATOM      6  C   LIG A   1      -2.672  -2.453 135.014  0.00  0.00    +0.004 C 
ATOM      7  C   LIG A   1      -2.002  -1.097 134.723  0.00  0.00    +0.005 C 
ATOM      8  C   LIG A   1      -2.893  -0.305 133.777  0.00  0.00    +0.008 C 
ATOM      9  C   LIG A   1      -4.636  -3.696 133.888  0.00  0.00    +0.008 C 
ATOM     10  C   LIG A   1      -5.809  -3.543 132.911  0.00  0.00    +0.005 C 
ATOM     11  C   LIG A   1      -5.737  -2.332 131.924  0.00  0.00    +0.004 C 
ATOM     12  C   LIG A   1      -6.160  -2.645 130.434  0.00  0.00    -0.025 C 
ATOM     13  C   LIG A   1      -5.279  -3.785 129.864  0.00  0.00    +0.012 C 
ATOM     14  C   LIG A   1      -6.166  -1.299 129.603  0.00  0.00    +0.007 C 
ATOM     15  C   LIG A   1      -4.972  -0.348 129.833  0.00  0.00    +0.036 C 
ATOM     16  C   LIG A   1      -4.606  -0.140 131.290  0.00  0.00    +0.122 C 
ATOM     17  C   LIG A   1      -6.501  -1.475 128.083  0.00  0.00    +0.006 C 
ATOM     18  C   LIG A   1      -5.369  -2.159 127.276  0.00  0.00    +0.015 C 
ATOM     19  C   LIG A   1      -6.650  -0.063 127.443  0.00  0.00    +0.015 C 
ATOM     20  C   LIG A   1      -7.874  -2.216 127.949  0.00  0.00    +0.183 C 
ATOM     21  C   LIG A   1      -8.150  -3.352 128.956  0.00  0.00    +0.046 C 
ATOM     22  C   LIG A   1      -7.641  -3.127 130.386  0.00  0.00    +0.011 C 
ENDROOT
BRANCH   6  23
ATOM     23  C   LIG A   1      -2.616  -3.020 136.444  0.00  0.00    +0.051 C 
ATOM     24  C   LIG A   1      -2.086  -4.445 136.661  0.00  0.00    +0.254 C 
ATOM     25  O   LIG A   1      -1.318  -4.430 137.870  0.00  0.00    -0.345 OA
ATOM     26  C   LIG A   1      -0.898  -3.101 138.179  0.00  0.00    +0.153 C 
ATOM     27  C   LIG A   1      -1.903  -2.187 137.499  0.00  0.00    +0.043 C 
BRANCH  24  28
ATOM     28  O   LIG A   1      -1.268  -4.916 135.600  0.00  0.00    -0.354 OA
ATOM     29  C   LIG A   1      -1.071  -6.327 135.655  0.00  0.00    +0.197 C 
ENDBRANCH  24  28
BRANCH  26  30
ATOM     30  C   LIG A   1       0.602  -2.862 137.837  0.00  0.00    +0.174 C 
BRANCH  30  31
ATOM     31  C   LIG A   1       1.576  -2.872 139.059  0.00  0.00    +0.089 C 
ATOM     32  C   LIG A   1       2.112  -1.478 139.379  0.00  0.00    +0.044 C 
ATOM     33  C   LIG A   1       0.980  -3.482 140.330  0.00  0.00    +0.044 C 
BRANCH  31  34
ATOM     34  O   LIG A   1       2.714  -3.692 138.727  0.00  0.00    -0.387 OA
ATOM     35  H   LIG A   1       2.440  -4.614 138.904  0.00  0.00    +0.210 HD
ENDBRANCH  31  34
ENDBRANCH  30  31
BRANCH  30  36
ATOM     36  O   LIG A   1       1.095  -3.824 136.896  0.00  0.00    -0.386 OA
ATOM     37  H   LIG A   1       0.603  -4.655 137.061  0.00  0.00    +0.210 HD
ENDBRANCH  30  36
ENDBRANCH  26  30
ENDBRANCH   6  23
BRANCH  16  38
ATOM     38  O   LIG A   1      -5.584   0.704 131.908  0.00  0.00    -0.391 OA
ATOM     39  H   LIG A   1      -6.469   0.447 131.613  0.00  0.00    +0.210 HD
ENDBRANCH  16  38
BRANCH  20  40
ATOM     40  O   LIG A   1      -7.978  -2.816 126.637  0.00  0.00    -0.457 OA
BRANCH  40  41
ATOM     41  C   LIG A   1      -8.970  -2.421 125.807  0.00  0.00    +0.341 C 
ATOM     42  O   LIG A   1     -10.112  -2.901 125.778  0.00  0.00    -0.245 OA
BRANCH  41  43
ATOM     43  C   LIG A   1      -8.506  -1.322 124.917  0.00  0.00    +0.080 A 
ATOM     44  C   LIG A   1      -7.377  -1.496 124.075  0.00  0.00    +0.041 A 
ATOM     45  C   LIG A   1      -6.989  -0.404 123.277  0.00  0.00    +0.024 A 
ATOM     46  C   LIG A   1      -7.654   0.826 123.334  0.00  0.00    +0.002 A 
ATOM     47  C   LIG A   1      -8.748   0.988 124.171  0.00  0.00    +0.001 A 
ATOM     48  C   LIG A   1      -9.177  -0.081 124.953  0.00  0.00    +0.017 A 
BRANCH  44  49
ATOM     49  N   LIG A   1      -6.747  -2.746 123.927  0.00  0.00    -0.346 N 
ATOM     50  C   LIG A   1      -5.352  -2.787 123.522  0.00  0.00    +0.125 C 
ATOM     51  H   LIG A   1      -6.935  -3.352 124.736  0.00  0.00    +0.146 HD
ENDBRANCH  44  49
ENDBRANCH  41  43
ENDBRANCH  40  41
ENDBRANCH  20  40
TORSDOF 11
ENDMDL
MODEL 8
REMARK VINA RESULT:      -7.8      1.793      3.238
REMARK  Name = NuBBE_1520
REMARK  19 active torsions:
REMARK  status: ('A' for Active; 'I' for Inactive)
REMARK    1  A    between atoms: C_1  and  C_2
REMARK    2  A    between atoms: C_6  and  C_10
REMARK    3  A    between atoms: C_12  and  O_14
REMARK    4  A    between atoms: O_14  and  C_15
REMARK    5  A    between atoms: C_17  and  C_20
REMARK    6  A    between atoms: C_20  and  C_22
REMARK    7  A    between atoms: C_20  and  O_26
REMARK    8  A    between atoms: C_22  and  C_23
REMARK    9  A    between atoms: C_22  and  C_24
REMARK   10  A    between atoms: C_22  and  O_25
REMARK   11  A    between atoms: C_31  and  C_32
REMARK   12  A    between atoms: C_36  and  O_38
REMARK   13  A    between atoms: C_39  and  C_40
REMARK   14  A    between atoms: C_39  and  C_41
REMARK   15  A    between atoms: C_42  and  O_46
REMARK   16  A    between atoms: O_46  and  C_47
REMARK   17  A    between atoms: C_47  and  C_49
REMARK   18  A    between atoms: C_50  and  N_51
REMARK   19  A    between atoms: N_51  and  C_52
REMARK                            x       y       z     vdW  Elec       q    Type
REMARK                         _______ _______ _______ _____ _____    ______ ____
ROOT
ATOM      1  C   LIG A   1      -5.459   5.581 130.951  0.00  0.00    +0.014 C 
ATOM      2  C   LIG A   1      -4.474   4.405 131.258  0.00  0.00    +0.003 C 
ATOM      3  C   LIG A   1      -3.418   4.935 132.234  0.00  0.00    -0.015 C 
ATOM      4  C   LIG A   1      -2.425   5.892 131.643  0.00  0.00    -0.019 C 
ATOM      5  C   LIG A   1      -1.955   4.564 132.220  0.00  0.00    +0.016 C 
ATOM      6  C   LIG A   1      -2.564   7.193 132.448  0.00  0.00    +0.004 C 
ATOM      7  C   LIG A   1      -3.376   6.847 133.709  0.00  0.00    +0.005 C 
ATOM      8  C   LIG A   1      -3.910   5.428 133.574  0.00  0.00    +0.008 C 
ATOM      9  C   LIG A   1      -2.378   6.053 130.138  0.00  0.00    +0.008 C 
ATOM     10  C   LIG A   1      -2.689   4.770 129.354  0.00  0.00    +0.005 C 
ATOM     11  C   LIG A   1      -3.791   3.839 129.957  0.00  0.00    +0.004 C 
ATOM     12  C   LIG A   1      -4.817   3.240 128.915  0.00  0.00    -0.025 C 
ATOM     13  C   LIG A   1      -5.522   4.388 128.150  0.00  0.00    +0.012 C 
ATOM     14  C   LIG A   1      -5.772   2.219 129.656  0.00  0.00    +0.007 C 
ATOM     15  C   LIG A   1      -6.311   2.663 131.032  0.00  0.00    +0.036 C 
ATOM     16  C   LIG A   1      -5.268   3.268 131.952  0.00  0.00    +0.122 C 
ATOM     17  C   LIG A   1      -6.891   1.601 128.750  0.00  0.00    +0.006 C 
ATOM     18  C   LIG A   1      -8.001   2.610 128.363  0.00  0.00    +0.015 C 
ATOM     19  C   LIG A   1      -7.624   0.490 129.560  0.00  0.00    +0.015 C 
ATOM     20  C   LIG A   1      -6.221   0.929 127.504  0.00  0.00    +0.183 C 
ATOM     21  C   LIG A   1      -5.018   1.669 126.882  0.00  0.00    +0.046 C 
ATOM     22  C   LIG A   1      -4.069   2.365 127.865  0.00  0.00    +0.011 C 
ENDROOT
BRANCH   6  23
ATOM     23  C   LIG A   1      -1.256   7.991 132.598  0.00  0.00    +0.051 C 
ATOM     24  C   LIG A   1      -1.317   9.422 133.153  0.00  0.00    +0.254 C 
ATOM     25  O   LIG A   1      -0.172   9.597 133.996  0.00  0.00    -0.345 OA
ATOM     26  C   LIG A   1       0.332   8.330 134.424  0.00  0.00    +0.153 C 
ATOM     27  C   LIG A   1      -0.121   7.334 133.370  0.00  0.00    +0.043 C 
BRANCH  24  28
ATOM     28  O   LIG A   1      -2.490   9.692 133.906  0.00  0.00    -0.354 OA
ATOM     29  C   LIG A   1      -2.589  11.065 134.279  0.00  0.00    +0.197 C 
ENDBRANCH  24  28
BRANCH  26  30
ATOM     30  C   LIG A   1      -0.055   8.009 135.897  0.00  0.00    +0.174 C 
BRANCH  30  31
ATOM     31  C   LIG A   1       1.129   7.576 136.820  0.00  0.00    +0.089 C 
ATOM     32  C   LIG A   1       1.809   8.772 137.483  0.00  0.00    +0.044 C 
ATOM     33  C   LIG A   1       0.744   6.558 137.896  0.00  0.00    +0.044 C 
BRANCH  31  34
ATOM     34  O   LIG A   1       2.126   6.926 136.005  0.00  0.00    -0.387 OA
ATOM     35  H   LIG A   1       1.760   6.046 135.786  0.00  0.00    +0.210 HD
ENDBRANCH  31  34
ENDBRANCH  30  31
BRANCH  30  36
ATOM     36  O   LIG A   1      -0.704   9.117 136.532  0.00  0.00    -0.386 OA
ATOM     37  H   LIG A   1      -0.055   9.851 136.548  0.00  0.00    +0.210 HD
ENDBRANCH  30  36
ENDBRANCH  26  30
ENDBRANCH   6  23
BRANCH  16  38
ATOM     38  O   LIG A   1      -4.422   2.228 132.457  0.00  0.00    -0.391 OA
ATOM     39  H   LIG A   1      -4.079   1.702 131.721  0.00  0.00    +0.210 HD
ENDBRANCH  16  38
BRANCH  20  40
ATOM     40  O   LIG A   1      -7.193   0.792 126.443  0.00  0.00    -0.457 OA
BRANCH  40  41
ATOM     41  C   LIG A   1      -7.722  -0.426 126.186  0.00  0.00    +0.341 C 
ATOM     42  O   LIG A   1      -8.704  -0.915 126.760  0.00  0.00    -0.245 OA
BRANCH  41  43
ATOM     43  C   LIG A   1      -6.958  -1.116 125.110  0.00  0.00    +0.080 A 
ATOM     44  C   LIG A   1      -7.106  -0.732 123.753  0.00  0.00    +0.041 A 
ATOM     45  C   LIG A   1      -6.365  -1.445 122.792  0.00  0.00    +0.024 A 
ATOM     46  C   LIG A   1      -5.543  -2.521 123.143  0.00  0.00    +0.002 A 
ATOM     47  C   LIG A   1      -5.417  -2.897 124.473  0.00  0.00    +0.001 A 
ATOM     48  C   LIG A   1      -6.114  -2.194 125.453  0.00  0.00    +0.017 A 
BRANCH  44  49
ATOM     49  N   LIG A   1      -7.851   0.403 123.379  0.00  0.00    -0.346 N 
ATOM     50  C   LIG A   1      -7.152   1.653 123.133  0.00  0.00    +0.125 C 
ATOM     51  H   LIG A   1      -8.518   0.176 122.630  0.00  0.00    +0.146 HD
ENDBRANCH  44  49
ENDBRANCH  41  43
ENDBRANCH  40  41
ENDBRANCH  20  40
TORSDOF 11
ENDMDL
MODEL 9
REMARK VINA RESULT:      -7.8      7.421     11.831
REMARK  Name = NuBBE_1520
REMARK  19 active torsions:
REMARK  status: ('A' for Active; 'I' for Inactive)
REMARK    1  A    between atoms: C_1  and  C_2
REMARK    2  A    between atoms: C_6  and  C_10
REMARK    3  A    between atoms: C_12  and  O_14
REMARK    4  A    between atoms: O_14  and  C_15
REMARK    5  A    between atoms: C_17  and  C_20
REMARK    6  A    between atoms: C_20  and  C_22
REMARK    7  A    between atoms: C_20  and  O_26
REMARK    8  A    between atoms: C_22  and  C_23
REMARK    9  A    between atoms: C_22  and  C_24
REMARK   10  A    between atoms: C_22  and  O_25
REMARK   11  A    between atoms: C_31  and  C_32
REMARK   12  A    between atoms: C_36  and  O_38
REMARK   13  A    between atoms: C_39  and  C_40
REMARK   14  A    between atoms: C_39  and  C_41
REMARK   15  A    between atoms: C_42  and  O_46
REMARK   16  A    between atoms: O_46  and  C_47
REMARK   17  A    between atoms: C_47  and  C_49
REMARK   18  A    between atoms: C_50  and  N_51
REMARK   19  A    between atoms: N_51  and  C_52
REMARK                            x       y       z     vdW  Elec       q    Type
REMARK                         _______ _______ _______ _____ _____    ______ ____
ROOT
ATOM      1  C   LIG A   1      -5.175  -1.470 130.967  0.00  0.00    +0.014 C 
ATOM      2  C   LIG A   1      -6.125  -2.675 130.665  0.00  0.00    +0.003 C 
ATOM      3  C   LIG A   1      -6.595  -2.535 129.213  0.00  0.00    -0.015 C 
ATOM      4  C   LIG A   1      -7.575  -1.426 128.964  0.00  0.00    -0.019 C 
ATOM      5  C   LIG A   1      -7.977  -2.872 128.709  0.00  0.00    +0.016 C 
ATOM      6  C   LIG A   1      -6.916  -0.508 127.925  0.00  0.00    +0.004 C 
ATOM      7  C   LIG A   1      -5.729  -1.289 127.333  0.00  0.00    +0.005 C 
ATOM      8  C   LIG A   1      -5.530  -2.563 128.142  0.00  0.00    +0.008 C 
ATOM      9  C   LIG A   1      -8.202  -0.730 130.154  0.00  0.00    +0.008 C 
ATOM     10  C   LIG A   1      -8.445  -1.640 131.365  0.00  0.00    +0.005 C 
ATOM     11  C   LIG A   1      -7.357  -2.729 131.644  0.00  0.00    +0.004 C 
ATOM     12  C   LIG A   1      -6.952  -2.910 133.160  0.00  0.00    -0.025 C 
ATOM     13  C   LIG A   1      -6.444  -1.564 133.735  0.00  0.00    +0.012 C 
ATOM     14  C   LIG A   1      -5.955  -4.132 133.287  0.00  0.00    +0.007 C 
ATOM     15  C   LIG A   1      -4.841  -4.220 132.223  0.00  0.00    +0.036 C 
ATOM     16  C   LIG A   1      -5.311  -3.988 130.800  0.00  0.00    +0.122 C 
ATOM     17  C   LIG A   1      -5.414  -4.381 134.737  0.00  0.00    +0.006 C 
ATOM     18  C   LIG A   1      -4.411  -3.302 135.216  0.00  0.00    +0.015 C 
ATOM     19  C   LIG A   1      -4.603  -5.711 134.740  0.00  0.00    +0.015 C 
ATOM     20  C   LIG A   1      -6.630  -4.553 135.709  0.00  0.00    +0.183 C 
ATOM     21  C   LIG A   1      -7.847  -3.636 135.466  0.00  0.00    +0.046 C 
ATOM     22  C   LIG A   1      -8.191  -3.343 134.000  0.00  0.00    +0.011 C 
ENDROOT
BRANCH   6  23
ATOM     23  C   LIG A   1      -7.905   0.184 126.968  0.00  0.00    +0.051 C 
ATOM     24  C   LIG A   1      -8.373   1.612 127.286  0.00  0.00    +0.254 C 
ATOM     25  O   LIG A   1      -8.460   2.314 126.040  0.00  0.00    -0.345 OA
ATOM     26  C   LIG A   1      -7.656   1.674 125.048  0.00  0.00    +0.153 C 
ATOM     27  C   LIG A   1      -7.535   0.226 125.493  0.00  0.00    +0.043 C 
BRANCH  24  28
ATOM     28  O   LIG A   1      -7.499   2.319 128.154  0.00  0.00    -0.354 OA
ATOM     29  C   LIG A   1      -7.862   3.691 128.286  0.00  0.00    +0.197 C 
ENDBRANCH  24  28
BRANCH  26  30
ATOM     30  C   LIG A   1      -6.324   2.436 124.788  0.00  0.00    +0.174 C 
BRANCH  30  31
ATOM     31  C   LIG A   1      -6.482   3.891 124.239  0.00  0.00    +0.089 C 
ATOM     32  C   LIG A   1      -6.054   4.941 125.262  0.00  0.00    +0.044 C 
ATOM     33  C   LIG A   1      -5.748   4.146 122.921  0.00  0.00    +0.044 C 
BRANCH  31  34
ATOM     34  O   LIG A   1      -7.878   4.122 123.961  0.00  0.00    -0.387 OA
ATOM     35  H   LIG A   1      -8.336   4.063 124.824  0.00  0.00    +0.210 HD
ENDBRANCH  31  34
ENDBRANCH  30  31
BRANCH  30  36
ATOM     36  O   LIG A   1      -5.514   2.514 125.967  0.00  0.00    -0.386 OA
ATOM     37  H   LIG A   1      -4.817   1.832 125.875  0.00  0.00    +0.210 HD
ENDBRANCH  30  36
ENDBRANCH  26  30
ENDBRANCH   6  23
BRANCH  16  38
ATOM     38  O   LIG A   1      -6.033  -5.139 130.347  0.00  0.00    -0.391 OA
ATOM     39  H   LIG A   1      -6.245  -5.708 131.102  0.00  0.00    +0.210 HD
ENDBRANCH  16  38
BRANCH  20  40
ATOM     40  O   LIG A   1      -6.206  -4.297 137.068  0.00  0.00    -0.457 OA
BRANCH  40  41
ATOM     41  C   LIG A   1      -6.997  -4.693 138.091  0.00  0.00    +0.341 C 
ATOM     42  O   LIG A   1      -7.081  -5.851 138.522  0.00  0.00    -0.245 OA
BRANCH  41  43
ATOM     43  C   LIG A   1      -7.767  -3.543 138.639  0.00  0.00    +0.080 A 
ATOM     44  C   LIG A   1      -9.160  -3.650 138.881  0.00  0.00    +0.041 A 
ATOM     45  C   LIG A   1      -9.821  -2.513 139.381  0.00  0.00    +0.024 A 
ATOM     46  C   LIG A   1      -9.152  -1.303 139.593  0.00  0.00    +0.002 A 
ATOM     47  C   LIG A   1      -7.791  -1.206 139.339  0.00  0.00    +0.001 A 
ATOM     48  C   LIG A   1      -7.100  -2.320 138.872  0.00  0.00    +0.017 A 
BRANCH  44  49
ATOM     49  N   LIG A   1      -9.842  -4.877 138.767  0.00  0.00    -0.346 N 
ATOM     50  C   LIG A   1     -10.711  -5.095 137.623  0.00  0.00    +0.125 C 
ATOM     51  H   LIG A   1      -9.206  -5.669 138.928  0.00  0.00    +0.146 HD
ENDBRANCH  44  49
ENDBRANCH  41  43
ENDBRANCH  40  41
ENDBRANCH  20  40
TORSDOF 11
ENDMDL
