MODEL 1
REMARK VINA RESULT:      -6.2      0.000      0.000
REMARK  Name = NuBBE_1618
REMARK  9 active torsions:
REMARK  status: ('A' for Active; 'I' for Inactive)
REMARK    1  A    between atoms: C_1  and  C_7
REMARK    2  A    between atoms: C_2  and  C_3
REMARK    3  A    between atoms: C_3  and  O_5
REMARK    4  A    between atoms: O_5  and  C_6
REMARK    5  A    between atoms: C_8  and  O_9
REMARK    6  A    between atoms: O_9  and  C_10
REMARK    7  A    between atoms: C_14  and  C_15
REMARK    8  A    between atoms: C_15  and  O_17
REMARK    9  A    between atoms: O_17  and  C_18
REMARK                            x       y       z     vdW  Elec       q    Type
REMARK                         _______ _______ _______ _____ _____    ______ ____
ROOT
ATOM      1  C   LIG A   1      -6.747   3.377 122.866  0.00  0.00    +0.050 A 
ATOM      2  C   LIG A   1      -6.231   3.775 121.603  0.00  0.00    +0.142 A 
ATOM      3  C   LIG A   1      -7.148   3.966 120.539  0.00  0.00    +0.082 A 
ATOM      4  C   LIG A   1      -8.489   3.718 120.818  0.00  0.00    +0.231 A 
ATOM      5  N   LIG A   1      -9.034   3.327 121.978  0.00  0.00    -0.205 NA
ATOM      6  C   LIG A   1      -8.132   3.174 122.980  0.00  0.00    +0.162 A 
ATOM      7  O   LIG A   1      -9.256   3.928 119.711  0.00  0.00    -0.445 OA
ATOM      8  C   LIG A   1      -8.426   4.327 118.720  0.00  0.00    +0.198 A 
ATOM      9  C   LIG A   1      -7.130   4.377 119.172  0.00  0.00    +0.055 A 
ENDROOT
BRANCH   1  10
ATOM     10  C   LIG A   1      -5.830   3.181 124.003  0.00  0.00    +0.021 C 
ATOM     11  C   LIG A   1      -5.580   4.134 124.915  0.00  0.00    +0.092 C 
BRANCH  11  12
ATOM     12  C   LIG A   1      -4.599   3.973 126.013  0.00  0.00    +0.332 C 
ATOM     13  O   LIG A   1      -3.999   2.924 126.194  0.00  0.00    -0.246 OA
BRANCH  12  14
ATOM     14  O   LIG A   1      -4.463   5.113 126.731  0.00  0.00    -0.465 OA
ATOM     15  C   LIG A   1      -3.468   5.092 127.755  0.00  0.00    +0.280 C 
ENDBRANCH  12  14
ENDBRANCH  11  12
ENDBRANCH   1  10
BRANCH   2  16
ATOM     16  O   LIG A   1      -4.852   3.941 121.545  0.00  0.00    -0.494 OA
ATOM     17  C   LIG A   1      -4.354   5.264 121.403  0.00  0.00    +0.277 C 
ENDBRANCH   2  16
BRANCH   6  18
ATOM     18  C   LIG A   1      -8.741   2.717 124.277  0.00  0.00    +0.358 C 
ATOM     19  O   LIG A   1      -9.060   3.438 125.209  0.00  0.00    -0.243 OA
BRANCH  18  20
ATOM     20  O   LIG A   1      -8.790   1.358 124.269  0.00  0.00    -0.463 OA
ATOM     21  C   LIG A   1      -9.429   0.761 125.397  0.00  0.00    +0.280 C 
ENDBRANCH  18  20
ENDBRANCH   6  18
TORSDOF 6
ENDMDL
MODEL 2
REMARK VINA RESULT:      -5.6      3.848      7.226
REMARK  Name = NuBBE_1618
REMARK  9 active torsions:
REMARK  status: ('A' for Active; 'I' for Inactive)
REMARK    1  A    between atoms: C_1  and  C_7
REMARK    2  A    between atoms: C_2  and  C_3
REMARK    3  A    between atoms: C_3  and  O_5
REMARK    4  A    between atoms: O_5  and  C_6
REMARK    5  A    between atoms: C_8  and  O_9
REMARK    6  A    between atoms: O_9  and  C_10
REMARK    7  A    between atoms: C_14  and  C_15
REMARK    8  A    between atoms: C_15  and  O_17
REMARK    9  A    between atoms: O_17  and  C_18
REMARK                            x       y       z     vdW  Elec       q    Type
REMARK                         _______ _______ _______ _____ _____    ______ ____
ROOT
ATOM      1  C   LIG A   1      -8.099  -0.398 125.769  0.00  0.00    +0.050 A 
ATOM      2  C   LIG A   1      -7.827  -0.513 127.158  0.00  0.00    +0.142 A 
ATOM      3  C   LIG A   1      -8.012  -1.777 127.773  0.00  0.00    +0.082 A 
ATOM      4  C   LIG A   1      -8.476  -2.804 126.956  0.00  0.00    +0.231 A 
ATOM      5  N   LIG A   1      -8.764  -2.757 125.649  0.00  0.00    -0.205 NA
ATOM      6  C   LIG A   1      -8.556  -1.539 125.089  0.00  0.00    +0.162 A 
ATOM      7  O   LIG A   1      -8.620  -3.956 127.671  0.00  0.00    -0.445 OA
ATOM      8  C   LIG A   1      -8.236  -3.689 128.941  0.00  0.00    +0.198 A 
ATOM      9  C   LIG A   1      -7.846  -2.377 129.057  0.00  0.00    +0.055 A 
ENDROOT
BRANCH   1  10
ATOM     10  C   LIG A   1      -7.905   0.895 125.087  0.00  0.00    +0.021 C 
ATOM     11  C   LIG A   1      -8.832   1.866 125.081  0.00  0.00    +0.092 C 
BRANCH  11  12
ATOM     12  C   LIG A   1      -8.677   3.134 124.330  0.00  0.00    +0.332 C 
ATOM     13  O   LIG A   1      -8.576   3.155 123.113  0.00  0.00    -0.246 OA
BRANCH  12  14
ATOM     14  O   LIG A   1      -8.684   4.206 125.157  0.00  0.00    -0.465 OA
ATOM     15  C   LIG A   1      -7.409   4.626 125.646  0.00  0.00    +0.280 C 
ENDBRANCH  12  14
ENDBRANCH  11  12
ENDBRANCH   1  10
BRANCH   2  16
ATOM     16  O   LIG A   1      -7.395   0.653 127.781  0.00  0.00    -0.494 OA
ATOM     17  C   LIG A   1      -8.251   1.237 128.753  0.00  0.00    +0.277 C 
ENDBRANCH   2  16
BRANCH   6  18
ATOM     18  C   LIG A   1      -8.898  -1.480 123.625  0.00  0.00    +0.358 C 
ATOM     19  O   LIG A   1      -9.838  -0.877 123.135  0.00  0.00    -0.243 OA
BRANCH  18  20
ATOM     20  O   LIG A   1      -8.034  -2.290 122.954  0.00  0.00    -0.463 OA
ATOM     21  C   LIG A   1      -6.772  -1.707 122.634  0.00  0.00    +0.280 C 
ENDBRANCH  18  20
ENDBRANCH   6  18
TORSDOF 6
ENDMDL
MODEL 3
REMARK VINA RESULT:      -5.6      2.719      4.854
REMARK  Name = NuBBE_1618
REMARK  9 active torsions:
REMARK  status: ('A' for Active; 'I' for Inactive)
REMARK    1  A    between atoms: C_1  and  C_7
REMARK    2  A    between atoms: C_2  and  C_3
REMARK    3  A    between atoms: C_3  and  O_5
REMARK    4  A    between atoms: O_5  and  C_6
REMARK    5  A    between atoms: C_8  and  O_9
REMARK    6  A    between atoms: O_9  and  C_10
REMARK    7  A    between atoms: C_14  and  C_15
REMARK    8  A    between atoms: C_15  and  O_17
REMARK    9  A    between atoms: O_17  and  C_18
REMARK                            x       y       z     vdW  Elec       q    Type
REMARK                         _______ _______ _______ _____ _____    ______ ____
ROOT
ATOM      1  C   LIG A   1      -7.081   0.825 124.608  0.00  0.00    +0.050 A 
ATOM      2  C   LIG A   1      -6.805  -0.565 124.710  0.00  0.00    +0.142 A 
ATOM      3  C   LIG A   1      -7.766  -1.475 124.202  0.00  0.00    +0.082 A 
ATOM      4  C   LIG A   1      -8.924  -0.922 123.663  0.00  0.00    +0.231 A 
ATOM      5  N   LIG A   1      -9.249   0.373 123.551  0.00  0.00    -0.205 NA
ATOM      6  C   LIG A   1      -8.299   1.216 124.028  0.00  0.00    +0.162 A 
ATOM      7  O   LIG A   1      -9.762  -1.903 123.223  0.00  0.00    -0.445 OA
ATOM      8  C   LIG A   1      -9.151  -3.087 123.456  0.00  0.00    +0.198 A 
ATOM      9  C   LIG A   1      -7.925  -2.884 124.043  0.00  0.00    +0.055 A 
ENDROOT
BRANCH   1  10
ATOM     10  C   LIG A   1      -6.102   1.806 125.110  0.00  0.00    +0.021 C 
ATOM     11  C   LIG A   1      -6.079   2.234 126.382  0.00  0.00    +0.092 C 
BRANCH  11  12
ATOM     12  C   LIG A   1      -5.152   3.279 126.874  0.00  0.00    +0.332 C 
ATOM     13  O   LIG A   1      -5.336   3.859 127.933  0.00  0.00    -0.246 OA
BRANCH  12  14
ATOM     14  O   LIG A   1      -4.116   3.466 126.022  0.00  0.00    -0.465 OA
ATOM     15  C   LIG A   1      -2.812   3.398 126.600  0.00  0.00    +0.280 C 
ENDBRANCH  12  14
ENDBRANCH  11  12
ENDBRANCH   1  10
BRANCH   2  16
ATOM     16  O   LIG A   1      -5.594  -0.891 125.309  0.00  0.00    -0.494 OA
ATOM     17  C   LIG A   1      -5.637  -1.546 126.569  0.00  0.00    +0.277 C 
ENDBRANCH   2  16
BRANCH   6  18
ATOM     18  C   LIG A   1      -8.672   2.669 123.920  0.00  0.00    +0.358 C 
ATOM     19  O   LIG A   1      -9.013   3.390 124.844  0.00  0.00    -0.243 OA
BRANCH  18  20
ATOM     20  O   LIG A   1      -8.653   3.017 122.605  0.00  0.00    -0.463 OA
ATOM     21  C   LIG A   1      -7.392   3.458 122.105  0.00  0.00    +0.280 C 
ENDBRANCH  18  20
ENDBRANCH   6  18
TORSDOF 6
ENDMDL
MODEL 4
REMARK VINA RESULT:      -5.5      6.621      8.601
REMARK  Name = NuBBE_1618
REMARK  9 active torsions:
REMARK  status: ('A' for Active; 'I' for Inactive)
REMARK    1  A    between atoms: C_1  and  C_7
REMARK    2  A    between atoms: C_2  and  C_3
REMARK    3  A    between atoms: C_3  and  O_5
REMARK    4  A    between atoms: O_5  and  C_6
REMARK    5  A    between atoms: C_8  and  O_9
REMARK    6  A    between atoms: O_9  and  C_10
REMARK    7  A    between atoms: C_14  and  C_15
REMARK    8  A    between atoms: C_15  and  O_17
REMARK    9  A    between atoms: O_17  and  C_18
REMARK                            x       y       z     vdW  Elec       q    Type
REMARK                         _______ _______ _______ _____ _____    ______ ____
ROOT
ATOM      1  C   LIG A   1      -9.237   5.556 130.273  0.00  0.00    +0.050 A 
ATOM      2  C   LIG A   1     -10.166   6.594 130.549  0.00  0.00    +0.142 A 
ATOM      3  C   LIG A   1     -10.730   7.294 129.453  0.00  0.00    +0.082 A 
ATOM      4  C   LIG A   1     -10.299   6.917 128.184  0.00  0.00    +0.231 A 
ATOM      5  N   LIG A   1      -9.418   5.961 127.859  0.00  0.00    -0.205 NA
ATOM      6  C   LIG A   1      -8.914   5.298 128.930  0.00  0.00    +0.162 A 
ATOM      7  O   LIG A   1     -10.909   7.672 127.227  0.00  0.00    -0.445 OA
ATOM      8  C   LIG A   1     -11.745   8.525 127.863  0.00  0.00    +0.198 A 
ATOM      9  C   LIG A   1     -11.683   8.331 129.222  0.00  0.00    +0.055 A 
ENDROOT
BRANCH   1  10
ATOM     10  C   LIG A   1      -8.637   4.793 131.383  0.00  0.00    +0.021 C 
ATOM     11  C   LIG A   1      -9.227   3.723 131.939  0.00  0.00    +0.092 C 
BRANCH  11  12
ATOM     12  C   LIG A   1      -8.670   3.002 133.107  0.00  0.00    +0.332 C 
ATOM     13  O   LIG A   1      -8.262   3.593 134.096  0.00  0.00    -0.246 OA
BRANCH  12  14
ATOM     14  O   LIG A   1      -8.700   1.661 132.925  0.00  0.00    -0.465 OA
ATOM     15  C   LIG A   1      -9.514   1.194 131.848  0.00  0.00    +0.280 C 
ENDBRANCH  12  14
ENDBRANCH  11  12
ENDBRANCH   1  10
BRANCH   2  16
ATOM     16  O   LIG A   1     -10.432   6.816 131.895  0.00  0.00    -0.494 OA
ATOM     17  C   LIG A   1     -11.755   6.577 132.354  0.00  0.00    +0.277 C 
ENDBRANCH   2  16
BRANCH   6  18
ATOM     18  C   LIG A   1      -7.911   4.238 128.567  0.00  0.00    +0.358 C 
ATOM     19  O   LIG A   1      -6.717   4.416 128.387  0.00  0.00    -0.243 OA
BRANCH  18  20
ATOM     20  O   LIG A   1      -8.577   3.066 128.383  0.00  0.00    -0.463 OA
ATOM     21  C   LIG A   1      -7.804   1.883 128.581  0.00  0.00    +0.280 C 
ENDBRANCH  18  20
ENDBRANCH   6  18
TORSDOF 6
ENDMDL
MODEL 5
REMARK VINA RESULT:      -5.5      4.294      7.925
REMARK  Name = NuBBE_1618
REMARK  9 active torsions:
REMARK  status: ('A' for Active; 'I' for Inactive)
REMARK    1  A    between atoms: C_1  and  C_7
REMARK    2  A    between atoms: C_2  and  C_3
REMARK    3  A    between atoms: C_3  and  O_5
REMARK    4  A    between atoms: O_5  and  C_6
REMARK    5  A    between atoms: C_8  and  O_9
REMARK    6  A    between atoms: O_9  and  C_10
REMARK    7  A    between atoms: C_14  and  C_15
REMARK    8  A    between atoms: C_15  and  O_17
REMARK    9  A    between atoms: O_17  and  C_18
REMARK                            x       y       z     vdW  Elec       q    Type
REMARK                         _______ _______ _______ _____ _____    ______ ____
ROOT
ATOM      1  C   LIG A   1      -7.824  -0.429 126.665  0.00  0.00    +0.050 A 
ATOM      2  C   LIG A   1      -7.592  -0.286 128.060  0.00  0.00    +0.142 A 
ATOM      3  C   LIG A   1      -7.621  -1.454 128.864  0.00  0.00    +0.082 A 
ATOM      4  C   LIG A   1      -7.904  -2.652 128.214  0.00  0.00    +0.231 A 
ATOM      5  N   LIG A   1      -8.145  -2.850 126.911  0.00  0.00    -0.205 NA
ATOM      6  C   LIG A   1      -8.090  -1.715 126.168  0.00  0.00    +0.162 A 
ATOM      7  O   LIG A   1      -7.912  -3.687 129.100  0.00  0.00    -0.445 OA
ATOM      8  C   LIG A   1      -7.619  -3.174 130.317  0.00  0.00    +0.198 A 
ATOM      9  C   LIG A   1      -7.423  -1.817 130.230  0.00  0.00    +0.055 A 
ENDROOT
BRANCH   1  10
ATOM     10  C   LIG A   1      -7.787   0.757 125.791  0.00  0.00    +0.021 C 
ATOM     11  C   LIG A   1      -8.872   1.498 125.516  0.00  0.00    +0.092 C 
BRANCH  11  12
ATOM     12  C   LIG A   1      -8.860   2.641 124.574  0.00  0.00    +0.332 C 
ATOM     13  O   LIG A   1      -8.845   3.799 124.964  0.00  0.00    -0.246 OA
BRANCH  12  14
ATOM     14  O   LIG A   1      -8.847   2.224 123.286  0.00  0.00    -0.465 OA
ATOM     15  C   LIG A   1      -9.893   1.327 122.909  0.00  0.00    +0.280 C 
ENDBRANCH  12  14
ENDBRANCH  11  12
ENDBRANCH   1  10
BRANCH   2  16
ATOM     16  O   LIG A   1      -7.353   1.012 128.496  0.00  0.00    -0.494 OA
ATOM     17  C   LIG A   1      -8.336   1.621 129.321  0.00  0.00    +0.277 C 
ENDBRANCH   2  16
BRANCH   6  18
ATOM     18  C   LIG A   1      -8.379  -1.935 124.708  0.00  0.00    +0.358 C 
ATOM     19  O   LIG A   1      -9.483  -1.921 124.189  0.00  0.00    -0.243 OA
BRANCH  18  20
ATOM     20  O   LIG A   1      -7.210  -2.242 124.084  0.00  0.00    -0.463 OA
ATOM     21  C   LIG A   1      -6.898  -1.447 122.941  0.00  0.00    +0.280 C 
ENDBRANCH  18  20
ENDBRANCH   6  18
TORSDOF 6
ENDMDL
MODEL 6
REMARK VINA RESULT:      -5.4      3.147      6.647
REMARK  Name = NuBBE_1618
REMARK  9 active torsions:
REMARK  status: ('A' for Active; 'I' for Inactive)
REMARK    1  A    between atoms: C_1  and  C_7
REMARK    2  A    between atoms: C_2  and  C_3
REMARK    3  A    between atoms: C_3  and  O_5
REMARK    4  A    between atoms: O_5  and  C_6
REMARK    5  A    between atoms: C_8  and  O_9
REMARK    6  A    between atoms: O_9  and  C_10
REMARK    7  A    between atoms: C_14  and  C_15
REMARK    8  A    between atoms: C_15  and  O_17
REMARK    9  A    between atoms: O_17  and  C_18
REMARK                            x       y       z     vdW  Elec       q    Type
REMARK                         _______ _______ _______ _____ _____    ______ ____
ROOT
ATOM      1  C   LIG A   1      -8.487   0.518 125.302  0.00  0.00    +0.050 A 
ATOM      2  C   LIG A   1      -8.933  -0.799 125.006  0.00  0.00    +0.142 A 
ATOM      3  C   LIG A   1      -8.785  -1.793 126.005  0.00  0.00    +0.082 A 
ATOM      4  C   LIG A   1      -8.184  -1.397 127.196  0.00  0.00    +0.231 A 
ATOM      5  N   LIG A   1      -7.731  -0.181 127.530  0.00  0.00    -0.205 NA
ATOM      6  C   LIG A   1      -7.906   0.751 126.559  0.00  0.00    +0.162 A 
ATOM      7  O   LIG A   1      -8.095  -2.447 128.060  0.00  0.00    -0.445 OA
ATOM      8  C   LIG A   1      -8.649  -3.518 127.447  0.00  0.00    +0.198 A 
ATOM      9  C   LIG A   1      -9.095  -3.174 126.194  0.00  0.00    +0.055 A 
ENDROOT
BRANCH   1  10
ATOM     10  C   LIG A   1      -8.636   1.586 124.297  0.00  0.00    +0.021 C 
ATOM     11  C   LIG A   1      -7.672   1.904 123.418  0.00  0.00    +0.092 C 
BRANCH  11  12
ATOM     12  C   LIG A   1      -7.783   3.029 122.461  0.00  0.00    +0.332 C 
ATOM     13  O   LIG A   1      -8.856   3.367 121.983  0.00  0.00    -0.246 OA
BRANCH  12  14
ATOM     14  O   LIG A   1      -6.580   3.604 122.227  0.00  0.00    -0.465 OA
ATOM     15  C   LIG A   1      -5.879   4.078 123.378  0.00  0.00    +0.280 C 
ENDBRANCH  12  14
ENDBRANCH  11  12
ENDBRANCH   1  10
BRANCH   2  16
ATOM     16  O   LIG A   1      -9.481  -0.974 123.740  0.00  0.00    -0.494 OA
ATOM     17  C   LIG A   1      -8.743  -1.744 122.803  0.00  0.00    +0.277 C 
ENDBRANCH   2  16
BRANCH   6  18
ATOM     18  C   LIG A   1      -7.380   2.112 126.926  0.00  0.00    +0.358 C 
ATOM     19  O   LIG A   1      -6.246   2.516 126.728  0.00  0.00    -0.243 OA
BRANCH  18  20
ATOM     20  O   LIG A   1      -8.357   2.779 127.598  0.00  0.00    -0.463 OA
ATOM     21  C   LIG A   1      -7.968   4.030 128.164  0.00  0.00    +0.280 C 
ENDBRANCH  18  20
ENDBRANCH   6  18
TORSDOF 6
ENDMDL
MODEL 7
REMARK VINA RESULT:      -5.4      3.982      6.437
REMARK  Name = NuBBE_1618
REMARK  9 active torsions:
REMARK  status: ('A' for Active; 'I' for Inactive)
REMARK    1  A    between atoms: C_1  and  C_7
REMARK    2  A    between atoms: C_2  and  C_3
REMARK    3  A    between atoms: C_3  and  O_5
REMARK    4  A    between atoms: O_5  and  C_6
REMARK    5  A    between atoms: C_8  and  O_9
REMARK    6  A    between atoms: O_9  and  C_10
REMARK    7  A    between atoms: C_14  and  C_15
REMARK    8  A    between atoms: C_15  and  O_17
REMARK    9  A    between atoms: O_17  and  C_18
REMARK                            x       y       z     vdW  Elec       q    Type
REMARK                         _______ _______ _______ _____ _____    ______ ____
ROOT
ATOM      1  C   LIG A   1      -8.186  -0.634 125.452  0.00  0.00    +0.050 A 
ATOM      2  C   LIG A   1      -8.256   0.750 125.761  0.00  0.00    +0.142 A 
ATOM      3  C   LIG A   1      -7.776   1.674 124.799  0.00  0.00    +0.082 A 
ATOM      4  C   LIG A   1      -7.246   1.136 123.629  0.00  0.00    +0.231 A 
ATOM      5  N   LIG A   1      -7.138  -0.154 123.286  0.00  0.00    -0.205 NA
ATOM      6  C   LIG A   1      -7.625  -1.009 124.220  0.00  0.00    +0.162 A 
ATOM      7  O   LIG A   1      -6.814   2.128 122.800  0.00  0.00    -0.445 OA
ATOM      8  C   LIG A   1      -7.075   3.305 123.413  0.00  0.00    +0.198 A 
ATOM      9  C   LIG A   1      -7.670   3.087 124.632  0.00  0.00    +0.055 A 
ENDROOT
BRANCH   1  10
ATOM     10  C   LIG A   1      -8.688  -1.628 126.419  0.00  0.00    +0.021 C 
ATOM     11  C   LIG A   1      -7.920  -2.174 127.375  0.00  0.00    +0.092 C 
BRANCH  11  12
ATOM     12  C   LIG A   1      -8.395  -3.232 128.296  0.00  0.00    +0.332 C 
ATOM     13  O   LIG A   1      -9.090  -4.160 127.910  0.00  0.00    -0.246 OA
BRANCH  12  14
ATOM     14  O   LIG A   1      -7.947  -3.031 129.558  0.00  0.00    -0.465 OA
ATOM     15  C   LIG A   1      -6.774  -3.757 129.927  0.00  0.00    +0.280 C 
ENDBRANCH  12  14
ENDBRANCH  11  12
ENDBRANCH   1  10
BRANCH   2  16
ATOM     16  O   LIG A   1      -8.803   1.059 127.002  0.00  0.00    -0.494 OA
ATOM     17  C   LIG A   1      -7.938   1.611 127.984  0.00  0.00    +0.277 C 
ENDBRANCH   2  16
BRANCH   6  18
ATOM     18  C   LIG A   1      -7.487  -2.459 123.843  0.00  0.00    +0.358 C 
ATOM     19  O   LIG A   1      -6.617  -3.219 124.236  0.00  0.00    -0.243 OA
BRANCH  18  20
ATOM     20  O   LIG A   1      -8.442  -2.751 122.919  0.00  0.00    -0.463 OA
ATOM     21  C   LIG A   1      -9.596  -3.423 123.422  0.00  0.00    +0.280 C 
ENDBRANCH  18  20
ENDBRANCH   6  18
TORSDOF 6
ENDMDL
MODEL 8
REMARK VINA RESULT:      -5.3      2.773      5.038
REMARK  Name = NuBBE_1618
REMARK  9 active torsions:
REMARK  status: ('A' for Active; 'I' for Inactive)
REMARK    1  A    between atoms: C_1  and  C_7
REMARK    2  A    between atoms: C_2  and  C_3
REMARK    3  A    between atoms: C_3  and  O_5
REMARK    4  A    between atoms: O_5  and  C_6
REMARK    5  A    between atoms: C_8  and  O_9
REMARK    6  A    between atoms: O_9  and  C_10
REMARK    7  A    between atoms: C_14  and  C_15
REMARK    8  A    between atoms: C_15  and  O_17
REMARK    9  A    between atoms: O_17  and  C_18
REMARK                            x       y       z     vdW  Elec       q    Type
REMARK                         _______ _______ _______ _____ _____    ______ ____
ROOT
ATOM      1  C   LIG A   1      -7.022   3.436 125.821  0.00  0.00    +0.050 A 
ATOM      2  C   LIG A   1      -7.917   3.192 124.746  0.00  0.00    +0.142 A 
ATOM      3  C   LIG A   1      -7.444   3.395 123.425  0.00  0.00    +0.082 A 
ATOM      4  C   LIG A   1      -6.135   3.849 123.294  0.00  0.00    +0.231 A 
ATOM      5  N   LIG A   1      -5.249   4.111 124.265  0.00  0.00    -0.205 NA
ATOM      6  C   LIG A   1      -5.728   3.887 125.514  0.00  0.00    +0.162 A 
ATOM      7  O   LIG A   1      -5.813   4.012 121.980  0.00  0.00    -0.445 OA
ATOM      8  C   LIG A   1      -6.897   3.651 121.255  0.00  0.00    +0.198 A 
ATOM      9  C   LIG A   1      -7.918   3.257 122.086  0.00  0.00    +0.055 A 
ENDROOT
BRANCH   1  10
ATOM     10  C   LIG A   1      -7.468   3.223 127.210  0.00  0.00    +0.021 C 
ATOM     11  C   LIG A   1      -7.987   4.199 127.971  0.00  0.00    +0.092 C 
BRANCH  11  12
ATOM     12  C   LIG A   1      -8.361   4.011 129.392  0.00  0.00    +0.332 C 
ATOM     13  O   LIG A   1      -7.540   4.095 130.293  0.00  0.00    -0.246 OA
BRANCH  12  14
ATOM     14  O   LIG A   1      -9.686   3.766 129.530  0.00  0.00    -0.465 OA
ATOM     15  C   LIG A   1     -10.089   3.190 130.774  0.00  0.00    +0.280 C 
ENDBRANCH  12  14
ENDBRANCH  11  12
ENDBRANCH   1  10
BRANCH   2  16
ATOM     16  O   LIG A   1      -9.189   2.766 125.111  0.00  0.00    -0.494 OA
ATOM     17  C   LIG A   1      -9.568   1.444 124.756  0.00  0.00    +0.277 C 
ENDBRANCH   2  16
BRANCH   6  18
ATOM     18  C   LIG A   1      -4.739   4.200 126.605  0.00  0.00    +0.358 C 
ATOM     19  O   LIG A   1      -4.019   3.393 127.169  0.00  0.00    -0.243 OA
BRANCH  18  20
ATOM     20  O   LIG A   1      -4.854   5.519 126.917  0.00  0.00    -0.463 OA
ATOM     21  C   LIG A   1      -3.850   6.031 127.792  0.00  0.00    +0.280 C 
ENDBRANCH  18  20
ENDBRANCH   6  18
TORSDOF 6
ENDMDL
MODEL 9
REMARK VINA RESULT:      -5.2      4.278      8.196
REMARK  Name = NuBBE_1618
REMARK  9 active torsions:
REMARK  status: ('A' for Active; 'I' for Inactive)
REMARK    1  A    between atoms: C_1  and  C_7
REMARK    2  A    between atoms: C_2  and  C_3
REMARK    3  A    between atoms: C_3  and  O_5
REMARK    4  A    between atoms: O_5  and  C_6
REMARK    5  A    between atoms: C_8  and  O_9
REMARK    6  A    between atoms: O_9  and  C_10
REMARK    7  A    between atoms: C_14  and  C_15
REMARK    8  A    between atoms: C_15  and  O_17
REMARK    9  A    between atoms: O_17  and  C_18
REMARK                            x       y       z     vdW  Elec       q    Type
REMARK                         _______ _______ _______ _____ _____    ______ ____
ROOT
ATOM      1  C   LIG A   1      -8.129  -0.019 127.409  0.00  0.00    +0.050 A 
ATOM      2  C   LIG A   1      -7.952  -1.429 127.419  0.00  0.00    +0.142 A 
ATOM      3  C   LIG A   1      -7.678  -2.057 128.660  0.00  0.00    +0.082 A 
ATOM      4  C   LIG A   1      -7.577  -1.226 129.772  0.00  0.00    +0.231 A 
ATOM      5  N   LIG A   1      -7.717   0.106 129.825  0.00  0.00    -0.205 NA
ATOM      6  C   LIG A   1      -7.999   0.672 128.624  0.00  0.00    +0.162 A 
ATOM      7  O   LIG A   1      -7.302  -1.953 130.890  0.00  0.00    -0.445 OA
ATOM      8  C   LIG A   1      -7.241  -3.253 130.518  0.00  0.00    +0.198 A 
ATOM      9  C   LIG A   1      -7.472  -3.374 129.169  0.00  0.00    +0.055 A 
ENDROOT
BRANCH   1  10
ATOM     10  C   LIG A   1      -8.430   0.673 126.142  0.00  0.00    +0.021 C 
ATOM     11  C   LIG A   1      -9.672   0.783 125.644  0.00  0.00    +0.092 C 
BRANCH  11  12
ATOM     12  C   LIG A   1      -9.971   1.404 124.334  0.00  0.00    +0.332 C 
ATOM     13  O   LIG A   1     -10.937   1.068 123.665  0.00  0.00    -0.246 OA
BRANCH  12  14
ATOM     14  O   LIG A   1      -9.069   2.365 124.021  0.00  0.00    -0.465 OA
ATOM     15  C   LIG A   1      -8.864   2.598 122.626  0.00  0.00    +0.280 C 
ENDBRANCH  12  14
ENDBRANCH  11  12
ENDBRANCH   1  10
BRANCH   2  16
ATOM     16  O   LIG A   1      -8.074  -2.056 126.184  0.00  0.00    -0.494 OA
ATOM     17  C   LIG A   1      -6.889  -2.557 125.581  0.00  0.00    +0.277 C 
ENDBRANCH   2  16
BRANCH   6  18
ATOM     18  C   LIG A   1      -8.137   2.169 128.680  0.00  0.00    +0.358 C 
ATOM     19  O   LIG A   1      -9.184   2.786 128.788  0.00  0.00    -0.243 OA
BRANCH  18  20
ATOM     20  O   LIG A   1      -6.905   2.717 128.499  0.00  0.00    -0.463 OA
ATOM     21  C   LIG A   1      -6.870   3.892 127.689  0.00  0.00    +0.280 C 
ENDBRANCH  18  20
ENDBRANCH   6  18
TORSDOF 6
ENDMDL
