MODEL 1
REMARK VINA RESULT:      -7.4      0.000      0.000
REMARK  Name = NuBBE_1571
REMARK  7 active torsions:
REMARK  status: ('A' for Active; 'I' for Inactive)
REMARK    1  A    between atoms: C_1  and  C_2
REMARK    2  A    between atoms: C_1  and  C_4
REMARK    3  A    between atoms: C_2  and  O_3
REMARK    4  A    between atoms: C_17  and  O_19
REMARK    5  A    between atoms: O_19  and  C_20
REMARK    6  A    between atoms: C_25  and  C_27
REMARK    7  A    between atoms: C_27  and  C_28
REMARK                            x       y       z     vdW  Elec       q    Type
REMARK                         _______ _______ _______ _____ _____    ______ ____
ROOT
ATOM      1  C   LIG A   1      -6.384  -1.610 125.211  0.00  0.00    -0.003 C 
ATOM      2  C   LIG A   1      -6.228  -0.282 125.972  0.00  0.00    +0.029 C 
ATOM      3  C   LIG A   1      -7.468   0.643 125.929  0.00  0.00    +0.104 C 
ATOM      4  C   LIG A   1      -7.479   1.531 124.720  0.00  0.00    +0.038 A 
ATOM      5  C   LIG A   1      -8.573   1.830 123.929  0.00  0.00    -0.016 A 
ATOM      6  C   LIG A   1      -8.108   2.590 122.824  0.00  0.00    +0.007 A 
ATOM      7  C   LIG A   1      -6.741   2.829 123.045  0.00  0.00    +0.047 A 
ATOM      8  N   LIG A   1      -6.426   2.256 124.254  0.00  0.00    -0.356 N 
ATOM      9  H   LIG A   1      -5.490   2.257 124.661  0.00  0.00    +0.166 HD
ATOM     10  C   LIG A   1      -5.941   3.518 122.134  0.00  0.00    +0.030 A 
ATOM     11  C   LIG A   1      -6.542   3.967 120.956  0.00  0.00    +0.048 A 
ATOM     12  C   LIG A   1      -7.906   3.775 120.717  0.00  0.00    +0.121 A 
ATOM     13  C   LIG A   1      -8.695   3.084 121.642  0.00  0.00    +0.056 A 
ATOM     14  C   LIG A   1      -9.922   1.311 124.274  0.00  0.00    +0.053 C 
ATOM     15  C   LIG A   1      -9.921   0.807 125.747  0.00  0.00    +0.090 C 
ATOM     16  N   LIG A   1      -8.767  -0.058 126.116  0.00  0.00    -0.293 NA
ATOM     17  C   LIG A   1      -8.879  -1.371 125.467  0.00  0.00    +0.088 C 
ATOM     18  C   LIG A   1      -7.676  -2.299 125.730  0.00  0.00    +0.006 C 
ENDROOT
BRANCH  12  19
ATOM     19  O   LIG A   1      -8.354   4.259 119.516  0.00  0.00    -0.495 OA
ATOM     20  C   LIG A   1      -7.337   4.614 118.585  0.00  0.00    +0.277 C 
ENDBRANCH  12  19
BRANCH  18  21
ATOM     21  C   LIG A   1      -7.627  -2.699 127.229  0.00  0.00    +0.002 C 
ATOM     22  C   LIG A   1      -8.741  -3.643 127.660  0.00  0.00    +0.004 C 
ENDBRANCH  18  21
BRANCH   1  23
ATOM     23  C   LIG A   1      -6.395  -1.490 123.661  0.00  0.00    +0.032 C 
BRANCH  23  24
ATOM     24  C   LIG A   1      -5.536  -2.506 122.906  0.00  0.00    +0.156 C 
BRANCH  24  25
ATOM     25  O   LIG A   1      -5.031  -3.535 123.740  0.00  0.00    -0.395 OA
ATOM     26  H   LIG A   1      -5.766  -4.164 123.853  0.00  0.00    +0.209 HD
ENDBRANCH  24  25
ENDBRANCH  23  24
ENDBRANCH   1  23
TORSDOF 5
ENDMDL
MODEL 2
REMARK VINA RESULT:      -7.0      1.527      1.928
REMARK  Name = NuBBE_1571
REMARK  7 active torsions:
REMARK  status: ('A' for Active; 'I' for Inactive)
REMARK    1  A    between atoms: C_1  and  C_2
REMARK    2  A    between atoms: C_1  and  C_4
REMARK    3  A    between atoms: C_2  and  O_3
REMARK    4  A    between atoms: C_17  and  O_19
REMARK    5  A    between atoms: O_19  and  C_20
REMARK    6  A    between atoms: C_25  and  C_27
REMARK    7  A    between atoms: C_27  and  C_28
REMARK                            x       y       z     vdW  Elec       q    Type
REMARK                         _______ _______ _______ _____ _____    ______ ____
ROOT
ATOM      1  C   LIG A   1      -7.210  -1.537 125.944  0.00  0.00    -0.003 C 
ATOM      2  C   LIG A   1      -7.876  -0.327 126.621  0.00  0.00    +0.029 C 
ATOM      3  C   LIG A   1      -8.737   0.553 125.682  0.00  0.00    +0.104 C 
ATOM      4  C   LIG A   1      -7.929   1.603 124.979  0.00  0.00    +0.038 A 
ATOM      5  C   LIG A   1      -8.039   1.974 123.652  0.00  0.00    -0.016 A 
ATOM      6  C   LIG A   1      -6.998   2.899 123.378  0.00  0.00    +0.007 A 
ATOM      7  C   LIG A   1      -6.350   3.151 124.598  0.00  0.00    +0.047 A 
ATOM      8  N   LIG A   1      -7.010   2.423 125.559  0.00  0.00    -0.356 N 
ATOM      9  H   LIG A   1      -6.741   2.397 126.543  0.00  0.00    +0.166 HD
ATOM     10  C   LIG A   1      -5.240   3.989 124.701  0.00  0.00    +0.030 A 
ATOM     11  C   LIG A   1      -4.765   4.580 123.529  0.00  0.00    +0.048 A 
ATOM     12  C   LIG A   1      -5.404   4.378 122.301  0.00  0.00    +0.121 A 
ATOM     13  C   LIG A   1      -6.518   3.536 122.216  0.00  0.00    +0.056 A 
ATOM     14  C   LIG A   1      -9.077   1.365 122.778  0.00  0.00    +0.053 C 
ATOM     15  C   LIG A   1     -10.145   0.657 123.662  0.00  0.00    +0.090 C 
ATOM     16  N   LIG A   1      -9.597  -0.211 124.739  0.00  0.00    -0.293 NA
ATOM     17  C   LIG A   1      -8.992  -1.422 124.167  0.00  0.00    +0.088 C 
ATOM     18  C   LIG A   1      -8.324  -2.337 125.213  0.00  0.00    +0.006 C 
ENDROOT
BRANCH  12  19
ATOM     19  O   LIG A   1      -4.821   5.012 121.236  0.00  0.00    -0.495 OA
ATOM     20  C   LIG A   1      -5.547   4.939 120.013  0.00  0.00    +0.277 C 
ENDBRANCH  12  19
BRANCH  18  21
ATOM     21  C   LIG A   1      -9.396  -2.943 126.156  0.00  0.00    +0.002 C 
ATOM     22  C   LIG A   1      -8.824  -3.697 127.349  0.00  0.00    +0.004 C 
ENDBRANCH  18  21
BRANCH   1  23
ATOM     23  C   LIG A   1      -6.037  -1.198 124.981  0.00  0.00    +0.032 C 
BRANCH  23  24
ATOM     24  C   LIG A   1      -5.353  -2.392 124.314  0.00  0.00    +0.156 C 
BRANCH  24  25
ATOM     25  O   LIG A   1      -5.592  -2.461 122.919  0.00  0.00    -0.395 OA
ATOM     26  H   LIG A   1      -6.417  -1.963 122.771  0.00  0.00    +0.209 HD
ENDBRANCH  24  25
ENDBRANCH  23  24
ENDBRANCH   1  23
TORSDOF 5
ENDMDL
MODEL 3
REMARK VINA RESULT:      -6.8      7.981      9.645
REMARK  Name = NuBBE_1571
REMARK  7 active torsions:
REMARK  status: ('A' for Active; 'I' for Inactive)
REMARK    1  A    between atoms: C_1  and  C_2
REMARK    2  A    between atoms: C_1  and  C_4
REMARK    3  A    between atoms: C_2  and  O_3
REMARK    4  A    between atoms: C_17  and  O_19
REMARK    5  A    between atoms: O_19  and  C_20
REMARK    6  A    between atoms: C_25  and  C_27
REMARK    7  A    between atoms: C_27  and  C_28
REMARK                            x       y       z     vdW  Elec       q    Type
REMARK                         _______ _______ _______ _____ _____    ______ ____
ROOT
ATOM      1  C   LIG A   1      -6.733   5.360 132.996  0.00  0.00    -0.003 C 
ATOM      2  C   LIG A   1      -7.946   4.852 133.794  0.00  0.00    +0.029 C 
ATOM      3  C   LIG A   1      -8.899   3.918 133.008  0.00  0.00    +0.104 C 
ATOM      4  C   LIG A   1      -9.937   4.677 132.236  0.00  0.00    +0.038 A 
ATOM      5  C   LIG A   1     -10.363   4.410 130.948  0.00  0.00    -0.016 A 
ATOM      6  C   LIG A   1     -11.250   5.450 130.565  0.00  0.00    +0.007 A 
ATOM      7  C   LIG A   1     -11.425   6.267 131.694  0.00  0.00    +0.047 A 
ATOM      8  N   LIG A   1     -10.692   5.705 132.712  0.00  0.00    -0.356 N 
ATOM      9  H   LIG A   1     -10.616   6.101 133.650  0.00  0.00    +0.166 HD
ATOM     10  C   LIG A   1     -12.208   7.421 131.674  0.00  0.00    +0.030 A 
ATOM     11  C   LIG A   1     -12.821   7.765 130.467  0.00  0.00    +0.048 A 
ATOM     12  C   LIG A   1     -12.694   6.959 129.332  0.00  0.00    +0.121 A 
ATOM     13  C   LIG A   1     -11.907   5.803 129.370  0.00  0.00    +0.056 A 
ATOM     14  C   LIG A   1      -9.835   3.237 130.203  0.00  0.00    +0.053 C 
ATOM     15  C   LIG A   1      -9.143   2.261 131.200  0.00  0.00    +0.090 C 
ATOM     16  N   LIG A   1      -8.210   2.904 132.166  0.00  0.00    -0.293 NA
ATOM     17  C   LIG A   1      -6.996   3.366 131.479  0.00  0.00    +0.088 C 
ATOM     18  C   LIG A   1      -6.013   4.121 132.396  0.00  0.00    +0.006 C 
ENDROOT
BRANCH  12  19
ATOM     19  O   LIG A   1     -13.342   7.426 128.218  0.00  0.00    -0.495 OA
ATOM     20  C   LIG A   1     -12.762   7.048 126.974  0.00  0.00    +0.277 C 
ENDBRANCH  12  19
BRANCH  18  21
ATOM     21  C   LIG A   1      -5.420   3.154 133.456  0.00  0.00    +0.002 C 
ATOM     22  C   LIG A   1      -4.056   2.586 133.089  0.00  0.00    +0.004 C 
ENDBRANCH  18  21
BRANCH   1  23
ATOM     23  C   LIG A   1      -7.055   6.410 131.895  0.00  0.00    +0.032 C 
BRANCH  23  24
ATOM     24  C   LIG A   1      -5.856   6.945 131.109  0.00  0.00    +0.156 C 
BRANCH  24  25
ATOM     25  O   LIG A   1      -5.770   6.411 129.799  0.00  0.00    -0.395 OA
ATOM     26  H   LIG A   1      -6.674   6.457 129.438  0.00  0.00    +0.209 HD
ENDBRANCH  24  25
ENDBRANCH  23  24
ENDBRANCH   1  23
TORSDOF 5
ENDMDL
MODEL 4
REMARK VINA RESULT:      -6.7      7.777      9.403
REMARK  Name = NuBBE_1571
REMARK  7 active torsions:
REMARK  status: ('A' for Active; 'I' for Inactive)
REMARK    1  A    between atoms: C_1  and  C_2
REMARK    2  A    between atoms: C_1  and  C_4
REMARK    3  A    between atoms: C_2  and  O_3
REMARK    4  A    between atoms: C_17  and  O_19
REMARK    5  A    between atoms: O_19  and  C_20
REMARK    6  A    between atoms: C_25  and  C_27
REMARK    7  A    between atoms: C_27  and  C_28
REMARK                            x       y       z     vdW  Elec       q    Type
REMARK                         _______ _______ _______ _____ _____    ______ ____
ROOT
ATOM      1  C   LIG A   1      -7.117   3.627 133.243  0.00  0.00    -0.003 C 
ATOM      2  C   LIG A   1      -8.330   2.790 132.801  0.00  0.00    +0.029 C 
ATOM      3  C   LIG A   1      -8.600   2.790 131.276  0.00  0.00    +0.104 C 
ATOM      4  C   LIG A   1      -9.453   3.947 130.846  0.00  0.00    +0.038 A 
ATOM      5  C   LIG A   1      -9.271   4.729 129.720  0.00  0.00    -0.016 A 
ATOM      6  C   LIG A   1     -10.218   5.784 129.774  0.00  0.00    +0.007 A 
ATOM      7  C   LIG A   1     -11.033   5.540 130.891  0.00  0.00    +0.047 A 
ATOM      8  N   LIG A   1     -10.598   4.363 131.452  0.00  0.00    -0.356 N 
ATOM      9  H   LIG A   1     -10.997   3.949 132.296  0.00  0.00    +0.166 HD
ATOM     10  C   LIG A   1     -12.057   6.404 131.280  0.00  0.00    +0.030 A 
ATOM     11  C   LIG A   1     -12.251   7.559 130.520  0.00  0.00    +0.048 A 
ATOM     12  C   LIG A   1     -11.480   7.820 129.383  0.00  0.00    +0.121 A 
ATOM     13  C   LIG A   1     -10.459   6.941 129.005  0.00  0.00    +0.056 A 
ATOM     14  C   LIG A   1      -8.183   4.424 128.754  0.00  0.00    +0.053 C 
ATOM     15  C   LIG A   1      -7.655   2.983 129.009  0.00  0.00    +0.090 C 
ATOM     16  N   LIG A   1      -7.382   2.654 130.434  0.00  0.00    -0.293 NA
ATOM     17  C   LIG A   1      -6.195   3.378 130.912  0.00  0.00    +0.088 C 
ATOM     18  C   LIG A   1      -5.894   3.158 132.408  0.00  0.00    +0.006 C 
ENDROOT
BRANCH  12  19
ATOM     19  O   LIG A   1     -11.775   8.995 128.743  0.00  0.00    -0.495 OA
ATOM     20  C   LIG A   1     -13.152   9.360 128.748  0.00  0.00    +0.277 C 
ENDBRANCH  12  19
BRANCH  18  21
ATOM     21  C   LIG A   1      -5.478   1.684 132.659  0.00  0.00    +0.002 C 
ATOM     22  C   LIG A   1      -3.973   1.455 132.685  0.00  0.00    +0.004 C 
ENDBRANCH  18  21
BRANCH   1  23
ATOM     23  C   LIG A   1      -7.303   5.168 133.151  0.00  0.00    +0.032 C 
BRANCH  23  24
ATOM     24  C   LIG A   1      -8.219   5.794 134.204  0.00  0.00    +0.156 C 
BRANCH  24  25
ATOM     25  O   LIG A   1      -9.402   6.347 133.652  0.00  0.00    -0.395 OA
ATOM     26  H   LIG A   1      -9.465   7.248 134.019  0.00  0.00    +0.209 HD
ENDBRANCH  24  25
ENDBRANCH  23  24
ENDBRANCH   1  23
TORSDOF 5
ENDMDL
MODEL 5
REMARK VINA RESULT:      -6.6      3.682      5.155
REMARK  Name = NuBBE_1571
REMARK  7 active torsions:
REMARK  status: ('A' for Active; 'I' for Inactive)
REMARK    1  A    between atoms: C_1  and  C_2
REMARK    2  A    between atoms: C_1  and  C_4
REMARK    3  A    between atoms: C_2  and  O_3
REMARK    4  A    between atoms: C_17  and  O_19
REMARK    5  A    between atoms: O_19  and  C_20
REMARK    6  A    between atoms: C_25  and  C_27
REMARK    7  A    between atoms: C_27  and  C_28
REMARK                            x       y       z     vdW  Elec       q    Type
REMARK                         _______ _______ _______ _____ _____    ______ ____
ROOT
ATOM      1  C   LIG A   1      -7.401  -1.508 125.228  0.00  0.00    -0.003 C 
ATOM      2  C   LIG A   1      -8.356  -0.469 125.840  0.00  0.00    +0.029 C 
ATOM      3  C   LIG A   1      -8.244   0.953 125.240  0.00  0.00    +0.104 C 
ATOM      4  C   LIG A   1      -7.185   1.777 125.911  0.00  0.00    +0.038 A 
ATOM      5  C   LIG A   1      -6.278   2.616 125.289  0.00  0.00    -0.016 A 
ATOM      6  C   LIG A   1      -5.381   3.087 126.283  0.00  0.00    +0.007 A 
ATOM      7  C   LIG A   1      -5.850   2.602 127.515  0.00  0.00    +0.047 A 
ATOM      8  N   LIG A   1      -7.002   1.898 127.254  0.00  0.00    -0.356 N 
ATOM      9  H   LIG A   1      -7.550   1.414 127.966  0.00  0.00    +0.166 HD
ATOM     10  C   LIG A   1      -5.185   2.836 128.718  0.00  0.00    +0.030 A 
ATOM     11  C   LIG A   1      -4.001   3.574 128.669  0.00  0.00    +0.048 A 
ATOM     12  C   LIG A   1      -3.520   4.099 127.466  0.00  0.00    +0.121 A 
ATOM     13  C   LIG A   1      -4.201   3.857 126.268  0.00  0.00    +0.056 A 
ATOM     14  C   LIG A   1      -6.325   2.826 123.819  0.00  0.00    +0.053 C 
ATOM     15  C   LIG A   1      -7.694   2.328 123.269  0.00  0.00    +0.090 C 
ATOM     16  N   LIG A   1      -8.119   0.988 123.758  0.00  0.00    -0.293 NA
ATOM     17  C   LIG A   1      -7.282  -0.066 123.166  0.00  0.00    +0.088 C 
ATOM     18  C   LIG A   1      -7.603  -1.481 123.688  0.00  0.00    +0.006 C 
ENDROOT
BRANCH  12  19
ATOM     19  O   LIG A   1      -2.343   4.792 127.569  0.00  0.00    -0.495 OA
ATOM     20  C   LIG A   1      -2.416   6.011 128.301  0.00  0.00    +0.277 C 
ENDBRANCH  12  19
BRANCH  18  21
ATOM     21  C   LIG A   1      -9.020  -1.913 123.223  0.00  0.00    +0.002 C 
ATOM     22  C   LIG A   1      -9.409  -3.325 123.640  0.00  0.00    +0.004 C 
ENDBRANCH  18  21
BRANCH   1  23
ATOM     23  C   LIG A   1      -5.902  -1.334 125.601  0.00  0.00    +0.032 C 
BRANCH  23  24
ATOM     24  C   LIG A   1      -5.528  -1.679 127.044  0.00  0.00    +0.156 C 
BRANCH  24  25
ATOM     25  O   LIG A   1      -4.965  -0.585 127.748  0.00  0.00    -0.395 OA
ATOM     26  H   LIG A   1      -4.531  -0.034 127.071  0.00  0.00    +0.209 HD
ENDBRANCH  24  25
ENDBRANCH  23  24
ENDBRANCH   1  23
TORSDOF 5
ENDMDL
MODEL 6
REMARK VINA RESULT:      -6.6      3.868      5.329
REMARK  Name = NuBBE_1571
REMARK  7 active torsions:
REMARK  status: ('A' for Active; 'I' for Inactive)
REMARK    1  A    between atoms: C_1  and  C_2
REMARK    2  A    between atoms: C_1  and  C_4
REMARK    3  A    between atoms: C_2  and  O_3
REMARK    4  A    between atoms: C_17  and  O_19
REMARK    5  A    between atoms: O_19  and  C_20
REMARK    6  A    between atoms: C_25  and  C_27
REMARK    7  A    between atoms: C_27  and  C_28
REMARK                            x       y       z     vdW  Elec       q    Type
REMARK                         _______ _______ _______ _____ _____    ______ ____
ROOT
ATOM      1  C   LIG A   1      -7.493  -0.417 124.122  0.00  0.00    -0.003 C 
ATOM      2  C   LIG A   1      -6.219  -0.960 124.794  0.00  0.00    +0.029 C 
ATOM      3  C   LIG A   1      -6.175  -0.801 126.333  0.00  0.00    +0.104 C 
ATOM      4  C   LIG A   1      -5.629   0.531 126.756  0.00  0.00    +0.038 A 
ATOM      5  C   LIG A   1      -6.116   1.335 127.770  0.00  0.00    -0.016 A 
ATOM      6  C   LIG A   1      -5.390   2.554 127.736  0.00  0.00    +0.007 A 
ATOM      7  C   LIG A   1      -4.391   2.403 126.760  0.00  0.00    +0.047 A 
ATOM      8  N   LIG A   1      -4.509   1.126 126.263  0.00  0.00    -0.356 N 
ATOM      9  H   LIG A   1      -3.922   0.744 125.521  0.00  0.00    +0.166 HD
ATOM     10  C   LIG A   1      -3.506   3.426 126.424  0.00  0.00    +0.030 A 
ATOM     11  C   LIG A   1      -3.646   4.646 127.089  0.00  0.00    +0.048 A 
ATOM     12  C   LIG A   1      -4.608   4.824 128.088  0.00  0.00    +0.121 A 
ATOM     13  C   LIG A   1      -5.487   3.785 128.415  0.00  0.00    +0.056 A 
ATOM     14  C   LIG A   1      -7.254   0.885 128.614  0.00  0.00    +0.053 C 
ATOM     15  C   LIG A   1      -7.456  -0.648 128.433  0.00  0.00    +0.090 C 
ATOM     16  N   LIG A   1      -7.454  -1.121 127.022  0.00  0.00    -0.293 NA
ATOM     17  C   LIG A   1      -8.675  -0.686 126.331  0.00  0.00    +0.088 C 
ATOM     18  C   LIG A   1      -8.711  -1.065 124.836  0.00  0.00    +0.006 C 
ENDROOT
BRANCH  12  19
ATOM     19  O   LIG A   1      -4.636   6.075 128.645  0.00  0.00    -0.495 OA
ATOM     20  C   LIG A   1      -3.500   6.889 128.371  0.00  0.00    +0.277 C 
ENDBRANCH  12  19
BRANCH  18  21
ATOM     21  C   LIG A   1      -8.798  -2.606 124.677  0.00  0.00    +0.002 C 
ATOM     22  C   LIG A   1      -9.397  -3.064 123.354  0.00  0.00    +0.004 C 
ENDBRANCH  18  21
BRANCH   1  23
ATOM     23  C   LIG A   1      -7.618   1.132 124.090  0.00  0.00    +0.032 C 
BRANCH  23  24
ATOM     24  C   LIG A   1      -8.945   1.685 123.567  0.00  0.00    +0.156 C 
BRANCH  24  25
ATOM     25  O   LIG A   1      -9.704   2.344 124.567  0.00  0.00    -0.395 OA
ATOM     26  H   LIG A   1      -9.309   3.231 124.652  0.00  0.00    +0.209 HD
ENDBRANCH  24  25
ENDBRANCH  23  24
ENDBRANCH   1  23
TORSDOF 5
ENDMDL
MODEL 7
REMARK VINA RESULT:      -6.6      2.779      7.198
REMARK  Name = NuBBE_1571
REMARK  7 active torsions:
REMARK  status: ('A' for Active; 'I' for Inactive)
REMARK    1  A    between atoms: C_1  and  C_2
REMARK    2  A    between atoms: C_1  and  C_4
REMARK    3  A    between atoms: C_2  and  O_3
REMARK    4  A    between atoms: C_17  and  O_19
REMARK    5  A    between atoms: O_19  and  C_20
REMARK    6  A    between atoms: C_25  and  C_27
REMARK    7  A    between atoms: C_27  and  C_28
REMARK                            x       y       z     vdW  Elec       q    Type
REMARK                         _______ _______ _______ _____ _____    ______ ____
ROOT
ATOM      1  C   LIG A   1      -9.318  -0.052 124.270  0.00  0.00    -0.003 C 
ATOM      2  C   LIG A   1      -9.466   0.736 125.583  0.00  0.00    +0.029 C 
ATOM      3  C   LIG A   1      -8.137   1.235 126.198  0.00  0.00    +0.104 C 
ATOM      4  C   LIG A   1      -7.493   0.208 127.082  0.00  0.00    +0.038 A 
ATOM      5  C   LIG A   1      -6.147  -0.103 127.136  0.00  0.00    -0.016 A 
ATOM      6  C   LIG A   1      -5.999  -1.217 128.004  0.00  0.00    +0.007 A 
ATOM      7  C   LIG A   1      -7.268  -1.476 128.548  0.00  0.00    +0.047 A 
ATOM      8  N   LIG A   1      -8.122  -0.526 128.040  0.00  0.00    -0.356 N 
ATOM      9  H   LIG A   1      -9.120  -0.483 128.249  0.00  0.00    +0.166 HD
ATOM     10  C   LIG A   1      -7.510  -2.537 129.420  0.00  0.00    +0.030 A 
ATOM     11  C   LIG A   1      -6.436  -3.368 129.740  0.00  0.00    +0.048 A 
ATOM     12  C   LIG A   1      -5.152  -3.122 129.243  0.00  0.00    +0.121 A 
ATOM     13  C   LIG A   1      -4.925  -2.052 128.371  0.00  0.00    +0.056 A 
ATOM     14  C   LIG A   1      -5.162   0.646 126.312  0.00  0.00    +0.053 C 
ATOM     15  C   LIG A   1      -5.816   1.960 125.794  0.00  0.00    +0.090 C 
ATOM     16  N   LIG A   1      -7.176   1.801 125.212  0.00  0.00    -0.293 NA
ATOM     17  C   LIG A   1      -7.106   1.103 123.921  0.00  0.00    +0.088 C 
ATOM     18  C   LIG A   1      -8.484   0.821 123.291  0.00  0.00    +0.006 C 
ENDROOT
BRANCH  12  19
ATOM     19  O   LIG A   1      -4.199  -4.026 129.633  0.00  0.00    -0.495 OA
ATOM     20  C   LIG A   1      -2.885  -3.773 129.149  0.00  0.00    +0.277 C 
ENDBRANCH  12  19
BRANCH  18  21
ATOM     21  C   LIG A   1      -9.169   2.154 122.885  0.00  0.00    +0.002 C 
ATOM     22  C   LIG A   1      -8.271   3.106 122.108  0.00  0.00    +0.004 C 
ENDBRANCH  18  21
BRANCH   1  23
ATOM     23  C   LIG A   1      -8.707  -1.474 124.414  0.00  0.00    +0.032 C 
BRANCH  23  24
ATOM     24  C   LIG A   1      -8.969  -2.435 123.253  0.00  0.00    +0.156 C 
BRANCH  24  25
ATOM     25  O   LIG A   1     -10.075  -3.292 123.481  0.00  0.00    -0.395 OA
ATOM     26  H   LIG A   1      -9.785  -4.176 123.192  0.00  0.00    +0.209 HD
ENDBRANCH  24  25
ENDBRANCH  23  24
ENDBRANCH   1  23
TORSDOF 5
ENDMDL
MODEL 8
REMARK VINA RESULT:      -6.6      3.768      7.464
REMARK  Name = NuBBE_1571
REMARK  7 active torsions:
REMARK  status: ('A' for Active; 'I' for Inactive)
REMARK    1  A    between atoms: C_1  and  C_2
REMARK    2  A    between atoms: C_1  and  C_4
REMARK    3  A    between atoms: C_2  and  O_3
REMARK    4  A    between atoms: C_17  and  O_19
REMARK    5  A    between atoms: O_19  and  C_20
REMARK    6  A    between atoms: C_25  and  C_27
REMARK    7  A    between atoms: C_27  and  C_28
REMARK                            x       y       z     vdW  Elec       q    Type
REMARK                         _______ _______ _______ _____ _____    ______ ____
ROOT
ATOM      1  C   LIG A   1      -7.613  -3.123 124.162  0.00  0.00    -0.003 C 
ATOM      2  C   LIG A   1      -8.783  -3.334 125.138  0.00  0.00    +0.029 C 
ATOM      3  C   LIG A   1      -9.043  -2.156 126.109  0.00  0.00    +0.104 C 
ATOM      4  C   LIG A   1      -8.210  -2.245 127.353  0.00  0.00    +0.038 A 
ATOM      5  C   LIG A   1      -7.554  -1.201 127.980  0.00  0.00    -0.016 A 
ATOM      6  C   LIG A   1      -6.782  -1.753 129.035  0.00  0.00    +0.007 A 
ATOM      7  C   LIG A   1      -7.089  -3.123 129.087  0.00  0.00    +0.047 A 
ATOM      8  N   LIG A   1      -8.033  -3.358 128.117  0.00  0.00    -0.356 N 
ATOM      9  H   LIG A   1      -8.428  -4.277 127.912  0.00  0.00    +0.166 HD
ATOM     10  C   LIG A   1      -6.478  -3.997 129.986  0.00  0.00    +0.030 A 
ATOM     11  C   LIG A   1      -5.517  -3.469 130.850  0.00  0.00    +0.048 A 
ATOM     12  C   LIG A   1      -5.208  -2.105 130.848  0.00  0.00    +0.121 A 
ATOM     13  C   LIG A   1      -5.832  -1.241 129.942  0.00  0.00    +0.056 A 
ATOM     14  C   LIG A   1      -7.684   0.189 127.472  0.00  0.00    +0.053 C 
ATOM     15  C   LIG A   1      -8.896   0.273 126.499  0.00  0.00    +0.090 C 
ATOM     16  N   LIG A   1      -8.962  -0.811 125.480  0.00  0.00    -0.293 NA
ATOM     17  C   LIG A   1      -7.902  -0.640 124.477  0.00  0.00    +0.088 C 
ATOM     18  C   LIG A   1      -7.849  -1.772 123.432  0.00  0.00    +0.006 C 
ENDROOT
BRANCH  12  19
ATOM     19  O   LIG A   1      -4.239  -1.732 131.742  0.00  0.00    -0.495 OA
ATOM     20  C   LIG A   1      -3.638  -2.799 132.469  0.00  0.00    +0.277 C 
ENDBRANCH  12  19
BRANCH  18  21
ATOM     21  C   LIG A   1      -9.122  -1.742 122.545  0.00  0.00    +0.002 C 
ATOM     22  C   LIG A   1      -9.755  -0.364 122.408  0.00  0.00    +0.004 C 
ENDBRANCH  18  21
BRANCH   1  23
ATOM     23  C   LIG A   1      -6.197  -3.176 124.803  0.00  0.00    +0.032 C 
BRANCH  23  24
ATOM     24  C   LIG A   1      -5.037  -3.439 123.840  0.00  0.00    +0.156 C 
BRANCH  24  25
ATOM     25  O   LIG A   1      -4.696  -4.811 123.744  0.00  0.00    -0.395 OA
ATOM     26  H   LIG A   1      -3.727  -4.832 123.634  0.00  0.00    +0.209 HD
ENDBRANCH  24  25
ENDBRANCH  23  24
ENDBRANCH   1  23
TORSDOF 5
ENDMDL
MODEL 9
REMARK VINA RESULT:      -6.6      4.223      6.916
REMARK  Name = NuBBE_1571
REMARK  7 active torsions:
REMARK  status: ('A' for Active; 'I' for Inactive)
REMARK    1  A    between atoms: C_1  and  C_2
REMARK    2  A    between atoms: C_1  and  C_4
REMARK    3  A    between atoms: C_2  and  O_3
REMARK    4  A    between atoms: C_17  and  O_19
REMARK    5  A    between atoms: O_19  and  C_20
REMARK    6  A    between atoms: C_25  and  C_27
REMARK    7  A    between atoms: C_27  and  C_28
REMARK                            x       y       z     vdW  Elec       q    Type
REMARK                         _______ _______ _______ _____ _____    ______ ____
ROOT
ATOM      1  C   LIG A   1      -3.417   3.270 128.971  0.00  0.00    -0.003 C 
ATOM      2  C   LIG A   1      -2.867   2.839 127.600  0.00  0.00    +0.029 C 
ATOM      3  C   LIG A   1      -3.798   3.140 126.400  0.00  0.00    +0.104 C 
ATOM      4  C   LIG A   1      -4.793   2.043 126.158  0.00  0.00    +0.038 A 
ATOM      5  C   LIG A   1      -6.131   2.200 125.846  0.00  0.00    -0.016 A 
ATOM      6  C   LIG A   1      -6.722   0.909 125.838  0.00  0.00    +0.007 A 
ATOM      7  C   LIG A   1      -5.682  -0.014 126.035  0.00  0.00    +0.047 A 
ATOM      8  N   LIG A   1      -4.517   0.711 126.123  0.00  0.00    -0.356 N 
ATOM      9  H   LIG A   1      -3.598   0.298 126.288  0.00  0.00    +0.166 HD
ATOM     10  C   LIG A   1      -5.903  -1.388 126.125  0.00  0.00    +0.030 A 
ATOM     11  C   LIG A   1      -7.220  -1.839 126.026  0.00  0.00    +0.048 A 
ATOM     12  C   LIG A   1      -8.277  -0.952 125.798  0.00  0.00    +0.121 A 
ATOM     13  C   LIG A   1      -8.039   0.423 125.707  0.00  0.00    +0.056 A 
ATOM     14  C   LIG A   1      -6.710   3.555 125.653  0.00  0.00    +0.053 C 
ATOM     15  C   LIG A   1      -5.560   4.586 125.461  0.00  0.00    +0.090 C 
ATOM     16  N   LIG A   1      -4.446   4.478 126.443  0.00  0.00    -0.293 NA
ATOM     17  C   LIG A   1      -4.885   4.929 127.771  0.00  0.00    +0.088 C 
ATOM     18  C   LIG A   1      -3.813   4.769 128.867  0.00  0.00    +0.006 C 
ENDROOT
BRANCH  12  19
ATOM     19  O   LIG A   1      -9.515  -1.536 125.733  0.00  0.00    -0.495 OA
ATOM     20  C   LIG A   1      -9.527  -2.954 125.864  0.00  0.00    +0.277 C 
ENDBRANCH  12  19
BRANCH  18  21
ATOM     21  C   LIG A   1      -2.621   5.725 128.594  0.00  0.00    +0.002 C 
ATOM     22  C   LIG A   1      -3.021   7.182 128.409  0.00  0.00    +0.004 C 
ENDBRANCH  18  21
BRANCH   1  23
ATOM     23  C   LIG A   1      -4.596   2.413 129.512  0.00  0.00    +0.032 C 
BRANCH  23  24
ATOM     24  C   LIG A   1      -4.216   1.061 130.118  0.00  0.00    +0.156 C 
BRANCH  24  25
ATOM     25  O   LIG A   1      -4.278  -0.003 129.183  0.00  0.00    -0.395 OA
ATOM     26  H   LIG A   1      -4.464   0.416 128.323  0.00  0.00    +0.209 HD
ENDBRANCH  24  25
ENDBRANCH  23  24
ENDBRANCH   1  23
TORSDOF 5
ENDMDL
