MODEL 1
REMARK VINA RESULT:      -8.2      0.000      0.000
REMARK  Name = NuBBE_676
REMARK  11 active torsions:
REMARK  status: ('A' for Active; 'I' for Inactive)
REMARK    1  A    between atoms: C_4  and  C_6
REMARK    2  A    between atoms: C_8  and  C_9
REMARK    3  A    between atoms: C_9  and  C_10
REMARK    4  A    between atoms: C_10  and  C_12
REMARK    5  A    between atoms: C_10  and  C_13
REMARK    6  A    between atoms: C_13  and  C_16
REMARK    7  A    between atoms: C_25  and  C_26
REMARK    8  A    between atoms: C_27  and  C_28
REMARK    9  A    between atoms: C_28  and  C_30
REMARK   10  A    between atoms: C_28  and  C_31
REMARK   11  A    between atoms: C_31  and  C_32
REMARK                            x       y       z     vdW  Elec       q    Type
REMARK                         _______ _______ _______ _____ _____    ______ ____
ROOT
ATOM      1 CL   LIG A   1      -4.160   2.273 126.426  0.00  0.00    -0.079 Cl
ATOM      2  C   LIG A   1      -5.681   1.447 126.528  0.00  0.00    +0.096 C 
ATOM      3  C   LIG A   1      -5.914   0.671 127.802  0.00  0.00    +0.222 C 
ATOM      4  C   LIG A   1      -7.318   0.072 128.035  0.00  0.00    +0.200 C 
ATOM      5  O   LIG A   1      -7.254  -1.148 128.752  0.00  0.00    -0.442 OA
ATOM      6  C   LIG A   1      -8.179   1.038 128.850  0.00  0.00    +0.070 C 
ATOM      7  C   LIG A   1      -7.926  -0.313 126.738  0.00  0.00    +0.031 C 
ATOM      8  C   LIG A   1      -8.216  -1.619 126.688  0.00  0.00    +0.110 C 
ATOM      9  C   LIG A   1      -7.760  -2.151 127.984  0.00  0.00    +0.344 C 
ATOM     10  O   LIG A   1      -7.773  -3.317 128.338  0.00  0.00    -0.245 OA
ATOM     11  O   LIG A   1      -5.019   0.545 128.638  0.00  0.00    -0.286 OA
ATOM     12  C   LIG A   1      -6.617   1.487 125.555  0.00  0.00    +0.011 C 
ATOM     13  C   LIG A   1      -7.862   0.705 125.714  0.00  0.00    +0.027 C 
ATOM     14  C   LIG A   1      -8.880   1.038 124.899  0.00  0.00    +0.204 C 
ATOM     15  O   LIG A   1      -8.782   1.954 123.862  0.00  0.00    -0.463 OA
ATOM     16  C   LIG A   1      -7.511   2.413 123.508  0.00  0.00    +0.128 C 
ATOM     17  C   LIG A   1      -6.444   2.219 124.303  0.00  0.00    +0.056 C 
ENDROOT
BRANCH   8  18
ATOM     18  C   LIG A   1      -8.737  -2.411 125.543  0.00  0.00    +0.173 C 
ATOM     19  O   LIG A   1      -9.934  -2.697 125.487  0.00  0.00    -0.291 OA
BRANCH  18  20
ATOM     20  C   LIG A   1      -7.792  -2.874 124.431  0.00  0.00    +0.057 C 
ATOM     21  C   LIG A   1      -6.359  -2.831 124.963  0.00  0.00    +0.016 C 
BRANCH  20  22
ATOM     22  C   LIG A   1      -7.929  -2.009 123.167  0.00  0.00    +0.007 C 
ATOM     23  C   LIG A   1      -6.651  -1.255 122.817  0.00  0.00    +0.004 C 
ENDBRANCH  20  22
ENDBRANCH  18  20
ENDBRANCH   8  18
BRANCH  16  24
ATOM     24  C   LIG A   1      -7.395   3.036 122.204  0.00  0.00    +0.042 C 
ATOM     25  C   LIG A   1      -6.296   3.054 121.431  0.00  0.00    -0.020 C 
BRANCH  25  26
ATOM     26  C   LIG A   1      -6.214   3.815 120.124  0.00  0.00    +0.008 C 
ATOM     27  C   LIG A   1      -7.624   4.242 119.708  0.00  0.00    +0.012 C 
BRANCH  26  28
ATOM     28  C   LIG A   1      -5.251   5.008 120.262  0.00  0.00    +0.004 C 
ATOM     29  C   LIG A   1      -4.415   4.972 121.535  0.00  0.00    +0.004 C 
ENDBRANCH  26  28
ENDBRANCH  25  26
ENDBRANCH  16  24
TORSDOF 6
ENDMDL
MODEL 2
REMARK VINA RESULT:      -7.8      3.512      7.801
REMARK  Name = NuBBE_676
REMARK  11 active torsions:
REMARK  status: ('A' for Active; 'I' for Inactive)
REMARK    1  A    between atoms: C_4  and  C_6
REMARK    2  A    between atoms: C_8  and  C_9
REMARK    3  A    between atoms: C_9  and  C_10
REMARK    4  A    between atoms: C_10  and  C_12
REMARK    5  A    between atoms: C_10  and  C_13
REMARK    6  A    between atoms: C_13  and  C_16
REMARK    7  A    between atoms: C_25  and  C_26
REMARK    8  A    between atoms: C_27  and  C_28
REMARK    9  A    between atoms: C_28  and  C_30
REMARK   10  A    between atoms: C_28  and  C_31
REMARK   11  A    between atoms: C_31  and  C_32
REMARK                            x       y       z     vdW  Elec       q    Type
REMARK                         _______ _______ _______ _____ _____    ______ ____
ROOT
ATOM      1 CL   LIG A   1      -8.353   0.822 131.272  0.00  0.00    -0.079 Cl
ATOM      2  C   LIG A   1      -8.040   0.384 129.624  0.00  0.00    +0.096 C 
ATOM      3  C   LIG A   1      -8.469   1.397 128.590  0.00  0.00    +0.222 C 
ATOM      4  C   LIG A   1      -8.049   1.155 127.124  0.00  0.00    +0.200 C 
ATOM      5  O   LIG A   1      -9.024   1.635 126.214  0.00  0.00    -0.442 OA
ATOM      6  C   LIG A   1      -6.740   1.883 126.820  0.00  0.00    +0.070 C 
ATOM      7  C   LIG A   1      -7.995  -0.301 126.847  0.00  0.00    +0.031 C 
ATOM      8  C   LIG A   1      -8.831  -0.655 125.862  0.00  0.00    +0.110 C 
ATOM      9  C   LIG A   1      -9.503   0.598 125.477  0.00  0.00    +0.344 C 
ATOM     10  O   LIG A   1     -10.395   0.723 124.656  0.00  0.00    -0.245 OA
ATOM     11  O   LIG A   1      -9.111   2.398 128.914  0.00  0.00    -0.286 OA
ATOM     12  C   LIG A   1      -7.442  -0.772 129.260  0.00  0.00    +0.011 C 
ATOM     13  C   LIG A   1      -7.266  -1.076 127.824  0.00  0.00    +0.027 C 
ATOM     14  C   LIG A   1      -6.386  -2.050 127.528  0.00  0.00    +0.204 C 
ATOM     15  O   LIG A   1      -5.757  -2.848 128.473  0.00  0.00    -0.463 OA
ATOM     16  C   LIG A   1      -6.205  -2.780 129.794  0.00  0.00    +0.128 C 
ATOM     17  C   LIG A   1      -7.008  -1.787 130.216  0.00  0.00    +0.056 C 
ENDROOT
BRANCH   8  18
ATOM     18  C   LIG A   1      -9.146  -2.017 125.357  0.00  0.00    +0.173 C 
ATOM     19  O   LIG A   1      -9.907  -2.748 125.991  0.00  0.00    -0.291 OA
BRANCH  18  20
ATOM     20  C   LIG A   1      -8.527  -2.516 124.048  0.00  0.00    +0.057 C 
ATOM     21  C   LIG A   1      -9.597  -3.279 123.265  0.00  0.00    +0.016 C 
BRANCH  20  22
ATOM     22  C   LIG A   1      -7.298  -3.406 124.299  0.00  0.00    +0.007 C 
ATOM     23  C   LIG A   1      -5.984  -2.730 123.925  0.00  0.00    +0.004 C 
ENDBRANCH  20  22
ENDBRANCH  18  20
ENDBRANCH   8  18
BRANCH  16  24
ATOM     24  C   LIG A   1      -5.822  -3.878 130.659  0.00  0.00    +0.042 C 
ATOM     25  C   LIG A   1      -6.025  -3.950 131.985  0.00  0.00    -0.020 C 
BRANCH  25  26
ATOM     26  C   LIG A   1      -5.504  -5.083 132.844  0.00  0.00    +0.008 C 
ATOM     27  C   LIG A   1      -3.999  -4.896 133.054  0.00  0.00    +0.012 C 
BRANCH  26  28
ATOM     28  C   LIG A   1      -6.283  -5.149 134.170  0.00  0.00    +0.004 C 
ATOM     29  C   LIG A   1      -7.350  -4.069 134.303  0.00  0.00    +0.004 C 
ENDBRANCH  26  28
ENDBRANCH  25  26
ENDBRANCH  16  24
TORSDOF 6
ENDMDL
MODEL 3
REMARK VINA RESULT:      -7.5      2.618      5.371
REMARK  Name = NuBBE_676
REMARK  11 active torsions:
REMARK  status: ('A' for Active; 'I' for Inactive)
REMARK    1  A    between atoms: C_4  and  C_6
REMARK    2  A    between atoms: C_8  and  C_9
REMARK    3  A    between atoms: C_9  and  C_10
REMARK    4  A    between atoms: C_10  and  C_12
REMARK    5  A    between atoms: C_10  and  C_13
REMARK    6  A    between atoms: C_13  and  C_16
REMARK    7  A    between atoms: C_25  and  C_26
REMARK    8  A    between atoms: C_27  and  C_28
REMARK    9  A    between atoms: C_28  and  C_30
REMARK   10  A    between atoms: C_28  and  C_31
REMARK   11  A    between atoms: C_31  and  C_32
REMARK                            x       y       z     vdW  Elec       q    Type
REMARK                         _______ _______ _______ _____ _____    ______ ____
ROOT
ATOM      1 CL   LIG A   1      -8.383   3.173 123.106  0.00  0.00    -0.079 Cl
ATOM      2  C   LIG A   1      -7.863   1.702 123.860  0.00  0.00    +0.096 C 
ATOM      3  C   LIG A   1      -8.597   0.456 123.427  0.00  0.00    +0.222 C 
ATOM      4  C   LIG A   1      -8.058  -0.906 123.918  0.00  0.00    +0.200 C 
ATOM      5  O   LIG A   1      -9.104  -1.841 124.119  0.00  0.00    -0.442 OA
ATOM      6  C   LIG A   1      -7.103  -1.502 122.884  0.00  0.00    +0.070 C 
ATOM      7  C   LIG A   1      -7.455  -0.757 125.264  0.00  0.00    +0.031 C 
ATOM      8  C   LIG A   1      -8.058  -1.534 126.173  0.00  0.00    +0.110 C 
ATOM      9  C   LIG A   1      -9.132  -2.212 125.427  0.00  0.00    +0.344 C 
ATOM     10  O   LIG A   1      -9.973  -2.966 125.885  0.00  0.00    -0.245 OA
ATOM     11  O   LIG A   1      -9.577   0.525 122.685  0.00  0.00    -0.286 OA
ATOM     12  C   LIG A   1      -6.864   1.642 124.768  0.00  0.00    +0.011 C 
ATOM     13  C   LIG A   1      -6.529   0.345 125.394  0.00  0.00    +0.027 C 
ATOM     14  C   LIG A   1      -5.339   0.277 126.017  0.00  0.00    +0.204 C 
ATOM     15  O   LIG A   1      -4.496   1.362 126.213  0.00  0.00    -0.463 OA
ATOM     16  C   LIG A   1      -4.990   2.638 125.929  0.00  0.00    +0.128 C 
ATOM     17  C   LIG A   1      -6.122   2.815 125.224  0.00  0.00    +0.056 C 
ENDROOT
BRANCH   8  18
ATOM     18  C   LIG A   1      -7.822  -1.602 127.639  0.00  0.00    +0.173 C 
ATOM     19  O   LIG A   1      -7.962  -0.594 128.332  0.00  0.00    -0.291 OA
BRANCH  18  20
ATOM     20  C   LIG A   1      -7.406  -2.923 128.293  0.00  0.00    +0.057 C 
ATOM     21  C   LIG A   1      -8.589  -3.461 129.098  0.00  0.00    +0.016 C 
BRANCH  20  22
ATOM     22  C   LIG A   1      -6.170  -2.752 129.191  0.00  0.00    +0.007 C 
ATOM     23  C   LIG A   1      -4.888  -2.503 128.404  0.00  0.00    +0.004 C 
ENDBRANCH  20  22
ENDBRANCH  18  20
ENDBRANCH   8  18
BRANCH  16  24
ATOM     24  C   LIG A   1      -4.261   3.751 126.504  0.00  0.00    +0.042 C 
ATOM     25  C   LIG A   1      -3.500   3.711 127.610  0.00  0.00    -0.020 C 
BRANCH  25  26
ATOM     26  C   LIG A   1      -2.850   4.939 128.214  0.00  0.00    +0.008 C 
ATOM     27  C   LIG A   1      -3.608   6.184 127.747  0.00  0.00    +0.012 C 
BRANCH  26  28
ATOM     28  C   LIG A   1      -2.802   4.816 129.748  0.00  0.00    +0.004 C 
ATOM     29  C   LIG A   1      -3.780   3.790 130.307  0.00  0.00    +0.004 C 
ENDBRANCH  26  28
ENDBRANCH  25  26
ENDBRANCH  16  24
TORSDOF 6
ENDMDL
MODEL 4
REMARK VINA RESULT:      -7.5      2.388      6.553
REMARK  Name = NuBBE_676
REMARK  11 active torsions:
REMARK  status: ('A' for Active; 'I' for Inactive)
REMARK    1  A    between atoms: C_4  and  C_6
REMARK    2  A    between atoms: C_8  and  C_9
REMARK    3  A    between atoms: C_9  and  C_10
REMARK    4  A    between atoms: C_10  and  C_12
REMARK    5  A    between atoms: C_10  and  C_13
REMARK    6  A    between atoms: C_13  and  C_16
REMARK    7  A    between atoms: C_25  and  C_26
REMARK    8  A    between atoms: C_27  and  C_28
REMARK    9  A    between atoms: C_28  and  C_30
REMARK   10  A    between atoms: C_28  and  C_31
REMARK   11  A    between atoms: C_31  and  C_32
REMARK                            x       y       z     vdW  Elec       q    Type
REMARK                         _______ _______ _______ _____ _____    ______ ____
ROOT
ATOM      1 CL   LIG A   1      -7.766   3.787 127.910  0.00  0.00    -0.079 Cl
ATOM      2  C   LIG A   1      -7.619   2.597 126.658  0.00  0.00    +0.096 C 
ATOM      3  C   LIG A   1      -8.249   2.964 125.336  0.00  0.00    +0.222 C 
ATOM      4  C   LIG A   1      -7.992   2.034 124.131  0.00  0.00    +0.200 C 
ATOM      5  O   LIG A   1      -9.104   1.994 123.254  0.00  0.00    -0.442 OA
ATOM      6  C   LIG A   1      -6.791   2.530 123.326  0.00  0.00    +0.070 C 
ATOM      7  C   LIG A   1      -7.856   0.632 124.593  0.00  0.00    +0.031 C 
ATOM      8  C   LIG A   1      -8.774  -0.170 124.038  0.00  0.00    +0.110 C 
ATOM      9  C   LIG A   1      -9.585   0.724 123.193  0.00  0.00    +0.344 C 
ATOM     10  O   LIG A   1     -10.576   0.419 122.553  0.00  0.00    -0.245 OA
ATOM     11  O   LIG A   1      -8.925   3.988 125.221  0.00  0.00    -0.286 OA
ATOM     12  C   LIG A   1      -6.980   1.418 126.822  0.00  0.00    +0.011 C 
ATOM     13  C   LIG A   1      -6.955   0.446 125.707  0.00  0.00    +0.027 C 
ATOM     14  C   LIG A   1      -6.043  -0.539 125.800  0.00  0.00    +0.204 C 
ATOM     15  O   LIG A   1      -5.243  -0.761 126.911  0.00  0.00    -0.463 OA
ATOM     16  C   LIG A   1      -5.532  -0.054 128.081  0.00  0.00    +0.128 C 
ATOM     17  C   LIG A   1      -6.355   1.010 128.077  0.00  0.00    +0.056 C 
ENDROOT
BRANCH   8  18
ATOM     18  C   LIG A   1      -9.039  -1.607 124.311  0.00  0.00    +0.173 C 
ATOM     19  O   LIG A   1      -9.801  -1.930 125.222  0.00  0.00    -0.291 OA
BRANCH  18  20
ATOM     20  C   LIG A   1      -8.366  -2.690 123.463  0.00  0.00    +0.057 C 
ATOM     21  C   LIG A   1      -7.688  -3.690 124.400  0.00  0.00    +0.016 C 
BRANCH  20  22
ATOM     22  C   LIG A   1      -7.349  -2.094 122.475  0.00  0.00    +0.007 C 
ATOM     23  C   LIG A   1      -5.905  -2.434 122.826  0.00  0.00    +0.004 C 
ENDBRANCH  20  22
ENDBRANCH  18  20
ENDBRANCH   8  18
BRANCH  16  24
ATOM     24  C   LIG A   1      -4.962  -0.579 129.306  0.00  0.00    +0.042 C 
ATOM     25  C   LIG A   1      -4.454  -1.811 129.477  0.00  0.00    -0.020 C 
BRANCH  25  26
ATOM     26  C   LIG A   1      -3.970  -2.329 130.816  0.00  0.00    +0.008 C 
ATOM     27  C   LIG A   1      -4.524  -1.433 131.926  0.00  0.00    +0.012 C 
BRANCH  26  28
ATOM     28  C   LIG A   1      -4.369  -3.806 130.992  0.00  0.00    +0.004 C 
ATOM     29  C   LIG A   1      -5.671  -4.172 130.289  0.00  0.00    +0.004 C 
ENDBRANCH  26  28
ENDBRANCH  25  26
ENDBRANCH  16  24
TORSDOF 6
ENDMDL
MODEL 5
REMARK VINA RESULT:      -7.3      6.799      9.514
REMARK  Name = NuBBE_676
REMARK  11 active torsions:
REMARK  status: ('A' for Active; 'I' for Inactive)
REMARK    1  A    between atoms: C_4  and  C_6
REMARK    2  A    between atoms: C_8  and  C_9
REMARK    3  A    between atoms: C_9  and  C_10
REMARK    4  A    between atoms: C_10  and  C_12
REMARK    5  A    between atoms: C_10  and  C_13
REMARK    6  A    between atoms: C_13  and  C_16
REMARK    7  A    between atoms: C_25  and  C_26
REMARK    8  A    between atoms: C_27  and  C_28
REMARK    9  A    between atoms: C_28  and  C_30
REMARK   10  A    between atoms: C_28  and  C_31
REMARK   11  A    between atoms: C_31  and  C_32
REMARK                            x       y       z     vdW  Elec       q    Type
REMARK                         _______ _______ _______ _____ _____    ______ ____
ROOT
ATOM      1 CL   LIG A   1      -8.293   2.490 128.976  0.00  0.00    -0.079 Cl
ATOM      2  C   LIG A   1      -7.305   3.545 129.933  0.00  0.00    +0.096 C 
ATOM      3  C   LIG A   1      -5.969   2.981 130.351  0.00  0.00    +0.222 C 
ATOM      4  C   LIG A   1      -4.968   3.933 131.041  0.00  0.00    +0.200 C 
ATOM      5  O   LIG A   1      -4.173   3.253 131.997  0.00  0.00    -0.442 OA
ATOM      6  C   LIG A   1      -4.020   4.545 130.009  0.00  0.00    +0.070 C 
ATOM      7  C   LIG A   1      -5.699   4.941 131.845  0.00  0.00    +0.031 C 
ATOM      8  C   LIG A   1      -5.365   4.888 133.141  0.00  0.00    +0.110 C 
ATOM      9  C   LIG A   1      -4.396   3.782 133.229  0.00  0.00    +0.344 C 
ATOM     10  O   LIG A   1      -3.881   3.345 134.244  0.00  0.00    -0.245 OA
ATOM     11  O   LIG A   1      -5.680   1.805 130.123  0.00  0.00    -0.286 OA
ATOM     12  C   LIG A   1      -7.675   4.796 130.287  0.00  0.00    +0.011 C 
ATOM     13  C   LIG A   1      -6.783   5.598 131.150  0.00  0.00    +0.027 C 
ATOM     14  C   LIG A   1      -7.029   6.920 131.192  0.00  0.00    +0.204 C 
ATOM     15  O   LIG A   1      -8.123   7.530 130.593  0.00  0.00    -0.463 OA
ATOM     16  C   LIG A   1      -9.136   6.712 130.087  0.00  0.00    +0.128 C 
ATOM     17  C   LIG A   1      -8.955   5.391 129.912  0.00  0.00    +0.056 C 
ENDROOT
BRANCH   8  18
ATOM     18  C   LIG A   1      -5.938   5.653 134.279  0.00  0.00    +0.173 C 
ATOM     19  O   LIG A   1      -5.227   6.425 134.922  0.00  0.00    -0.291 OA
BRANCH  18  20
ATOM     20  C   LIG A   1      -7.413   5.484 134.658  0.00  0.00    +0.057 C 
ATOM     21  C   LIG A   1      -7.613   6.014 136.078  0.00  0.00    +0.016 C 
BRANCH  20  22
ATOM     22  C   LIG A   1      -7.866   4.018 134.555  0.00  0.00    +0.007 C 
ATOM     23  C   LIG A   1      -9.180   3.851 133.800  0.00  0.00    +0.004 C 
ENDBRANCH  20  22
ENDBRANCH  18  20
ENDBRANCH   8  18
BRANCH  16  24
ATOM     24  C   LIG A   1     -10.413   7.352 129.839  0.00  0.00    +0.042 C 
ATOM     25  C   LIG A   1     -10.933   7.639 128.634  0.00  0.00    -0.020 C 
BRANCH  25  26
ATOM     26  C   LIG A   1     -12.227   8.405 128.451  0.00  0.00    +0.008 C 
ATOM     27  C   LIG A   1     -13.259   7.488 127.788  0.00  0.00    +0.012 C 
BRANCH  26  28
ATOM     28  C   LIG A   1     -12.712   8.963 129.801  0.00  0.00    +0.004 C 
ATOM     29  C   LIG A   1     -13.251  10.385 129.713  0.00  0.00    +0.004 C 
ENDBRANCH  26  28
ENDBRANCH  25  26
ENDBRANCH  16  24
TORSDOF 6
ENDMDL
MODEL 6
REMARK VINA RESULT:      -6.9      5.959      9.196
REMARK  Name = NuBBE_676
REMARK  11 active torsions:
REMARK  status: ('A' for Active; 'I' for Inactive)
REMARK    1  A    between atoms: C_4  and  C_6
REMARK    2  A    between atoms: C_8  and  C_9
REMARK    3  A    between atoms: C_9  and  C_10
REMARK    4  A    between atoms: C_10  and  C_12
REMARK    5  A    between atoms: C_10  and  C_13
REMARK    6  A    between atoms: C_13  and  C_16
REMARK    7  A    between atoms: C_25  and  C_26
REMARK    8  A    between atoms: C_27  and  C_28
REMARK    9  A    between atoms: C_28  and  C_30
REMARK   10  A    between atoms: C_28  and  C_31
REMARK   11  A    between atoms: C_31  and  C_32
REMARK                            x       y       z     vdW  Elec       q    Type
REMARK                         _______ _______ _______ _____ _____    ______ ____
ROOT
ATOM      1 CL   LIG A   1     -10.894   3.656 130.366  0.00  0.00    -0.079 Cl
ATOM      2  C   LIG A   1      -9.231   3.925 130.776  0.00  0.00    +0.096 C 
ATOM      3  C   LIG A   1      -8.891   5.326 131.225  0.00  0.00    +0.222 C 
ATOM      4  C   LIG A   1      -7.474   5.581 131.782  0.00  0.00    +0.200 C 
ATOM      5  O   LIG A   1      -7.018   6.887 131.474  0.00  0.00    -0.442 OA
ATOM      6  C   LIG A   1      -7.469   5.441 133.304  0.00  0.00    +0.070 C 
ATOM      7  C   LIG A   1      -6.496   4.697 131.103  0.00  0.00    +0.031 C 
ATOM      8  C   LIG A   1      -5.542   5.395 130.473  0.00  0.00    +0.110 C 
ATOM      9  C   LIG A   1      -5.902   6.805 130.702  0.00  0.00    +0.344 C 
ATOM     10  O   LIG A   1      -5.335   7.783 130.247  0.00  0.00    -0.245 OA
ATOM     11  O   LIG A   1      -9.729   6.227 131.172  0.00  0.00    -0.286 OA
ATOM     12  C   LIG A   1      -8.284   2.963 130.718  0.00  0.00    +0.011 C 
ATOM     13  C   LIG A   1      -6.882   3.306 131.038  0.00  0.00    +0.027 C 
ATOM     14  C   LIG A   1      -6.060   2.270 131.290  0.00  0.00    +0.204 C 
ATOM     15  O   LIG A   1      -6.416   0.937 131.139  0.00  0.00    -0.463 OA
ATOM     16  C   LIG A   1      -7.623   0.647 130.499  0.00  0.00    +0.128 C 
ATOM     17  C   LIG A   1      -8.556   1.593 130.289  0.00  0.00    +0.056 C 
ENDROOT
BRANCH   8  18
ATOM     18  C   LIG A   1      -4.447   4.893 129.602  0.00  0.00    +0.173 C 
ATOM     19  O   LIG A   1      -4.690   4.547 128.445  0.00  0.00    -0.291 OA
BRANCH  18  20
ATOM     20  C   LIG A   1      -3.015   4.804 130.137  0.00  0.00    +0.057 C 
ATOM     21  C   LIG A   1      -3.071   4.374 131.603  0.00  0.00    +0.016 C 
BRANCH  20  22
ATOM     22  C   LIG A   1      -2.264   6.137 129.989  0.00  0.00    +0.007 C 
ATOM     23  C   LIG A   1      -1.883   6.760 131.327  0.00  0.00    +0.004 C 
ENDBRANCH  20  22
ENDBRANCH  18  20
ENDBRANCH   8  18
BRANCH  16  24
ATOM     24  C   LIG A   1      -7.779  -0.707 130.006  0.00  0.00    +0.042 C 
ATOM     25  C   LIG A   1      -6.820  -1.646 129.957  0.00  0.00    -0.020 C 
BRANCH  25  26
ATOM     26  C   LIG A   1      -7.025  -3.010 129.331  0.00  0.00    +0.008 C 
ATOM     27  C   LIG A   1      -6.326  -4.064 130.193  0.00  0.00    +0.012 C 
BRANCH  26  28
ATOM     28  C   LIG A   1      -8.528  -3.293 129.152  0.00  0.00    +0.004 C 
ATOM     29  C   LIG A   1      -8.870  -3.949 127.820  0.00  0.00    +0.004 C 
ENDBRANCH  26  28
ENDBRANCH  25  26
ENDBRANCH  16  24
TORSDOF 6
ENDMDL
MODEL 7
REMARK VINA RESULT:      -6.8      4.701      8.166
REMARK  Name = NuBBE_676
REMARK  11 active torsions:
REMARK  status: ('A' for Active; 'I' for Inactive)
REMARK    1  A    between atoms: C_4  and  C_6
REMARK    2  A    between atoms: C_8  and  C_9
REMARK    3  A    between atoms: C_9  and  C_10
REMARK    4  A    between atoms: C_10  and  C_12
REMARK    5  A    between atoms: C_10  and  C_13
REMARK    6  A    between atoms: C_13  and  C_16
REMARK    7  A    between atoms: C_25  and  C_26
REMARK    8  A    between atoms: C_27  and  C_28
REMARK    9  A    between atoms: C_28  and  C_30
REMARK   10  A    between atoms: C_28  and  C_31
REMARK   11  A    between atoms: C_31  and  C_32
REMARK                            x       y       z     vdW  Elec       q    Type
REMARK                         _______ _______ _______ _____ _____    ______ ____
ROOT
ATOM      1 CL   LIG A   1     -10.823   3.537 130.470  0.00  0.00    -0.079 Cl
ATOM      2  C   LIG A   1      -9.106   3.748 130.575  0.00  0.00    +0.096 C 
ATOM      3  C   LIG A   1      -8.647   4.980 131.316  0.00  0.00    +0.222 C 
ATOM      4  C   LIG A   1      -7.137   5.127 131.607  0.00  0.00    +0.200 C 
ATOM      5  O   LIG A   1      -6.730   6.484 131.589  0.00  0.00    -0.442 OA
ATOM      6  C   LIG A   1      -6.807   4.569 132.992  0.00  0.00    +0.070 C 
ATOM      7  C   LIG A   1      -6.348   4.507 130.516  0.00  0.00    +0.031 C 
ATOM      8  C   LIG A   1      -5.538   5.391 129.918  0.00  0.00    +0.110 C 
ATOM      9  C   LIG A   1      -5.809   6.666 130.605  0.00  0.00    +0.344 C 
ATOM     10  O   LIG A   1      -5.333   7.754 130.333  0.00  0.00    -0.245 OA
ATOM     11  O   LIG A   1      -9.456   5.826 131.698  0.00  0.00    -0.286 OA
ATOM     12  C   LIG A   1      -8.214   2.879 130.049  0.00  0.00    +0.011 C 
ATOM     13  C   LIG A   1      -6.769   3.175 130.146  0.00  0.00    +0.027 C 
ATOM     14  C   LIG A   1      -5.935   2.144 129.917  0.00  0.00    +0.204 C 
ATOM     15  O   LIG A   1      -6.343   0.893 129.477  0.00  0.00    -0.463 OA
ATOM     16  C   LIG A   1      -7.666   0.744 129.054  0.00  0.00    +0.128 C 
ATOM     17  C   LIG A   1      -8.601   1.673 129.321  0.00  0.00    +0.056 C 
ENDROOT
BRANCH   8  18
ATOM     18  C   LIG A   1      -4.667   5.196 128.730  0.00  0.00    +0.173 C 
ATOM     19  O   LIG A   1      -5.117   5.389 127.600  0.00  0.00    -0.291 OA
BRANCH  18  20
ATOM     20  C   LIG A   1      -3.211   4.755 128.903  0.00  0.00    +0.057 C 
ATOM     21  C   LIG A   1      -2.301   5.876 128.399  0.00  0.00    +0.016 C 
BRANCH  20  22
ATOM     22  C   LIG A   1      -2.918   3.441 128.161  0.00  0.00    +0.007 C 
ATOM     23  C   LIG A   1      -2.079   3.638 126.905  0.00  0.00    +0.004 C 
ENDBRANCH  20  22
ENDBRANCH  18  20
ENDBRANCH   8  18
BRANCH  16  24
ATOM     24  C   LIG A   1      -7.953  -0.425 128.246  0.00  0.00    +0.042 C 
ATOM     25  C   LIG A   1      -7.629  -1.693 128.546  0.00  0.00    -0.020 C 
BRANCH  25  26
ATOM     26  C   LIG A   1      -7.868  -2.855 127.603  0.00  0.00    +0.008 C 
ATOM     27  C   LIG A   1      -8.806  -3.859 128.278  0.00  0.00    +0.012 C 
BRANCH  26  28
ATOM     28  C   LIG A   1      -8.414  -2.346 126.257  0.00  0.00    +0.004 C 
ATOM     29  C   LIG A   1      -8.477  -3.421 125.180  0.00  0.00    +0.004 C 
ENDBRANCH  26  28
ENDBRANCH  25  26
ENDBRANCH  16  24
TORSDOF 6
ENDMDL
MODEL 8
REMARK VINA RESULT:      -6.8      3.737      6.423
REMARK  Name = NuBBE_676
REMARK  11 active torsions:
REMARK  status: ('A' for Active; 'I' for Inactive)
REMARK    1  A    between atoms: C_4  and  C_6
REMARK    2  A    between atoms: C_8  and  C_9
REMARK    3  A    between atoms: C_9  and  C_10
REMARK    4  A    between atoms: C_10  and  C_12
REMARK    5  A    between atoms: C_10  and  C_13
REMARK    6  A    between atoms: C_13  and  C_16
REMARK    7  A    between atoms: C_25  and  C_26
REMARK    8  A    between atoms: C_27  and  C_28
REMARK    9  A    between atoms: C_28  and  C_30
REMARK   10  A    between atoms: C_28  and  C_31
REMARK   11  A    between atoms: C_31  and  C_32
REMARK                            x       y       z     vdW  Elec       q    Type
REMARK                         _______ _______ _______ _____ _____    ______ ____
ROOT
ATOM      1 CL   LIG A   1      -6.910   3.241 128.521  0.00  0.00    -0.079 Cl
ATOM      2  C   LIG A   1      -7.230   1.835 129.482  0.00  0.00    +0.096 C 
ATOM      3  C   LIG A   1      -7.570   2.101 130.929  0.00  0.00    +0.222 C 
ATOM      4  C   LIG A   1      -8.049   0.911 131.788  0.00  0.00    +0.200 C 
ATOM      5  O   LIG A   1      -7.635   1.040 133.138  0.00  0.00    -0.442 OA
ATOM      6  C   LIG A   1      -9.576   0.834 131.783  0.00  0.00    +0.070 C 
ATOM      7  C   LIG A   1      -7.392  -0.338 131.336  0.00  0.00    +0.031 C 
ATOM      8  C   LIG A   1      -6.676  -0.911 132.313  0.00  0.00    +0.110 C 
ATOM      9  C   LIG A   1      -6.825  -0.003 133.463  0.00  0.00    +0.344 C 
ATOM     10  O   LIG A   1      -6.282  -0.109 134.549  0.00  0.00    -0.245 OA
ATOM     11  O   LIG A   1      -7.491   3.237 131.398  0.00  0.00    -0.286 OA
ATOM     12  C   LIG A   1      -7.199   0.575 128.995  0.00  0.00    +0.011 C 
ATOM     13  C   LIG A   1      -7.436  -0.562 129.909  0.00  0.00    +0.027 C 
ATOM     14  C   LIG A   1      -7.723  -1.741 129.327  0.00  0.00    +0.204 C 
ATOM     15  O   LIG A   1      -7.678  -1.968 127.959  0.00  0.00    -0.463 OA
ATOM     16  C   LIG A   1      -7.110  -0.983 127.147  0.00  0.00    +0.128 C 
ATOM     17  C   LIG A   1      -6.875   0.259 127.606  0.00  0.00    +0.056 C 
ENDROOT
BRANCH   8  18
ATOM     18  C   LIG A   1      -5.797  -2.107 132.240  0.00  0.00    +0.173 C 
ATOM     19  O   LIG A   1      -4.611  -1.981 131.933  0.00  0.00    -0.291 OA
BRANCH  18  20
ATOM     20  C   LIG A   1      -6.360  -3.498 132.545  0.00  0.00    +0.057 C 
ATOM     21  C   LIG A   1      -6.395  -3.686 134.062  0.00  0.00    +0.016 C 
BRANCH  20  22
ATOM     22  C   LIG A   1      -5.531  -4.610 131.879  0.00  0.00    +0.007 C 
ATOM     23  C   LIG A   1      -5.796  -4.737 130.383  0.00  0.00    +0.004 C 
ENDBRANCH  20  22
ENDBRANCH  18  20
ENDBRANCH   8  18
BRANCH  16  24
ATOM     24  C   LIG A   1      -6.716  -1.397 125.815  0.00  0.00    +0.042 C 
ATOM     25  C   LIG A   1      -6.825  -2.636 125.308  0.00  0.00    -0.020 C 
BRANCH  25  26
ATOM     26  C   LIG A   1      -6.295  -3.022 123.942  0.00  0.00    +0.008 C 
ATOM     27  C   LIG A   1      -6.604  -1.897 122.952  0.00  0.00    +0.012 C 
BRANCH  26  28
ATOM     28  C   LIG A   1      -4.791  -3.342 124.025  0.00  0.00    +0.004 C 
ATOM     29  C   LIG A   1      -4.457  -4.788 123.680  0.00  0.00    +0.004 C 
ENDBRANCH  26  28
ENDBRANCH  25  26
ENDBRANCH  16  24
TORSDOF 6
ENDMDL
MODEL 9
REMARK VINA RESULT:      -6.8      4.456      6.942
REMARK  Name = NuBBE_676
REMARK  11 active torsions:
REMARK  status: ('A' for Active; 'I' for Inactive)
REMARK    1  A    between atoms: C_4  and  C_6
REMARK    2  A    between atoms: C_8  and  C_9
REMARK    3  A    between atoms: C_9  and  C_10
REMARK    4  A    between atoms: C_10  and  C_12
REMARK    5  A    between atoms: C_10  and  C_13
REMARK    6  A    between atoms: C_13  and  C_16
REMARK    7  A    between atoms: C_25  and  C_26
REMARK    8  A    between atoms: C_27  and  C_28
REMARK    9  A    between atoms: C_28  and  C_30
REMARK   10  A    between atoms: C_28  and  C_31
REMARK   11  A    between atoms: C_31  and  C_32
REMARK                            x       y       z     vdW  Elec       q    Type
REMARK                         _______ _______ _______ _____ _____    ______ ____
ROOT
ATOM      1 CL   LIG A   1      -8.742   1.248 130.538  0.00  0.00    -0.079 Cl
ATOM      2  C   LIG A   1      -7.940  -0.199 131.053  0.00  0.00    +0.096 C 
ATOM      3  C   LIG A   1      -7.620  -0.275 132.527  0.00  0.00    +0.222 C 
ATOM      4  C   LIG A   1      -7.079  -1.611 133.080  0.00  0.00    +0.200 C 
ATOM      5  O   LIG A   1      -6.168  -1.406 134.145  0.00  0.00    -0.442 OA
ATOM      6  C   LIG A   1      -8.227  -2.466 133.618  0.00  0.00    +0.070 C 
ATOM      7  C   LIG A   1      -6.266  -2.295 132.046  0.00  0.00    +0.031 C 
ATOM      8  C   LIG A   1      -5.006  -2.499 132.453  0.00  0.00    +0.110 C 
ATOM      9  C   LIG A   1      -4.950  -1.903 133.799  0.00  0.00    +0.344 C 
ATOM     10  O   LIG A   1      -3.966  -1.807 134.513  0.00  0.00    -0.245 OA
ATOM     11  O   LIG A   1      -7.811   0.692 133.265  0.00  0.00    -0.286 OA
ATOM     12  C   LIG A   1      -7.621  -1.212 130.218  0.00  0.00    +0.011 C 
ATOM     13  C   LIG A   1      -6.890  -2.384 130.746  0.00  0.00    +0.027 C 
ATOM     14  C   LIG A   1      -6.896  -3.485 129.973  0.00  0.00    +0.204 C 
ATOM     15  O   LIG A   1      -7.421  -3.535 128.689  0.00  0.00    -0.463 OA
ATOM     16  C   LIG A   1      -7.785  -2.331 128.080  0.00  0.00    +0.128 C 
ATOM     17  C   LIG A   1      -7.905  -1.192 128.785  0.00  0.00    +0.056 C 
ENDROOT
BRANCH   8  18
ATOM     18  C   LIG A   1      -3.861  -3.056 131.686  0.00  0.00    +0.173 C 
ATOM     19  O   LIG A   1      -3.386  -4.149 131.997  0.00  0.00    -0.291 OA
BRANCH  18  20
ATOM     20  C   LIG A   1      -3.269  -2.276 130.509  0.00  0.00    +0.057 C 
ATOM     21  C   LIG A   1      -3.709  -0.817 130.622  0.00  0.00    +0.016 C 
BRANCH  20  22
ATOM     22  C   LIG A   1      -3.695  -2.870 129.156  0.00  0.00    +0.007 C 
ATOM     23  C   LIG A   1      -2.784  -3.998 128.684  0.00  0.00    +0.004 C 
ENDBRANCH  20  22
ENDBRANCH  18  20
ENDBRANCH   8  18
BRANCH  16  24
ATOM     24  C   LIG A   1      -7.946  -2.364 126.640  0.00  0.00    +0.042 C 
ATOM     25  C   LIG A   1      -7.851  -3.451 125.858  0.00  0.00    -0.020 C 
BRANCH  25  26
ATOM     26  C   LIG A   1      -7.927  -3.395 124.346  0.00  0.00    +0.008 C 
ATOM     27  C   LIG A   1      -9.395  -3.293 123.924  0.00  0.00    +0.012 C 
BRANCH  26  28
ATOM     28  C   LIG A   1      -7.076  -2.228 123.813  0.00  0.00    +0.004 C 
ATOM     29  C   LIG A   1      -5.685  -2.648 123.356  0.00  0.00    +0.004 C 
ENDBRANCH  26  28
ENDBRANCH  25  26
ENDBRANCH  16  24
TORSDOF 6
ENDMDL
