MODEL 1
REMARK VINA RESULT:      -6.7      0.000      0.000
REMARK  Name = NuBBE_615
REMARK  9 active torsions:
REMARK  status: ('A' for Active; 'I' for Inactive)
REMARK    1  A    between atoms: C_1  and  C_2
REMARK    2  A    between atoms: C_2  and  C_3
REMARK    3  A    between atoms: C_5  and  C_6
REMARK    4  A    between atoms: C_6  and  O_7
REMARK    5  A    between atoms: C_14  and  C_15
REMARK    6  A    between atoms: C_14  and  O_20
REMARK    7  A    between atoms: C_15  and  O_16
REMARK    8  A    between atoms: O_16  and  C_17
REMARK    9  A    between atoms: C_17  and  C_18
REMARK                            x       y       z     vdW  Elec       q    Type
REMARK                         _______ _______ _______ _____ _____    ______ ____
ROOT
ATOM      1  C   LIG A   1      -6.240  -2.819 123.815  0.00  0.00    +0.011 C 
ATOM      2  C   LIG A   1      -7.417  -2.773 124.798  0.00  0.00    -0.031 C 
ATOM      3  C   LIG A   1      -7.947  -4.216 124.934  0.00  0.00    +0.011 C 
ATOM      4  C   LIG A   1      -6.974  -2.267 126.241  0.00  0.00    +0.025 C 
ATOM      5  C   LIG A   1      -7.413  -0.804 126.274  0.00  0.00    +0.071 C 
ATOM      6  C   LIG A   1      -8.764  -0.960 125.580  0.00  0.00    +0.015 C 
ATOM      7  C   LIG A   1      -8.587  -1.815 124.355  0.00  0.00    -0.001 C 
ATOM      8  C   LIG A   1      -8.510  -0.965 123.091  0.00  0.00    +0.007 C 
ATOM      9  C   LIG A   1      -9.653   0.066 123.082  0.00  0.00    +0.039 C 
ATOM     10  C   LIG A   1      -9.614   1.102 124.247  0.00  0.00    +0.103 C 
ATOM     11  C   LIG A   1      -9.477   0.374 125.614  0.00  0.00    +0.029 C 
ATOM     12  C   LIG A   1      -8.834   1.028 126.871  0.00  0.00    +0.008 C 
ATOM     13  C   LIG A   1      -7.933  -0.073 127.517  0.00  0.00    +0.019 C 
ENDROOT
BRANCH   5  14
ATOM     14  C   LIG A   1      -6.277   0.034 125.685  0.00  0.00    +0.311 C 
ATOM     15  O   LIG A   1      -6.246   0.636 124.624  0.00  0.00    -0.250 OA
BRANCH  14  16
ATOM     16  O   LIG A   1      -5.163   0.016 126.445  0.00  0.00    -0.480 OA
ATOM     17  H   LIG A   1      -5.445  -0.436 127.268  0.00  0.00    +0.295 HD
ENDBRANCH  14  16
ENDBRANCH   5  14
BRANCH  10  18
ATOM     18  O   LIG A   1     -10.948   1.670 124.277  0.00  0.00    -0.385 OA
ATOM     19  H   LIG A   1     -10.913   2.616 124.026  0.00  0.00    +0.210 HD
ENDBRANCH  10  18
BRANCH  10  20
ATOM     20  C   LIG A   1      -8.613   2.234 123.888  0.00  0.00    +0.267 C 
BRANCH  20  21
ATOM     21  O   LIG A   1      -9.087   3.136 122.873  0.00  0.00    -0.462 OA
BRANCH  21  22
ATOM     22  C   LIG A   1      -8.274   3.344 121.806  0.00  0.00    +0.304 C 
ATOM     23  C   LIG A   1      -6.851   3.040 122.167  0.00  0.00    +0.136 C 
ATOM     24  O   LIG A   1      -8.649   3.705 120.698  0.00  0.00    -0.251 OA
ENDBRANCH  21  22
ENDBRANCH  20  21
ENDBRANCH  10  20
TORSDOF 6
ENDMDL
MODEL 2
REMARK VINA RESULT:      -6.6      2.071      3.563
REMARK  Name = NuBBE_615
REMARK  9 active torsions:
REMARK  status: ('A' for Active; 'I' for Inactive)
REMARK    1  A    between atoms: C_1  and  C_2
REMARK    2  A    between atoms: C_2  and  C_3
REMARK    3  A    between atoms: C_5  and  C_6
REMARK    4  A    between atoms: C_6  and  O_7
REMARK    5  A    between atoms: C_14  and  C_15
REMARK    6  A    between atoms: C_14  and  O_20
REMARK    7  A    between atoms: C_15  and  O_16
REMARK    8  A    between atoms: O_16  and  C_17
REMARK    9  A    between atoms: C_17  and  C_18
REMARK                            x       y       z     vdW  Elec       q    Type
REMARK                         _______ _______ _______ _____ _____    ______ ____
ROOT
ATOM      1  C   LIG A   1      -5.790  -2.881 126.279  0.00  0.00    +0.011 C 
ATOM      2  C   LIG A   1      -5.996  -2.759 124.763  0.00  0.00    -0.031 C 
ATOM      3  C   LIG A   1      -4.788  -3.443 124.089  0.00  0.00    +0.011 C 
ATOM      4  C   LIG A   1      -7.321  -3.495 124.277  0.00  0.00    +0.025 C 
ATOM      5  C   LIG A   1      -8.332  -2.364 124.098  0.00  0.00    +0.071 C 
ATOM      6  C   LIG A   1      -7.404  -1.334 123.460  0.00  0.00    +0.015 C 
ATOM      7  C   LIG A   1      -6.124  -1.275 124.249  0.00  0.00    -0.001 C 
ATOM      8  C   LIG A   1      -6.110  -0.081 125.197  0.00  0.00    +0.007 C 
ATOM      9  C   LIG A   1      -6.543   1.191 124.445  0.00  0.00    +0.039 C 
ATOM     10  C   LIG A   1      -7.996   1.161 123.883  0.00  0.00    +0.103 C 
ATOM     11  C   LIG A   1      -8.230  -0.133 123.053  0.00  0.00    +0.029 C 
ATOM     12  C   LIG A   1      -9.629  -0.783 122.855  0.00  0.00    +0.008 C 
ATOM     13  C   LIG A   1      -9.418  -2.322 123.016  0.00  0.00    +0.019 C 
ENDROOT
BRANCH   5  14
ATOM     14  C   LIG A   1      -9.014  -2.135 125.448  0.00  0.00    +0.311 C 
ATOM     15  O   LIG A   1      -8.669  -1.401 126.360  0.00  0.00    -0.250 OA
BRANCH  14  16
ATOM     16  O   LIG A   1     -10.094  -2.921 125.631  0.00  0.00    -0.480 OA
ATOM     17  H   LIG A   1      -9.933  -3.349 126.497  0.00  0.00    +0.295 HD
ENDBRANCH  14  16
ENDBRANCH   5  14
BRANCH  10  18
ATOM     18  O   LIG A   1      -8.032   2.227 122.900  0.00  0.00    -0.385 OA
ATOM     19  H   LIG A   1      -8.961   2.466 122.701  0.00  0.00    +0.210 HD
ENDBRANCH  10  18
BRANCH  10  20
ATOM     20  C   LIG A   1      -8.990   1.518 125.022  0.00  0.00    +0.267 C 
BRANCH  20  21
ATOM     21  O   LIG A   1      -8.381   2.179 126.145  0.00  0.00    -0.462 OA
BRANCH  21  22
ATOM     22  C   LIG A   1      -8.326   3.534 126.106  0.00  0.00    +0.304 C 
ATOM     23  C   LIG A   1      -7.633   4.064 127.325  0.00  0.00    +0.136 C 
ATOM     24  O   LIG A   1      -8.757   4.228 125.195  0.00  0.00    -0.251 OA
ENDBRANCH  21  22
ENDBRANCH  20  21
ENDBRANCH  10  20
TORSDOF 6
ENDMDL
MODEL 3
REMARK VINA RESULT:      -6.4      1.761      2.331
REMARK  Name = NuBBE_615
REMARK  9 active torsions:
REMARK  status: ('A' for Active; 'I' for Inactive)
REMARK    1  A    between atoms: C_1  and  C_2
REMARK    2  A    between atoms: C_2  and  C_3
REMARK    3  A    between atoms: C_5  and  C_6
REMARK    4  A    between atoms: C_6  and  O_7
REMARK    5  A    between atoms: C_14  and  C_15
REMARK    6  A    between atoms: C_14  and  O_20
REMARK    7  A    between atoms: C_15  and  O_16
REMARK    8  A    between atoms: O_16  and  C_17
REMARK    9  A    between atoms: C_17  and  C_18
REMARK                            x       y       z     vdW  Elec       q    Type
REMARK                         _______ _______ _______ _____ _____    ______ ____
ROOT
ATOM      1  C   LIG A   1      -9.172  -3.098 123.701  0.00  0.00    +0.011 C 
ATOM      2  C   LIG A   1      -8.840  -2.486 125.069  0.00  0.00    -0.031 C 
ATOM      3  C   LIG A   1      -9.797  -3.128 126.095  0.00  0.00    +0.011 C 
ATOM      4  C   LIG A   1      -7.345  -2.799 125.519  0.00  0.00    +0.025 C 
ATOM      5  C   LIG A   1      -6.584  -1.511 125.209  0.00  0.00    +0.071 C 
ATOM      6  C   LIG A   1      -7.638  -0.511 125.676  0.00  0.00    +0.015 C 
ATOM      7  C   LIG A   1      -8.977  -0.917 125.121  0.00  0.00    -0.001 C 
ATOM      8  C   LIG A   1      -9.343  -0.090 123.893  0.00  0.00    +0.007 C 
ATOM      9  C   LIG A   1      -9.114   1.405 124.181  0.00  0.00    +0.039 C 
ATOM     10  C   LIG A   1      -7.636   1.799 124.485  0.00  0.00    +0.103 C 
ATOM     11  C   LIG A   1      -7.048   0.880 125.593  0.00  0.00    +0.029 C 
ATOM     12  C   LIG A   1      -5.530   0.573 125.734  0.00  0.00    +0.008 C 
ATOM     13  C   LIG A   1      -5.426  -0.955 126.044  0.00  0.00    +0.019 C 
ENDROOT
BRANCH   5  14
ATOM     14  C   LIG A   1      -6.112  -1.591 123.756  0.00  0.00    +0.311 C 
ATOM     15  O   LIG A   1      -6.573  -1.034 122.774  0.00  0.00    -0.250 OA
BRANCH  14  16
ATOM     16  O   LIG A   1      -5.093  -2.458 123.583  0.00  0.00    -0.480 OA
ATOM     17  H   LIG A   1      -4.553  -2.355 124.394  0.00  0.00    +0.295 HD
ENDBRANCH  14  16
ENDBRANCH   5  14
BRANCH  10  18
ATOM     18  O   LIG A   1      -7.725   3.103 125.111  0.00  0.00    -0.385 OA
ATOM     19  H   LIG A   1      -8.599   3.503 124.925  0.00  0.00    +0.210 HD
ENDBRANCH  10  18
BRANCH  10  20
ATOM     20  C   LIG A   1      -6.865   1.956 123.145  0.00  0.00    +0.267 C 
BRANCH  20  21
ATOM     21  O   LIG A   1      -6.589   3.321 122.785  0.00  0.00    -0.462 OA
BRANCH  21  22
ATOM     22  C   LIG A   1      -6.614   3.626 121.463  0.00  0.00    +0.304 C 
ATOM     23  C   LIG A   1      -5.221   3.670 120.911  0.00  0.00    +0.136 C 
ATOM     24  O   LIG A   1      -7.628   3.814 120.804  0.00  0.00    -0.251 OA
ENDBRANCH  21  22
ENDBRANCH  20  21
ENDBRANCH  10  20
TORSDOF 6
ENDMDL
MODEL 4
REMARK VINA RESULT:      -6.4      2.584      5.967
REMARK  Name = NuBBE_615
REMARK  9 active torsions:
REMARK  status: ('A' for Active; 'I' for Inactive)
REMARK    1  A    between atoms: C_1  and  C_2
REMARK    2  A    between atoms: C_2  and  C_3
REMARK    3  A    between atoms: C_5  and  C_6
REMARK    4  A    between atoms: C_6  and  O_7
REMARK    5  A    between atoms: C_14  and  C_15
REMARK    6  A    between atoms: C_14  and  O_20
REMARK    7  A    between atoms: C_15  and  O_16
REMARK    8  A    between atoms: O_16  and  C_17
REMARK    9  A    between atoms: C_17  and  C_18
REMARK                            x       y       z     vdW  Elec       q    Type
REMARK                         _______ _______ _______ _____ _____    ______ ____
ROOT
ATOM      1  C   LIG A   1      -7.752   1.621 123.943  0.00  0.00    +0.011 C 
ATOM      2  C   LIG A   1      -8.910   0.657 124.231  0.00  0.00    -0.031 C 
ATOM      3  C   LIG A   1     -10.217   1.458 124.061  0.00  0.00    +0.011 C 
ATOM      4  C   LIG A   1      -8.939  -0.566 123.213  0.00  0.00    +0.025 C 
ATOM      5  C   LIG A   1      -8.315  -1.720 123.997  0.00  0.00    +0.071 C 
ATOM      6  C   LIG A   1      -8.977  -1.456 125.347  0.00  0.00    +0.015 C 
ATOM      7  C   LIG A   1      -8.865   0.009 125.667  0.00  0.00    -0.001 C 
ATOM      8  C   LIG A   1      -7.726   0.278 126.646  0.00  0.00    +0.007 C 
ATOM      9  C   LIG A   1      -7.807  -0.706 127.827  0.00  0.00    +0.039 C 
ATOM     10  C   LIG A   1      -7.641  -2.208 127.445  0.00  0.00    +0.103 C 
ATOM     11  C   LIG A   1      -8.609  -2.583 126.288  0.00  0.00    +0.029 C 
ATOM     12  C   LIG A   1      -8.336  -3.739 125.283  0.00  0.00    +0.008 C 
ATOM     13  C   LIG A   1      -8.733  -3.190 123.875  0.00  0.00    +0.019 C 
ENDROOT
BRANCH   5  14
ATOM     14  C   LIG A   1      -6.800  -1.651 123.795  0.00  0.00    +0.311 C 
ATOM     15  O   LIG A   1      -5.950  -1.218 124.554  0.00  0.00    -0.250 OA
BRANCH  14  16
ATOM     16  O   LIG A   1      -6.414  -2.074 122.574  0.00  0.00    -0.480 OA
ATOM     17  H   LIG A   1      -6.263  -3.035 122.692  0.00  0.00    +0.295 HD
ENDBRANCH  14  16
ENDBRANCH   5  14
BRANCH  10  18
ATOM     18  O   LIG A   1      -8.153  -2.937 128.590  0.00  0.00    -0.385 OA
ATOM     19  H   LIG A   1      -8.202  -3.892 128.382  0.00  0.00    +0.210 HD
ENDBRANCH  10  18
BRANCH  10  20
ATOM     20  C   LIG A   1      -6.129  -2.533 127.301  0.00  0.00    +0.267 C 
BRANCH  20  21
ATOM     21  O   LIG A   1      -5.339  -2.167 128.446  0.00  0.00    -0.462 OA
BRANCH  21  22
ATOM     22  C   LIG A   1      -4.928  -3.174 129.258  0.00  0.00    +0.304 C 
ATOM     23  C   LIG A   1      -3.433  -3.276 129.248  0.00  0.00    +0.136 C 
ATOM     24  O   LIG A   1      -5.669  -3.883 129.926  0.00  0.00    -0.251 OA
ENDBRANCH  21  22
ENDBRANCH  20  21
ENDBRANCH  10  20
TORSDOF 6
ENDMDL
MODEL 5
REMARK VINA RESULT:      -6.3      2.278      4.707
REMARK  Name = NuBBE_615
REMARK  9 active torsions:
REMARK  status: ('A' for Active; 'I' for Inactive)
REMARK    1  A    between atoms: C_1  and  C_2
REMARK    2  A    between atoms: C_2  and  C_3
REMARK    3  A    between atoms: C_5  and  C_6
REMARK    4  A    between atoms: C_6  and  O_7
REMARK    5  A    between atoms: C_14  and  C_15
REMARK    6  A    between atoms: C_14  and  O_20
REMARK    7  A    between atoms: C_15  and  O_16
REMARK    8  A    between atoms: O_16  and  C_17
REMARK    9  A    between atoms: C_17  and  C_18
REMARK                            x       y       z     vdW  Elec       q    Type
REMARK                         _______ _______ _______ _____ _____    ______ ____
ROOT
ATOM      1  C   LIG A   1      -7.507  -3.778 124.527  0.00  0.00    +0.011 C 
ATOM      2  C   LIG A   1      -6.453  -2.726 124.157  0.00  0.00    -0.031 C 
ATOM      3  C   LIG A   1      -5.223  -3.488 123.621  0.00  0.00    +0.011 C 
ATOM      4  C   LIG A   1      -6.964  -1.740 123.016  0.00  0.00    +0.025 C 
ATOM      5  C   LIG A   1      -7.375  -0.477 123.771  0.00  0.00    +0.071 C 
ATOM      6  C   LIG A   1      -6.221  -0.427 124.768  0.00  0.00    +0.015 C 
ATOM      7  C   LIG A   1      -6.023  -1.797 125.356  0.00  0.00    -0.001 C 
ATOM      8  C   LIG A   1      -6.659  -1.906 126.738  0.00  0.00    +0.007 C 
ATOM      9  C   LIG A   1      -6.252  -0.696 127.598  0.00  0.00    +0.039 C 
ATOM     10  C   LIG A   1      -6.732   0.686 127.060  0.00  0.00    +0.103 C 
ATOM     11  C   LIG A   1      -6.334   0.854 125.567  0.00  0.00    +0.029 C 
ATOM     12  C   LIG A   1      -7.108   1.763 124.570  0.00  0.00    +0.008 C 
ATOM     13  C   LIG A   1      -7.217   0.952 123.240  0.00  0.00    +0.019 C 
ENDROOT
BRANCH   5  14
ATOM     14  C   LIG A   1      -8.832  -0.651 124.206  0.00  0.00    +0.311 C 
ATOM     15  O   LIG A   1      -9.265  -1.027 125.282  0.00  0.00    -0.250 OA
BRANCH  14  16
ATOM     16  O   LIG A   1      -9.709  -0.410 123.210  0.00  0.00    -0.480 OA
ATOM     17  H   LIG A   1      -9.900  -1.299 122.841  0.00  0.00    +0.295 HD
ENDBRANCH  14  16
ENDBRANCH   5  14
BRANCH  10  18
ATOM     18  O   LIG A   1      -5.913   1.657 127.760  0.00  0.00    -0.385 OA
ATOM     19  H   LIG A   1      -5.030   1.278 127.943  0.00  0.00    +0.210 HD
ENDBRANCH  10  18
BRANCH  10  20
ATOM     20  C   LIG A   1      -8.212   0.909 127.478  0.00  0.00    +0.267 C 
BRANCH  20  21
ATOM     21  O   LIG A   1      -8.497   2.242 127.936  0.00  0.00    -0.462 OA
BRANCH  21  22
ATOM     22  C   LIG A   1      -9.000   2.368 129.190  0.00  0.00    +0.304 C 
ATOM     23  C   LIG A   1      -8.448   1.299 130.084  0.00  0.00    +0.136 C 
ATOM     24  O   LIG A   1      -9.775   3.244 129.551  0.00  0.00    -0.251 OA
ENDBRANCH  21  22
ENDBRANCH  20  21
ENDBRANCH  10  20
TORSDOF 6
ENDMDL
MODEL 6
REMARK VINA RESULT:      -6.3      6.920      9.154
REMARK  Name = NuBBE_615
REMARK  9 active torsions:
REMARK  status: ('A' for Active; 'I' for Inactive)
REMARK    1  A    between atoms: C_1  and  C_2
REMARK    2  A    between atoms: C_2  and  C_3
REMARK    3  A    between atoms: C_5  and  C_6
REMARK    4  A    between atoms: C_6  and  O_7
REMARK    5  A    between atoms: C_14  and  C_15
REMARK    6  A    between atoms: C_14  and  O_20
REMARK    7  A    between atoms: C_15  and  O_16
REMARK    8  A    between atoms: O_16  and  C_17
REMARK    9  A    between atoms: C_17  and  C_18
REMARK                            x       y       z     vdW  Elec       q    Type
REMARK                         _______ _______ _______ _____ _____    ______ ____
ROOT
ATOM      1  C   LIG A   1      -6.442   5.582 133.782  0.00  0.00    +0.011 C 
ATOM      2  C   LIG A   1      -6.127   5.074 132.369  0.00  0.00    -0.031 C 
ATOM      3  C   LIG A   1      -4.634   5.364 132.108  0.00  0.00    +0.011 C 
ATOM      4  C   LIG A   1      -6.361   3.505 132.230  0.00  0.00    +0.025 C 
ATOM      5  C   LIG A   1      -7.715   3.390 131.533  0.00  0.00    +0.071 C 
ATOM      6  C   LIG A   1      -7.545   4.524 130.525  0.00  0.00    +0.015 C 
ATOM      7  C   LIG A   1      -7.004   5.733 131.238  0.00  0.00    -0.001 C 
ATOM      8  C   LIG A   1      -8.110   6.737 131.547  0.00  0.00    +0.007 C 
ATOM      9  C   LIG A   1      -8.967   6.975 130.291  0.00  0.00    +0.039 C 
ATOM     10  C   LIG A   1      -9.723   5.718 129.762  0.00  0.00    +0.103 C 
ATOM     11  C   LIG A   1      -8.741   4.524 129.598  0.00  0.00    +0.029 C 
ATOM     12  C   LIG A   1      -9.182   3.034 129.675  0.00  0.00    +0.008 C 
ATOM     13  C   LIG A   1      -8.090   2.303 130.519  0.00  0.00    +0.019 C 
ENDROOT
BRANCH   5  14
ATOM     14  C   LIG A   1      -8.796   3.406 132.616  0.00  0.00    +0.311 C 
ATOM     15  O   LIG A   1      -9.456   4.349 133.018  0.00  0.00    -0.250 OA
BRANCH  14  16
ATOM     16  O   LIG A   1      -8.951   2.210 133.219  0.00  0.00    -0.480 OA
ATOM     17  H   LIG A   1      -9.684   1.787 132.723  0.00  0.00    +0.295 HD
ENDBRANCH  14  16
ENDBRANCH   5  14
BRANCH  10  18
ATOM     18  O   LIG A   1     -10.100   6.060 128.404  0.00  0.00    -0.385 OA
ATOM     19  H   LIG A   1     -10.521   5.289 127.971  0.00  0.00    +0.210 HD
ENDBRANCH  10  18
BRANCH  10  20
ATOM     20  C   LIG A   1     -11.023   5.519 130.591  0.00  0.00    +0.267 C 
BRANCH  20  21
ATOM     21  O   LIG A   1     -12.193   6.104 129.994  0.00  0.00    -0.462 OA
BRANCH  21  22
ATOM     22  C   LIG A   1     -12.711   7.202 130.601  0.00  0.00    +0.304 C 
ATOM     23  C   LIG A   1     -12.500   8.418 129.751  0.00  0.00    +0.136 C 
ATOM     24  O   LIG A   1     -13.292   7.199 131.678  0.00  0.00    -0.251 OA
ENDBRANCH  21  22
ENDBRANCH  20  21
ENDBRANCH  10  20
TORSDOF 6
ENDMDL
MODEL 7
REMARK VINA RESULT:      -6.3      2.365      4.632
REMARK  Name = NuBBE_615
REMARK  9 active torsions:
REMARK  status: ('A' for Active; 'I' for Inactive)
REMARK    1  A    between atoms: C_1  and  C_2
REMARK    2  A    between atoms: C_2  and  C_3
REMARK    3  A    between atoms: C_5  and  C_6
REMARK    4  A    between atoms: C_6  and  O_7
REMARK    5  A    between atoms: C_14  and  C_15
REMARK    6  A    between atoms: C_14  and  O_20
REMARK    7  A    between atoms: C_15  and  O_16
REMARK    8  A    between atoms: O_16  and  C_17
REMARK    9  A    between atoms: C_17  and  C_18
REMARK                            x       y       z     vdW  Elec       q    Type
REMARK                         _______ _______ _______ _____ _____    ______ ____
ROOT
ATOM      1  C   LIG A   1      -8.529  -1.476 125.562  0.00  0.00    +0.011 C 
ATOM      2  C   LIG A   1      -7.923  -1.022 124.227  0.00  0.00    -0.031 C 
ATOM      3  C   LIG A   1      -7.189  -2.240 123.628  0.00  0.00    +0.011 C 
ATOM      4  C   LIG A   1      -9.038  -0.554 123.191  0.00  0.00    +0.025 C 
ATOM      5  C   LIG A   1      -8.999   0.972 123.265  0.00  0.00    +0.071 C 
ATOM      6  C   LIG A   1      -7.485   1.153 123.339  0.00  0.00    +0.015 C 
ATOM      7  C   LIG A   1      -6.927   0.192 124.352  0.00  0.00    -0.001 C 
ATOM      8  C   LIG A   1      -6.652   0.886 125.683  0.00  0.00    +0.007 C 
ATOM      9  C   LIG A   1      -5.880   2.195 125.441  0.00  0.00    +0.039 C 
ATOM     10  C   LIG A   1      -6.642   3.263 124.599  0.00  0.00    +0.103 C 
ATOM     11  C   LIG A   1      -7.178   2.633 123.282  0.00  0.00    +0.029 C 
ATOM     12  C   LIG A   1      -8.422   3.171 122.519  0.00  0.00    +0.008 C 
ATOM     13  C   LIG A   1      -9.236   1.913 122.079  0.00  0.00    +0.019 C 
ENDROOT
BRANCH   5  14
ATOM     14  C   LIG A   1      -9.936   1.404 124.395  0.00  0.00    +0.311 C 
ATOM     15  O   LIG A   1      -9.658   1.687 125.548  0.00  0.00    -0.250 OA
BRANCH  14  16
ATOM     16  O   LIG A   1     -11.235   1.387 124.034  0.00  0.00    -0.480 OA
ATOM     17  H   LIG A   1     -11.213   1.499 123.060  0.00  0.00    +0.295 HD
ENDBRANCH  14  16
ENDBRANCH   5  14
BRANCH  10  18
ATOM     18  O   LIG A   1      -5.615   4.188 124.161  0.00  0.00    -0.385 OA
ATOM     19  H   LIG A   1      -5.904   4.645 123.345  0.00  0.00    +0.210 HD
ENDBRANCH  10  18
BRANCH  10  20
ATOM     20  C   LIG A   1      -7.626   4.033 125.523  0.00  0.00    +0.267 C 
BRANCH  20  21
ATOM     21  O   LIG A   1      -7.069   4.396 126.799  0.00  0.00    -0.462 OA
BRANCH  21  22
ATOM     22  C   LIG A   1      -7.892   4.315 127.875  0.00  0.00    +0.304 C 
ATOM     23  C   LIG A   1      -7.634   3.049 128.635  0.00  0.00    +0.136 C 
ATOM     24  O   LIG A   1      -8.711   5.165 128.197  0.00  0.00    -0.251 OA
ENDBRANCH  21  22
ENDBRANCH  20  21
ENDBRANCH  10  20
TORSDOF 6
ENDMDL
MODEL 8
REMARK VINA RESULT:      -6.1      2.637      4.308
REMARK  Name = NuBBE_615
REMARK  9 active torsions:
REMARK  status: ('A' for Active; 'I' for Inactive)
REMARK    1  A    between atoms: C_1  and  C_2
REMARK    2  A    between atoms: C_2  and  C_3
REMARK    3  A    between atoms: C_5  and  C_6
REMARK    4  A    between atoms: C_6  and  O_7
REMARK    5  A    between atoms: C_14  and  C_15
REMARK    6  A    between atoms: C_14  and  O_20
REMARK    7  A    between atoms: C_15  and  O_16
REMARK    8  A    between atoms: O_16  and  C_17
REMARK    9  A    between atoms: C_17  and  C_18
REMARK                            x       y       z     vdW  Elec       q    Type
REMARK                         _______ _______ _______ _____ _____    ______ ____
ROOT
ATOM      1  C   LIG A   1      -4.470  -1.217 129.661  0.00  0.00    +0.011 C 
ATOM      2  C   LIG A   1      -4.890  -2.467 128.876  0.00  0.00    -0.031 C 
ATOM      3  C   LIG A   1      -3.698  -3.446 128.916  0.00  0.00    +0.011 C 
ATOM      4  C   LIG A   1      -6.149  -3.190 129.529  0.00  0.00    +0.025 C 
ATOM      5  C   LIG A   1      -7.327  -2.744 128.663  0.00  0.00    +0.071 C 
ATOM      6  C   LIG A   1      -6.647  -2.837 127.299  0.00  0.00    +0.015 C 
ATOM      7  C   LIG A   1      -5.296  -2.181 127.381  0.00  0.00    -0.001 C 
ATOM      8  C   LIG A   1      -5.327  -0.771 126.801  0.00  0.00    +0.007 C 
ATOM      9  C   LIG A   1      -6.033  -0.783 125.432  0.00  0.00    +0.039 C 
ATOM     10  C   LIG A   1      -7.529  -1.219 125.467  0.00  0.00    +0.103 C 
ATOM     11  C   LIG A   1      -7.683  -2.564 126.230  0.00  0.00    +0.029 C 
ATOM     12  C   LIG A   1      -8.989  -2.991 126.960  0.00  0.00    +0.008 C 
ATOM     13  C   LIG A   1      -8.541  -3.614 128.320  0.00  0.00    +0.019 C 
ENDROOT
BRANCH   5  14
ATOM     14  C   LIG A   1      -7.848  -1.425 129.235  0.00  0.00    +0.311 C 
ATOM     15  O   LIG A   1      -7.833  -0.316 128.727  0.00  0.00    -0.250 OA
BRANCH  14  16
ATOM     16  O   LIG A   1      -8.313  -1.547 130.495  0.00  0.00    -0.480 OA
ATOM     17  H   LIG A   1      -7.848  -2.336 130.845  0.00  0.00    +0.295 HD
ENDBRANCH  14  16
ENDBRANCH   5  14
BRANCH  10  18
ATOM     18  O   LIG A   1      -7.847  -1.549 124.091  0.00  0.00    -0.385 OA
ATOM     19  H   LIG A   1      -8.026  -0.731 123.585  0.00  0.00    +0.210 HD
ENDBRANCH  10  18
BRANCH  10  20
ATOM     20  C   LIG A   1      -8.403  -0.006 125.888  0.00  0.00    +0.267 C 
BRANCH  20  21
ATOM     21  O   LIG A   1      -9.716   0.003 125.300  0.00  0.00    -0.462 OA
BRANCH  21  22
ATOM     22  C   LIG A   1     -10.059   1.098 124.575  0.00  0.00    +0.304 C 
ATOM     23  C   LIG A   1      -8.989   2.143 124.670  0.00  0.00    +0.136 C 
ATOM     24  O   LIG A   1     -11.084   1.210 123.916  0.00  0.00    -0.251 OA
ENDBRANCH  21  22
ENDBRANCH  20  21
ENDBRANCH  10  20
TORSDOF 6
ENDMDL
MODEL 9
REMARK VINA RESULT:      -6.1      2.526      5.390
REMARK  Name = NuBBE_615
REMARK  9 active torsions:
REMARK  status: ('A' for Active; 'I' for Inactive)
REMARK    1  A    between atoms: C_1  and  C_2
REMARK    2  A    between atoms: C_2  and  C_3
REMARK    3  A    between atoms: C_5  and  C_6
REMARK    4  A    between atoms: C_6  and  O_7
REMARK    5  A    between atoms: C_14  and  C_15
REMARK    6  A    between atoms: C_14  and  O_20
REMARK    7  A    between atoms: C_15  and  O_16
REMARK    8  A    between atoms: O_16  and  C_17
REMARK    9  A    between atoms: C_17  and  C_18
REMARK                            x       y       z     vdW  Elec       q    Type
REMARK                         _______ _______ _______ _____ _____    ______ ____
ROOT
ATOM      1  C   LIG A   1      -8.596   3.056 124.374  0.00  0.00    +0.011 C 
ATOM      2  C   LIG A   1      -7.370   2.286 123.866  0.00  0.00    -0.031 C 
ATOM      3  C   LIG A   1      -6.808   3.074 122.665  0.00  0.00    +0.011 C 
ATOM      4  C   LIG A   1      -6.228   2.181 124.971  0.00  0.00    +0.025 C 
ATOM      5  C   LIG A   1      -6.380   0.768 125.533  0.00  0.00    +0.071 C 
ATOM      6  C   LIG A   1      -6.648   0.035 124.221  0.00  0.00    +0.015 C 
ATOM      7  C   LIG A   1      -7.676   0.802 123.434  0.00  0.00    -0.001 C 
ATOM      8  C   LIG A   1      -9.062   0.181 123.577  0.00  0.00    +0.007 C 
ATOM      9  C   LIG A   1      -8.981  -1.340 123.353  0.00  0.00    +0.039 C 
ATOM     10  C   LIG A   1      -8.104  -2.112 124.385  0.00  0.00    +0.103 C 
ATOM     11  C   LIG A   1      -6.702  -1.450 124.506  0.00  0.00    +0.029 C 
ATOM     12  C   LIG A   1      -5.818  -1.545 125.783  0.00  0.00    +0.008 C 
ATOM     13  C   LIG A   1      -5.220  -0.118 126.001  0.00  0.00    +0.019 C 
ENDROOT
BRANCH   5  14
ATOM     14  C   LIG A   1      -7.405   0.829 126.667  0.00  0.00    +0.311 C 
ATOM     15  O   LIG A   1      -8.601   0.595 126.625  0.00  0.00    -0.250 OA
BRANCH  14  16
ATOM     16  O   LIG A   1      -6.877   1.270 127.827  0.00  0.00    -0.480 OA
ATOM     17  H   LIG A   1      -6.385   0.496 128.174  0.00  0.00    +0.295 HD
ENDBRANCH  14  16
ENDBRANCH   5  14
BRANCH  10  18
ATOM     18  O   LIG A   1      -7.842  -3.393 123.758  0.00  0.00    -0.385 OA
ATOM     19  H   LIG A   1      -7.503  -3.256 122.849  0.00  0.00    +0.210 HD
ENDBRANCH  10  18
BRANCH  10  20
ATOM     20  C   LIG A   1      -8.935  -2.364 125.673  0.00  0.00    +0.267 C 
BRANCH  20  21
ATOM     21  O   LIG A   1      -8.614  -3.593 126.347  0.00  0.00    -0.462 OA
BRANCH  21  22
ATOM     22  C   LIG A   1      -8.816  -3.631 127.688  0.00  0.00    +0.304 C 
ATOM     23  C   LIG A   1      -7.947  -2.622 128.376  0.00  0.00    +0.136 C 
ATOM     24  O   LIG A   1      -9.613  -4.366 128.257  0.00  0.00    -0.251 OA
ENDBRANCH  21  22
ENDBRANCH  20  21
ENDBRANCH  10  20
TORSDOF 6
ENDMDL
