MODEL 1
REMARK VINA RESULT:      -6.8      0.000      0.000
REMARK  Name = NuBBE_578
REMARK  13 active torsions:
REMARK  status: ('A' for Active; 'I' for Inactive)
REMARK    1  A    between atoms: C_7  and  C_9
REMARK    2  A    between atoms: C_10  and  C_11
REMARK    3  A    between atoms: C_11  and  C_12
REMARK    4  A    between atoms: C_12  and  O_14
REMARK    5  A    between atoms: C_12  and  C_18
REMARK    6  A    between atoms: O_14  and  C_15
REMARK    7  A    between atoms: C_15  and  C_16
REMARK    8  A    between atoms: C_18  and  C_19
REMARK    9  A    between atoms: C_19  and  O_21
REMARK   10  A    between atoms: C_19  and  C_25
REMARK   11  A    between atoms: O_21  and  C_22
REMARK   12  A    between atoms: C_22  and  C_23
REMARK   13  A    between atoms: C_26  and  C_27
REMARK                            x       y       z     vdW  Elec       q    Type
REMARK                         _______ _______ _______ _____ _____    ______ ____
ROOT
ATOM      1  C   LIG A   1      -7.433  -2.423 129.243  0.00  0.00    +0.184 C 
ENDROOT
BRANCH   1   2
ATOM      2  C   LIG A   1      -8.624  -3.221 128.651  0.00  0.00    +0.071 C 
BRANCH   2   4
ATOM      3  C   LIG A   1      -8.798  -3.150 126.099  0.00  0.00    +0.013 C 
ATOM      4  C   LIG A   1      -8.396  -3.722 127.247  0.00  0.00    -0.024 C 
BRANCH   3  11
ATOM      5  O   LIG A   1      -5.331  -2.730 123.648  0.00  0.00    -0.246 OA
ATOM      6  C   LIG A   1      -6.548  -2.804 123.792  0.00  0.00    +0.332 C 
ATOM      7  C   LIG A   1      -7.429  -1.784 123.200  0.00  0.00    +0.087 C 
ATOM      8  C   LIG A   1      -8.747  -1.979 123.084  0.00  0.00    -0.016 C 
ATOM      9  C   LIG A   1      -9.382  -3.225 123.609  0.00  0.00    +0.076 C 
ATOM     10  O   LIG A   1      -7.138  -3.818 124.465  0.00  0.00    -0.454 OA
ATOM     11  C   LIG A   1      -8.551  -3.811 124.755  0.00  0.00    +0.203 C 
ENDBRANCH   3  11
ENDBRANCH   2   4
ENDBRANCH   1   2
BRANCH   1  12
ATOM     12  O   LIG A   1      -6.821  -3.210 130.319  0.00  0.00    -0.461 OA
BRANCH  12  13
ATOM     13  C   LIG A   1      -5.661  -3.865 130.059  0.00  0.00    +0.304 C 
ATOM     14  C   LIG A   1      -5.567  -5.166 130.807  0.00  0.00    +0.136 C 
ATOM     15  O   LIG A   1      -4.782  -3.461 129.291  0.00  0.00    -0.251 OA
ENDBRANCH  12  13
ENDBRANCH   1  12
BRANCH   1  16
ATOM     16  C   LIG A   1      -7.865  -1.049 129.782  0.00  0.00    +0.093 C 
BRANCH  16  17
ATOM     17  C   LIG A   1      -7.157   0.192 129.195  0.00  0.00    +0.203 C 
BRANCH  17  18
ATOM     18  C   LIG A   1      -7.794   0.744 127.944  0.00  0.00    +0.018 C 
ATOM     19  C   LIG A   1      -7.649   0.283 126.685  0.00  0.00    +0.007 C 
BRANCH  19  20
ATOM     20  C   LIG A   1      -8.258   0.900 125.488  0.00  0.00    -0.025 A 
ATOM     21  C   LIG A   1      -9.638   0.868 125.235  0.00  0.00    +0.008 A 
ATOM     22  C   LIG A   1     -10.174   1.407 124.063  0.00  0.00    +0.001 A 
ATOM     23  C   LIG A   1      -9.340   2.018 123.135  0.00  0.00    +0.000 A 
ATOM     24  C   LIG A   1      -7.974   2.105 123.388  0.00  0.00    +0.001 A 
ATOM     25  C   LIG A   1      -7.436   1.551 124.556  0.00  0.00    +0.008 A 
ENDBRANCH  19  20
ENDBRANCH  17  18
BRANCH  17  26
ATOM     26  O   LIG A   1      -5.817  -0.212 128.874  0.00  0.00    -0.457 OA
BRANCH  26  27
ATOM     27  C   LIG A   1      -4.843   0.184 129.735  0.00  0.00    +0.304 C 
ATOM     28  C   LIG A   1      -4.404   1.560 129.334  0.00  0.00    +0.136 C 
ATOM     29  O   LIG A   1      -4.371  -0.473 130.664  0.00  0.00    -0.251 OA
ENDBRANCH  26  27
ENDBRANCH  17  26
ENDBRANCH  16  17
ENDBRANCH   1  16
TORSDOF 11
ENDMDL
MODEL 2
REMARK VINA RESULT:      -6.7      4.679      7.829
REMARK  Name = NuBBE_578
REMARK  13 active torsions:
REMARK  status: ('A' for Active; 'I' for Inactive)
REMARK    1  A    between atoms: C_7  and  C_9
REMARK    2  A    between atoms: C_10  and  C_11
REMARK    3  A    between atoms: C_11  and  C_12
REMARK    4  A    between atoms: C_12  and  O_14
REMARK    5  A    between atoms: C_12  and  C_18
REMARK    6  A    between atoms: O_14  and  C_15
REMARK    7  A    between atoms: C_15  and  C_16
REMARK    8  A    between atoms: C_18  and  C_19
REMARK    9  A    between atoms: C_19  and  O_21
REMARK   10  A    between atoms: C_19  and  C_25
REMARK   11  A    between atoms: O_21  and  C_22
REMARK   12  A    between atoms: C_22  and  C_23
REMARK   13  A    between atoms: C_26  and  C_27
REMARK                            x       y       z     vdW  Elec       q    Type
REMARK                         _______ _______ _______ _____ _____    ______ ____
ROOT
ATOM      1  C   LIG A   1      -7.548   2.455 126.997  0.00  0.00    +0.184 C 
ENDROOT
BRANCH   1   2
ATOM      2  C   LIG A   1      -7.765   1.904 128.431  0.00  0.00    +0.071 C 
BRANCH   2   4
ATOM      3  C   LIG A   1      -8.652   3.945 129.694  0.00  0.00    +0.013 C 
ATOM      4  C   LIG A   1      -8.766   2.681 129.248  0.00  0.00    -0.024 C 
BRANCH   3  11
ATOM      5  O   LIG A   1     -11.748   6.593 128.428  0.00  0.00    -0.246 OA
ATOM      6  C   LIG A   1     -10.880   6.251 129.226  0.00  0.00    +0.332 C 
ATOM      7  C   LIG A   1      -9.859   7.214 129.670  0.00  0.00    +0.087 C 
ATOM      8  C   LIG A   1      -9.088   6.976 130.737  0.00  0.00    -0.016 C 
ATOM      9  C   LIG A   1      -9.200   5.687 131.485  0.00  0.00    +0.076 C 
ATOM     10  O   LIG A   1     -10.830   5.006 129.752  0.00  0.00    -0.454 OA
ATOM     11  C   LIG A   1      -9.720   4.575 130.568  0.00  0.00    +0.203 C 
ENDBRANCH   3  11
ENDBRANCH   2   4
ENDBRANCH   1   2
BRANCH   1  12
ATOM     12  O   LIG A   1      -8.608   1.938 126.124  0.00  0.00    -0.461 OA
BRANCH  12  13
ATOM     13  C   LIG A   1      -9.007   2.701 125.075  0.00  0.00    +0.304 C 
ATOM     14  C   LIG A   1      -9.590   1.873 123.964  0.00  0.00    +0.136 C 
ATOM     15  O   LIG A   1      -8.921   3.933 125.027  0.00  0.00    -0.251 OA
ENDBRANCH  12  13
ENDBRANCH   1  12
BRANCH   1  16
ATOM     16  C   LIG A   1      -6.172   2.071 126.430  0.00  0.00    +0.093 C 
BRANCH  16  17
ATOM     17  C   LIG A   1      -5.211   3.226 126.070  0.00  0.00    +0.203 C 
BRANCH  17  18
ATOM     18  C   LIG A   1      -5.338   3.728 124.653  0.00  0.00    +0.018 C 
ATOM     19  C   LIG A   1      -6.037   3.164 123.648  0.00  0.00    +0.007 C 
BRANCH  19  20
ATOM     20  C   LIG A   1      -6.081   3.677 122.262  0.00  0.00    -0.025 A 
ATOM     21  C   LIG A   1      -5.012   4.371 121.675  0.00  0.00    +0.008 A 
ATOM     22  C   LIG A   1      -5.110   4.896 120.384  0.00  0.00    +0.001 A 
ATOM     23  C   LIG A   1      -6.271   4.708 119.644  0.00  0.00    +0.000 A 
ATOM     24  C   LIG A   1      -7.325   3.981 120.188  0.00  0.00    +0.001 A 
ATOM     25  C   LIG A   1      -7.232   3.468 121.488  0.00  0.00    +0.008 A 
ENDBRANCH  19  20
ENDBRANCH  17  18
BRANCH  17  26
ATOM     26  O   LIG A   1      -3.877   2.721 126.246  0.00  0.00    -0.457 OA
BRANCH  26  27
ATOM     27  C   LIG A   1      -2.967   3.587 126.764  0.00  0.00    +0.304 C 
ATOM     28  C   LIG A   1      -1.602   3.015 126.529  0.00  0.00    +0.136 C 
ATOM     29  O   LIG A   1      -3.207   4.641 127.355  0.00  0.00    -0.251 OA
ENDBRANCH  26  27
ENDBRANCH  17  26
ENDBRANCH  16  17
ENDBRANCH   1  16
TORSDOF 11
ENDMDL
MODEL 3
REMARK VINA RESULT:      -6.6      2.881      5.744
REMARK  Name = NuBBE_578
REMARK  13 active torsions:
REMARK  status: ('A' for Active; 'I' for Inactive)
REMARK    1  A    between atoms: C_7  and  C_9
REMARK    2  A    between atoms: C_10  and  C_11
REMARK    3  A    between atoms: C_11  and  C_12
REMARK    4  A    between atoms: C_12  and  O_14
REMARK    5  A    between atoms: C_12  and  C_18
REMARK    6  A    between atoms: O_14  and  C_15
REMARK    7  A    between atoms: C_15  and  C_16
REMARK    8  A    between atoms: C_18  and  C_19
REMARK    9  A    between atoms: C_19  and  O_21
REMARK   10  A    between atoms: C_19  and  C_25
REMARK   11  A    between atoms: O_21  and  C_22
REMARK   12  A    between atoms: C_22  and  C_23
REMARK   13  A    between atoms: C_26  and  C_27
REMARK                            x       y       z     vdW  Elec       q    Type
REMARK                         _______ _______ _______ _____ _____    ______ ____
ROOT
ATOM      1  C   LIG A   1      -8.023   2.310 125.360  0.00  0.00    +0.184 C 
ENDROOT
BRANCH   1   2
ATOM      2  C   LIG A   1      -6.951   2.300 124.239  0.00  0.00    +0.071 C 
BRANCH   2   4
ATOM      3  C   LIG A   1      -6.912  -0.226 123.830  0.00  0.00    +0.013 C 
ATOM      4  C   LIG A   1      -6.945   1.048 123.399  0.00  0.00    -0.024 C 
BRANCH   3  11
ATOM      5  O   LIG A   1      -9.868  -3.246 123.251  0.00  0.00    -0.246 OA
ATOM      6  C   LIG A   1      -8.700  -2.888 123.364  0.00  0.00    +0.332 C 
ATOM      7  C   LIG A   1      -7.808  -3.556 124.326  0.00  0.00    +0.087 C 
ATOM      8  C   LIG A   1      -6.480  -3.400 124.276  0.00  0.00    -0.016 C 
ATOM      9  C   LIG A   1      -5.858  -2.488 123.270  0.00  0.00    +0.076 C 
ATOM     10  O   LIG A   1      -8.168  -1.899 122.609  0.00  0.00    -0.454 OA
ATOM     11  C   LIG A   1      -6.842  -1.389 122.857  0.00  0.00    +0.203 C 
ENDBRANCH   3  11
ENDBRANCH   2   4
ENDBRANCH   1   2
BRANCH   1  12
ATOM     12  O   LIG A   1      -9.349   2.451 124.748  0.00  0.00    -0.461 OA
BRANCH  12  13
ATOM     13  C   LIG A   1     -10.086   1.329 124.543  0.00  0.00    +0.304 C 
ATOM     14  C   LIG A   1     -10.491   1.176 123.103  0.00  0.00    +0.136 C 
ATOM     15  O   LIG A   1     -10.386   0.513 125.421  0.00  0.00    -0.251 OA
ENDBRANCH  12  13
ENDBRANCH   1  12
BRANCH   1  16
ATOM     16  C   LIG A   1      -7.793   3.443 126.374  0.00  0.00    +0.093 C 
BRANCH  16  17
ATOM     17  C   LIG A   1      -7.747   3.054 127.868  0.00  0.00    +0.203 C 
BRANCH  17  18
ATOM     18  C   LIG A   1      -8.059   1.605 128.148  0.00  0.00    +0.018 C 
ATOM     19  C   LIG A   1      -7.186   0.632 128.476  0.00  0.00    +0.007 C 
BRANCH  19  20
ATOM     20  C   LIG A   1      -7.546  -0.786 128.687  0.00  0.00    -0.025 A 
ATOM     21  C   LIG A   1      -7.571  -1.382 129.957  0.00  0.00    +0.008 A 
ATOM     22  C   LIG A   1      -7.856  -2.741 130.115  0.00  0.00    +0.001 A 
ATOM     23  C   LIG A   1      -8.152  -3.523 129.006  0.00  0.00    +0.000 A 
ATOM     24  C   LIG A   1      -8.181  -2.941 127.741  0.00  0.00    +0.001 A 
ATOM     25  C   LIG A   1      -7.880  -1.583 127.582  0.00  0.00    +0.008 A 
ENDBRANCH  19  20
ENDBRANCH  17  18
BRANCH  17  26
ATOM     26  O   LIG A   1      -8.733   3.860 128.533  0.00  0.00    -0.457 OA
BRANCH  26  27
ATOM     27  C   LIG A   1      -8.731   3.822 129.890  0.00  0.00    +0.304 C 
ATOM     28  C   LIG A   1     -10.119   3.486 130.345  0.00  0.00    +0.136 C 
ATOM     29  O   LIG A   1      -7.773   4.053 130.631  0.00  0.00    -0.251 OA
ENDBRANCH  26  27
ENDBRANCH  17  26
ENDBRANCH  16  17
ENDBRANCH   1  16
TORSDOF 11
ENDMDL
MODEL 4
REMARK VINA RESULT:      -6.5      2.782      6.037
REMARK  Name = NuBBE_578
REMARK  13 active torsions:
REMARK  status: ('A' for Active; 'I' for Inactive)
REMARK    1  A    between atoms: C_7  and  C_9
REMARK    2  A    between atoms: C_10  and  C_11
REMARK    3  A    between atoms: C_11  and  C_12
REMARK    4  A    between atoms: C_12  and  O_14
REMARK    5  A    between atoms: C_12  and  C_18
REMARK    6  A    between atoms: O_14  and  C_15
REMARK    7  A    between atoms: C_15  and  C_16
REMARK    8  A    between atoms: C_18  and  C_19
REMARK    9  A    between atoms: C_19  and  O_21
REMARK   10  A    between atoms: C_19  and  C_25
REMARK   11  A    between atoms: O_21  and  C_22
REMARK   12  A    between atoms: C_22  and  C_23
REMARK   13  A    between atoms: C_26  and  C_27
REMARK                            x       y       z     vdW  Elec       q    Type
REMARK                         _______ _______ _______ _____ _____    ______ ____
ROOT
ATOM      1  C   LIG A   1      -7.024  -1.542 125.131  0.00  0.00    +0.184 C 
ENDROOT
BRANCH   1   2
ATOM      2  C   LIG A   1      -5.826  -2.340 125.709  0.00  0.00    +0.071 C 
BRANCH   2   4
ATOM      3  C   LIG A   1      -6.416  -2.365 128.199  0.00  0.00    +0.013 C 
ATOM      4  C   LIG A   1      -5.579  -2.108 127.178  0.00  0.00    -0.024 C 
BRANCH   3  11
ATOM      5  O   LIG A   1      -2.876  -3.510 130.285  0.00  0.00    -0.246 OA
ATOM      6  C   LIG A   1      -4.089  -3.327 130.238  0.00  0.00    +0.332 C 
ATOM      7  C   LIG A   1      -5.016  -4.387 130.667  0.00  0.00    +0.087 C 
ATOM      8  C   LIG A   1      -6.308  -4.133 130.905  0.00  0.00    -0.016 C 
ATOM      9  C   LIG A   1      -6.869  -2.767 130.684  0.00  0.00    +0.076 C 
ATOM     10  O   LIG A   1      -4.631  -2.159 129.823  0.00  0.00    -0.454 OA
ATOM     11  C   LIG A   1      -6.053  -2.013 129.629  0.00  0.00    +0.203 C 
ENDBRANCH   3  11
ENDBRANCH   2   4
ENDBRANCH   1   2
BRANCH   1  12
ATOM     12  O   LIG A   1      -7.608  -2.300 124.018  0.00  0.00    -0.461 OA
BRANCH  12  13
ATOM     13  C   LIG A   1      -8.852  -2.818 124.175  0.00  0.00    +0.304 C 
ATOM     14  C   LIG A   1      -9.279  -2.835 125.617  0.00  0.00    +0.136 C 
ATOM     15  O   LIG A   1      -9.569  -3.221 123.253  0.00  0.00    -0.251 OA
ENDBRANCH  12  13
ENDBRANCH   1  12
BRANCH   1  16
ATOM     16  C   LIG A   1      -6.610  -0.142 124.649  0.00  0.00    +0.093 C 
BRANCH  16  17
ATOM     17  C   LIG A   1      -7.697   0.719 123.967  0.00  0.00    +0.203 C 
BRANCH  17  18
ATOM     18  C   LIG A   1      -7.194   1.589 122.843  0.00  0.00    +0.018 C 
ATOM     19  C   LIG A   1      -6.830   2.885 122.915  0.00  0.00    +0.007 C 
BRANCH  19  20
ATOM     20  C   LIG A   1      -6.394   3.702 121.763  0.00  0.00    -0.025 A 
ATOM     21  C   LIG A   1      -7.160   3.839 120.595  0.00  0.00    +0.008 A 
ATOM     22  C   LIG A   1      -6.690   4.569 119.500  0.00  0.00    +0.001 A 
ATOM     23  C   LIG A   1      -5.456   5.203 119.567  0.00  0.00    +0.000 A 
ATOM     24  C   LIG A   1      -4.701   5.122 120.734  0.00  0.00    +0.001 A 
ATOM     25  C   LIG A   1      -5.166   4.378 121.824  0.00  0.00    +0.008 A 
ENDBRANCH  19  20
ENDBRANCH  17  18
BRANCH  17  26
ATOM     26  O   LIG A   1      -8.241   1.574 124.985  0.00  0.00    -0.457 OA
BRANCH  26  27
ATOM     27  C   LIG A   1      -9.203   1.034 125.778  0.00  0.00    +0.304 C 
ATOM     28  C   LIG A   1      -8.751   1.161 127.202  0.00  0.00    +0.136 C 
ATOM     29  O   LIG A   1     -10.249   0.500 125.406  0.00  0.00    -0.251 OA
ENDBRANCH  26  27
ENDBRANCH  17  26
ENDBRANCH  16  17
ENDBRANCH   1  16
TORSDOF 11
ENDMDL
MODEL 5
REMARK VINA RESULT:      -6.4      5.435      8.420
REMARK  Name = NuBBE_578
REMARK  13 active torsions:
REMARK  status: ('A' for Active; 'I' for Inactive)
REMARK    1  A    between atoms: C_7  and  C_9
REMARK    2  A    between atoms: C_10  and  C_11
REMARK    3  A    between atoms: C_11  and  C_12
REMARK    4  A    between atoms: C_12  and  O_14
REMARK    5  A    between atoms: C_12  and  C_18
REMARK    6  A    between atoms: O_14  and  C_15
REMARK    7  A    between atoms: C_15  and  C_16
REMARK    8  A    between atoms: C_18  and  C_19
REMARK    9  A    between atoms: C_19  and  O_21
REMARK   10  A    between atoms: C_19  and  C_25
REMARK   11  A    between atoms: O_21  and  C_22
REMARK   12  A    between atoms: C_22  and  C_23
REMARK   13  A    between atoms: C_26  and  C_27
REMARK                            x       y       z     vdW  Elec       q    Type
REMARK                         _______ _______ _______ _____ _____    ______ ____
ROOT
ATOM      1  C   LIG A   1      -8.278   3.649 130.700  0.00  0.00    +0.184 C 
ENDROOT
BRANCH   1   2
ATOM      2  C   LIG A   1      -8.571   5.156 130.475  0.00  0.00    +0.071 C 
BRANCH   2   4
ATOM      3  C   LIG A   1     -10.794   6.404 130.690  0.00  0.00    +0.013 C 
ATOM      4  C   LIG A   1     -10.008   5.463 130.138  0.00  0.00    -0.024 C 
BRANCH   3  11
ATOM      5  O   LIG A   1     -12.339   6.666 126.722  0.00  0.00    -0.246 OA
ATOM      6  C   LIG A   1     -12.319   7.019 127.898  0.00  0.00    +0.332 C 
ATOM      7  C   LIG A   1     -12.203   8.446 128.243  0.00  0.00    +0.087 C 
ATOM      8  C   LIG A   1     -12.468   8.892 129.476  0.00  0.00    -0.016 C 
ATOM      9  C   LIG A   1     -12.835   7.941 130.568  0.00  0.00    +0.076 C 
ATOM     10  O   LIG A   1     -12.428   6.140 128.920  0.00  0.00    -0.454 OA
ATOM     11  C   LIG A   1     -12.251   6.551 130.292  0.00  0.00    +0.203 C 
ENDBRANCH   3  11
ENDBRANCH   2   4
ENDBRANCH   1   2
BRANCH   1  12
ATOM     12  O   LIG A   1      -7.600   3.484 131.990  0.00  0.00    -0.461 OA
BRANCH  12  13
ATOM     13  C   LIG A   1      -8.243   2.806 132.974  0.00  0.00    +0.304 C 
ATOM     14  C   LIG A   1      -9.076   3.715 133.835  0.00  0.00    +0.136 C 
ATOM     15  O   LIG A   1      -8.176   1.584 133.148  0.00  0.00    -0.251 OA
ENDBRANCH  12  13
ENDBRANCH   1  12
BRANCH   1  16
ATOM     16  C   LIG A   1      -7.416   3.051 129.576  0.00  0.00    +0.093 C 
BRANCH  16  17
ATOM     17  C   LIG A   1      -8.120   2.738 128.238  0.00  0.00    +0.203 C 
BRANCH  17  18
ATOM     18  C   LIG A   1      -8.439   1.279 128.024  0.00  0.00    +0.018 C 
ATOM     19  C   LIG A   1      -7.603   0.231 128.171  0.00  0.00    +0.007 C 
BRANCH  19  20
ATOM     20  C   LIG A   1      -7.960  -1.176 127.894  0.00  0.00    -0.025 A 
ATOM     21  C   LIG A   1      -8.402  -1.614 126.637  0.00  0.00    +0.008 A 
ATOM     22  C   LIG A   1      -8.790  -2.939 126.426  0.00  0.00    +0.001 A 
ATOM     23  C   LIG A   1      -8.714  -3.860 127.464  0.00  0.00    +0.000 A 
ATOM     24  C   LIG A   1      -8.232  -3.458 128.706  0.00  0.00    +0.001 A 
ATOM     25  C   LIG A   1      -7.857  -2.126 128.921  0.00  0.00    +0.008 A 
ENDBRANCH  19  20
ENDBRANCH  17  18
BRANCH  17  26
ATOM     26  O   LIG A   1      -7.226   3.157 127.195  0.00  0.00    -0.457 OA
BRANCH  26  27
ATOM     27  C   LIG A   1      -7.751   3.962 126.235  0.00  0.00    +0.304 C 
ATOM     28  C   LIG A   1      -7.531   3.301 124.908  0.00  0.00    +0.136 C 
ATOM     29  O   LIG A   1      -8.286   5.059 126.406  0.00  0.00    -0.251 OA
ENDBRANCH  26  27
ENDBRANCH  17  26
ENDBRANCH  16  17
ENDBRANCH   1  16
TORSDOF 11
ENDMDL
MODEL 6
REMARK VINA RESULT:      -6.3      2.854      4.281
REMARK  Name = NuBBE_578
REMARK  13 active torsions:
REMARK  status: ('A' for Active; 'I' for Inactive)
REMARK    1  A    between atoms: C_7  and  C_9
REMARK    2  A    between atoms: C_10  and  C_11
REMARK    3  A    between atoms: C_11  and  C_12
REMARK    4  A    between atoms: C_12  and  O_14
REMARK    5  A    between atoms: C_12  and  C_18
REMARK    6  A    between atoms: O_14  and  C_15
REMARK    7  A    between atoms: C_15  and  C_16
REMARK    8  A    between atoms: C_18  and  C_19
REMARK    9  A    between atoms: C_19  and  O_21
REMARK   10  A    between atoms: C_19  and  C_25
REMARK   11  A    between atoms: O_21  and  C_22
REMARK   12  A    between atoms: C_22  and  C_23
REMARK   13  A    between atoms: C_26  and  C_27
REMARK                            x       y       z     vdW  Elec       q    Type
REMARK                         _______ _______ _______ _____ _____    ______ ____
ROOT
ATOM      1  C   LIG A   1      -5.398   0.756 127.567  0.00  0.00    +0.184 C 
ENDROOT
BRANCH   1   2
ATOM      2  C   LIG A   1      -5.480   0.032 126.197  0.00  0.00    +0.071 C 
BRANCH   2   4
ATOM      3  C   LIG A   1      -7.408  -0.247 124.537  0.00  0.00    +0.013 C 
ATOM      4  C   LIG A   1      -6.881  -0.329 125.772  0.00  0.00    -0.024 C 
BRANCH   3  11
ATOM      5  O   LIG A   1      -9.690  -3.330 126.405  0.00  0.00    -0.246 OA
ATOM      6  C   LIG A   1      -9.355  -2.684 125.416  0.00  0.00    +0.332 C 
ATOM      7  C   LIG A   1      -8.908  -3.374 124.195  0.00  0.00    +0.087 C 
ATOM      8  C   LIG A   1      -8.816  -2.735 123.023  0.00  0.00    -0.016 C 
ATOM      9  C   LIG A   1      -9.110  -1.274 122.927  0.00  0.00    +0.076 C 
ATOM     10  O   LIG A   1      -9.402  -1.332 125.383  0.00  0.00    -0.454 OA
ATOM     11  C   LIG A   1      -8.864  -0.584 124.273  0.00  0.00    +0.203 C 
ENDBRANCH   3  11
ENDBRANCH   2   4
ENDBRANCH   1   2
BRANCH   1  12
ATOM     12  O   LIG A   1      -6.202   0.016 128.545  0.00  0.00    -0.461 OA
BRANCH  12  13
ATOM     13  C   LIG A   1      -5.591  -0.437 129.669  0.00  0.00    +0.304 C 
ATOM     14  C   LIG A   1      -4.308   0.296 129.950  0.00  0.00    +0.136 C 
ATOM     15  O   LIG A   1      -6.029  -1.335 130.396  0.00  0.00    -0.251 OA
ENDBRANCH  12  13
ENDBRANCH   1  12
BRANCH   1  16
ATOM     16  C   LIG A   1      -5.886   2.212 127.484  0.00  0.00    +0.093 C 
BRANCH  16  17
ATOM     17  C   LIG A   1      -4.872   3.270 126.996  0.00  0.00    +0.203 C 
BRANCH  17  18
ATOM     18  C   LIG A   1      -4.911   3.539 125.513  0.00  0.00    +0.018 C 
ATOM     19  C   LIG A   1      -5.998   3.548 124.714  0.00  0.00    +0.007 C 
BRANCH  19  20
ATOM     20  C   LIG A   1      -5.966   3.767 123.253  0.00  0.00    -0.025 A 
ATOM     21  C   LIG A   1      -4.918   4.440 122.608  0.00  0.00    +0.008 A 
ATOM     22  C   LIG A   1      -4.950   4.684 121.233  0.00  0.00    +0.001 A 
ATOM     23  C   LIG A   1      -6.019   4.230 120.471  0.00  0.00    +0.000 A 
ATOM     24  C   LIG A   1      -7.046   3.517 121.082  0.00  0.00    +0.001 A 
ATOM     25  C   LIG A   1      -7.021   3.286 122.462  0.00  0.00    +0.008 A 
ENDBRANCH  19  20
ENDBRANCH  17  18
BRANCH  17  26
ATOM     26  O   LIG A   1      -3.566   2.769 127.325  0.00  0.00    -0.457 OA
BRANCH  26  27
ATOM     27  C   LIG A   1      -2.538   3.652 127.230  0.00  0.00    +0.304 C 
ATOM     28  C   LIG A   1      -1.408   2.969 126.520  0.00  0.00    +0.136 C 
ATOM     29  O   LIG A   1      -2.512   4.801 127.674  0.00  0.00    -0.251 OA
ENDBRANCH  26  27
ENDBRANCH  17  26
ENDBRANCH  16  17
ENDBRANCH   1  16
TORSDOF 11
ENDMDL
MODEL 7
REMARK VINA RESULT:      -6.3      2.322      6.174
REMARK  Name = NuBBE_578
REMARK  13 active torsions:
REMARK  status: ('A' for Active; 'I' for Inactive)
REMARK    1  A    between atoms: C_7  and  C_9
REMARK    2  A    between atoms: C_10  and  C_11
REMARK    3  A    between atoms: C_11  and  C_12
REMARK    4  A    between atoms: C_12  and  O_14
REMARK    5  A    between atoms: C_12  and  C_18
REMARK    6  A    between atoms: O_14  and  C_15
REMARK    7  A    between atoms: C_15  and  C_16
REMARK    8  A    between atoms: C_18  and  C_19
REMARK    9  A    between atoms: C_19  and  O_21
REMARK   10  A    between atoms: C_19  and  C_25
REMARK   11  A    between atoms: O_21  and  C_22
REMARK   12  A    between atoms: C_22  and  C_23
REMARK   13  A    between atoms: C_26  and  C_27
REMARK                            x       y       z     vdW  Elec       q    Type
REMARK                         _______ _______ _______ _____ _____    ______ ____
ROOT
ATOM      1  C   LIG A   1      -7.084  -2.061 124.340  0.00  0.00    +0.184 C 
ENDROOT
BRANCH   1   2
ATOM      2  C   LIG A   1      -5.746  -2.525 124.973  0.00  0.00    +0.071 C 
BRANCH   2   4
ATOM      3  C   LIG A   1      -6.583  -1.825 127.287  0.00  0.00    +0.013 C 
ATOM      4  C   LIG A   1      -5.610  -2.200 126.439  0.00  0.00    -0.024 C 
BRANCH   3  11
ATOM      5  O   LIG A   1      -4.255  -4.094 130.050  0.00  0.00    -0.246 OA
ATOM      6  C   LIG A   1      -5.232  -3.404 129.774  0.00  0.00    +0.332 C 
ATOM      7  C   LIG A   1      -6.588  -3.871 130.109  0.00  0.00    +0.087 C 
ATOM      8  C   LIG A   1      -7.638  -3.041 130.093  0.00  0.00    -0.016 C 
ATOM      9  C   LIG A   1      -7.477  -1.616 129.675  0.00  0.00    +0.076 C 
ATOM     10  O   LIG A   1      -5.121  -2.192 129.184  0.00  0.00    -0.454 OA
ATOM     11  C   LIG A   1      -6.280  -1.464 128.730  0.00  0.00    +0.203 C 
ENDBRANCH   3  11
ENDBRANCH   2   4
ENDBRANCH   1   2
BRANCH   1  12
ATOM     12  O   LIG A   1      -7.832  -3.241 123.892  0.00  0.00    -0.461 OA
BRANCH  12  13
ATOM     13  C   LIG A   1      -9.166  -3.288 124.135  0.00  0.00    +0.304 C 
ATOM     14  C   LIG A   1      -9.486  -3.031 125.582  0.00  0.00    +0.136 C 
ATOM     15  O   LIG A   1     -10.031  -3.503 123.280  0.00  0.00    -0.251 OA
ENDBRANCH  12  13
ENDBRANCH   1  12
BRANCH   1  16
ATOM     16  C   LIG A   1      -6.866  -1.102 123.159  0.00  0.00    +0.093 C 
BRANCH  16  17
ATOM     17  C   LIG A   1      -7.395   0.341 123.315  0.00  0.00    +0.203 C 
BRANCH  17  18
ATOM     18  C   LIG A   1      -6.438   1.290 123.992  0.00  0.00    +0.018 C 
ATOM     19  C   LIG A   1      -6.299   1.501 125.317  0.00  0.00    +0.007 C 
BRANCH  19  20
ATOM     20  C   LIG A   1      -5.377   2.486 125.920  0.00  0.00    -0.025 A 
ATOM     21  C   LIG A   1      -4.124   2.132 126.445  0.00  0.00    +0.008 A 
ATOM     22  C   LIG A   1      -3.303   3.078 127.064  0.00  0.00    +0.001 A 
ATOM     23  C   LIG A   1      -3.709   4.405 127.142  0.00  0.00    +0.000 A 
ATOM     24  C   LIG A   1      -4.926   4.788 126.585  0.00  0.00    +0.001 A 
ATOM     25  C   LIG A   1      -5.754   3.836 125.978  0.00  0.00    +0.008 A 
ENDBRANCH  19  20
ENDBRANCH  17  18
BRANCH  17  26
ATOM     26  O   LIG A   1      -8.584   0.258 124.117  0.00  0.00    -0.457 OA
BRANCH  26  27
ATOM     27  C   LIG A   1      -9.765   0.428 123.468  0.00  0.00    +0.304 C 
ATOM     28  C   LIG A   1     -10.479   1.581 124.104  0.00  0.00    +0.136 C 
ATOM     29  O   LIG A   1     -10.200  -0.258 122.541  0.00  0.00    -0.251 OA
ENDBRANCH  26  27
ENDBRANCH  17  26
ENDBRANCH  16  17
ENDBRANCH   1  16
TORSDOF 11
ENDMDL
MODEL 8
REMARK VINA RESULT:      -6.2      2.435      6.307
REMARK  Name = NuBBE_578
REMARK  13 active torsions:
REMARK  status: ('A' for Active; 'I' for Inactive)
REMARK    1  A    between atoms: C_7  and  C_9
REMARK    2  A    between atoms: C_10  and  C_11
REMARK    3  A    between atoms: C_11  and  C_12
REMARK    4  A    between atoms: C_12  and  O_14
REMARK    5  A    between atoms: C_12  and  C_18
REMARK    6  A    between atoms: O_14  and  C_15
REMARK    7  A    between atoms: C_15  and  C_16
REMARK    8  A    between atoms: C_18  and  C_19
REMARK    9  A    between atoms: C_19  and  O_21
REMARK   10  A    between atoms: C_19  and  C_25
REMARK   11  A    between atoms: O_21  and  C_22
REMARK   12  A    between atoms: C_22  and  C_23
REMARK   13  A    between atoms: C_26  and  C_27
REMARK                            x       y       z     vdW  Elec       q    Type
REMARK                         _______ _______ _______ _____ _____    ______ ____
ROOT
ATOM      1  C   LIG A   1      -9.067  -1.602 125.952  0.00  0.00    +0.184 C 
ENDROOT
BRANCH   1   2
ATOM      2  C   LIG A   1      -8.668  -2.785 126.873  0.00  0.00    +0.071 C 
BRANCH   2   4
ATOM      3  C   LIG A   1      -7.662  -2.593 129.218  0.00  0.00    +0.013 C 
ATOM      4  C   LIG A   1      -7.599  -2.451 127.883  0.00  0.00    -0.024 C 
BRANCH   3  11
ATOM      5  O   LIG A   1      -3.570  -3.765 128.924  0.00  0.00    -0.246 OA
ATOM      6  C   LIG A   1      -4.577  -3.518 129.581  0.00  0.00    +0.332 C 
ATOM      7  C   LIG A   1      -5.069  -4.483 130.578  0.00  0.00    +0.087 C 
ATOM      8  C   LIG A   1      -5.971  -4.137 131.503  0.00  0.00    -0.016 C 
ATOM      9  C   LIG A   1      -6.557  -2.763 131.519  0.00  0.00    +0.076 C 
ATOM     10  O   LIG A   1      -5.262  -2.358 129.450  0.00  0.00    -0.454 OA
ATOM     11  C   LIG A   1      -6.523  -2.147 130.117  0.00  0.00    +0.203 C 
ENDBRANCH   3  11
ENDBRANCH   2   4
ENDBRANCH   1   2
BRANCH   1  12
ATOM     12  O   LIG A   1      -9.530  -2.136 124.667  0.00  0.00    -0.461 OA
BRANCH  12  13
ATOM     13  C   LIG A   1      -8.606  -2.632 123.805  0.00  0.00    +0.304 C 
ATOM     14  C   LIG A   1      -8.518  -1.819 122.543  0.00  0.00    +0.136 C 
ATOM     15  O   LIG A   1      -7.903  -3.624 124.021  0.00  0.00    -0.251 OA
ENDBRANCH  12  13
ENDBRANCH   1  12
BRANCH   1  16
ATOM     16  C   LIG A   1      -7.901  -0.627 125.723  0.00  0.00    +0.093 C 
BRANCH  16  17
ATOM     17  C   LIG A   1      -8.184   0.875 125.949  0.00  0.00    +0.203 C 
BRANCH  17  18
ATOM     18  C   LIG A   1      -8.702   1.216 127.324  0.00  0.00    +0.018 C 
ATOM     19  C   LIG A   1      -8.002   1.240 128.476  0.00  0.00    +0.007 C 
BRANCH  19  20
ATOM     20  C   LIG A   1      -8.579   1.531 129.805  0.00  0.00    -0.025 A 
ATOM     21  C   LIG A   1      -8.524   0.621 130.873  0.00  0.00    +0.008 A 
ATOM     22  C   LIG A   1      -9.134   0.903 132.098  0.00  0.00    +0.001 A 
ATOM     23  C   LIG A   1      -9.784   2.116 132.288  0.00  0.00    +0.000 A 
ATOM     24  C   LIG A   1      -9.809   3.053 131.259  0.00  0.00    +0.001 A 
ATOM     25  C   LIG A   1      -9.210   2.764 130.026  0.00  0.00    +0.008 A 
ENDBRANCH  19  20
ENDBRANCH  17  18
BRANCH  17  26
ATOM     26  O   LIG A   1      -9.183   1.254 124.988  0.00  0.00    -0.457 OA
BRANCH  26  27
ATOM     27  C   LIG A   1      -9.008   2.454 124.375  0.00  0.00    +0.304 C 
ATOM     28  C   LIG A   1      -8.962   2.213 122.897  0.00  0.00    +0.136 C 
ATOM     29  O   LIG A   1      -8.873   3.548 124.925  0.00  0.00    -0.251 OA
ENDBRANCH  26  27
ENDBRANCH  17  26
ENDBRANCH  16  17
ENDBRANCH   1  16
TORSDOF 11
ENDMDL
MODEL 9
REMARK VINA RESULT:      -6.2      2.673      6.451
REMARK  Name = NuBBE_578
REMARK  13 active torsions:
REMARK  status: ('A' for Active; 'I' for Inactive)
REMARK    1  A    between atoms: C_7  and  C_9
REMARK    2  A    between atoms: C_10  and  C_11
REMARK    3  A    between atoms: C_11  and  C_12
REMARK    4  A    between atoms: C_12  and  O_14
REMARK    5  A    between atoms: C_12  and  C_18
REMARK    6  A    between atoms: O_14  and  C_15
REMARK    7  A    between atoms: C_15  and  C_16
REMARK    8  A    between atoms: C_18  and  C_19
REMARK    9  A    between atoms: C_19  and  O_21
REMARK   10  A    between atoms: C_19  and  C_25
REMARK   11  A    between atoms: O_21  and  C_22
REMARK   12  A    between atoms: C_22  and  C_23
REMARK   13  A    between atoms: C_26  and  C_27
REMARK                            x       y       z     vdW  Elec       q    Type
REMARK                         _______ _______ _______ _____ _____    ______ ____
ROOT
ATOM      1  C   LIG A   1      -6.982  -1.611 125.114  0.00  0.00    +0.184 C 
ENDROOT
BRANCH   1   2
ATOM      2  C   LIG A   1      -5.736  -2.237 125.793  0.00  0.00    +0.071 C 
BRANCH   2   4
ATOM      3  C   LIG A   1      -6.282  -0.959 127.942  0.00  0.00    +0.013 C 
ATOM      4  C   LIG A   1      -5.562  -1.852 127.241  0.00  0.00    -0.024 C 
BRANCH   3  11
ATOM      5  O   LIG A   1      -8.541   1.513 130.585  0.00  0.00    -0.246 OA
ATOM      6  C   LIG A   1      -7.474   1.129 130.114  0.00  0.00    +0.332 C 
ATOM      7  C   LIG A   1      -6.500   2.102 129.593  0.00  0.00    +0.087 C 
ATOM      8  C   LIG A   1      -5.230   1.758 129.347  0.00  0.00    -0.016 C 
ATOM      9  C   LIG A   1      -4.771   0.350 129.538  0.00  0.00    +0.076 C 
ATOM     10  O   LIG A   1      -7.128  -0.178 130.074  0.00  0.00    -0.454 OA
ATOM     11  C   LIG A   1      -5.943  -0.625 129.383  0.00  0.00    +0.203 C 
ENDBRANCH   3  11
ENDBRANCH   2   4
ENDBRANCH   1   2
BRANCH   1  12
ATOM     12  O   LIG A   1      -7.685  -2.653 124.357  0.00  0.00    -0.461 OA
BRANCH  12  13
ATOM     13  C   LIG A   1      -9.036  -2.730 124.470  0.00  0.00    +0.304 C 
ATOM     14  C   LIG A   1      -9.478  -2.827 125.905  0.00  0.00    +0.136 C 
ATOM     15  O   LIG A   1      -9.825  -2.711 123.520  0.00  0.00    -0.251 OA
ENDBRANCH  12  13
ENDBRANCH   1  12
BRANCH   1  16
ATOM     16  C   LIG A   1      -6.611  -0.448 124.179  0.00  0.00    +0.093 C 
BRANCH  16  17
ATOM     17  C   LIG A   1      -7.032   0.972 124.619  0.00  0.00    +0.203 C 
BRANCH  17  18
ATOM     18  C   LIG A   1      -6.044   1.668 125.521  0.00  0.00    +0.018 C 
ATOM     19  C   LIG A   1      -5.500   2.890 125.346  0.00  0.00    +0.007 C 
BRANCH  19  20
ATOM     20  C   LIG A   1      -4.493   3.498 126.239  0.00  0.00    -0.025 A 
ATOM     21  C   LIG A   1      -4.709   4.710 126.913  0.00  0.00    +0.008 A 
ATOM     22  C   LIG A   1      -3.711   5.289 127.702  0.00  0.00    +0.001 A 
ATOM     23  C   LIG A   1      -2.488   4.649 127.857  0.00  0.00    +0.000 A 
ATOM     24  C   LIG A   1      -2.270   3.421 127.238  0.00  0.00    +0.001 A 
ATOM     25  C   LIG A   1      -3.264   2.850 126.435  0.00  0.00    +0.008 A 
ENDBRANCH  19  20
ENDBRANCH  17  18
BRANCH  17  26
ATOM     26  O   LIG A   1      -8.269   0.830 125.336  0.00  0.00    -0.457 OA
BRANCH  26  27
ATOM     27  C   LIG A   1      -9.403   1.121 124.648  0.00  0.00    +0.304 C 
ATOM     28  C   LIG A   1      -9.127   2.315 123.786  0.00  0.00    +0.136 C 
ATOM     29  O   LIG A   1     -10.485   0.537 124.734  0.00  0.00    -0.251 OA
ENDBRANCH  26  27
ENDBRANCH  17  26
ENDBRANCH  16  17
ENDBRANCH   1  16
TORSDOF 11
ENDMDL
