MODEL 1
REMARK VINA RESULT:      -9.5      0.000      0.000
REMARK  Name = NuBBE_1064
REMARK  9 active torsions:
REMARK  status: ('A' for Active; 'I' for Inactive)
REMARK    1  A    between atoms: O_1  and  C_2
REMARK    2  A    between atoms: C_6  and  C_7
REMARK    3  A    between atoms: C_11  and  C_12
REMARK    4  A    between atoms: C_19  and  C_20
REMARK    5  A    between atoms: C_23  and  C_24
REMARK    6  A    between atoms: C_27  and  C_28
REMARK    7  A    between atoms: C_27  and  C_29
REMARK    8  A    between atoms: C_32  and  C_33
REMARK    9  A    between atoms: C_32  and  C_34
REMARK                            x       y       z     vdW  Elec       q    Type
REMARK                         _______ _______ _______ _____ _____    ______ ____
ROOT
ATOM      1  C   LIG A   1      -9.429   5.339 130.364  0.00  0.00    +0.120 C 
ATOM      2  C   LIG A   1      -9.810   4.246 131.363  0.00  0.00    +0.032 C 
ATOM      3  C   LIG A   1      -9.292   2.894 130.937  0.00  0.00    +0.010 C 
ATOM      4  C   LIG A   1      -7.750   2.918 130.626  0.00  0.00    -0.025 C 
ATOM      5  C   LIG A   1      -7.050   2.751 131.997  0.00  0.00    +0.012 C 
ATOM      6  C   LIG A   1      -7.441   4.230 129.829  0.00  0.00    +0.003 C 
ATOM      7  C   LIG A   1      -6.140   4.154 129.003  0.00  0.00    +0.005 C 
ATOM      8  C   LIG A   1      -6.248   3.061 127.973  0.00  0.00    +0.008 C 
ATOM      9  C   LIG A   1      -6.190   1.634 128.630  0.00  0.00    -0.021 C 
ATOM     10  C   LIG A   1      -4.697   1.503 129.023  0.00  0.00    +0.012 C 
ATOM     11  C   LIG A   1      -7.445   1.645 129.700  0.00  0.00    +0.004 C 
ATOM     12  C   LIG A   1      -7.727   0.410 130.566  0.00  0.00    +0.039 C 
ATOM     13  C   LIG A   1      -7.781  -0.814 129.784  0.00  0.00    +0.152 C 
ATOM     14  O   LIG A   1      -6.458  -1.267 129.670  0.00  0.00    -0.364 OA
ATOM     15  C   LIG A   1      -7.177  -0.977 128.444  0.00  0.00    +0.105 C 
ATOM     16  C   LIG A   1      -6.445   0.457 127.531  0.00  0.00    +0.005 C 
ATOM     17  C   LIG A   1      -7.211   1.259 126.323  0.00  0.00    +0.014 C 
ATOM     18  C   LIG A   1      -5.250  -0.011 126.595  0.00  0.00    +0.010 C 
ATOM     19  C   LIG A   1      -5.617  -1.270 125.825  0.00  0.00    +0.007 C 
ATOM     20  C   LIG A   1      -6.676  -2.127 126.549  0.00  0.00    -0.026 C 
ATOM     21  C   LIG A   1      -5.301  -2.544 127.667  0.00  0.00    +0.011 C 
ATOM     22  C   LIG A   1      -7.416  -2.547 127.671  0.00  0.00    +0.031 C 
ATOM     23  C   LIG A   1      -8.589  -3.349 126.754  0.00  0.00    +0.013 C 
ATOM     24  C   LIG A   1      -8.864  -2.871 124.993  0.00  0.00    -0.035 C 
ATOM     25  C   LIG A   1      -7.829  -3.933 124.549  0.00  0.00    +0.011 C 
ATOM     26  C   LIG A   1      -8.226  -1.783 123.864  0.00  0.00    +0.011 C 
ATOM     27  C   LIG A   1      -9.426  -1.621 125.610  0.00  0.00    +0.007 C 
ATOM     28  C   LIG A   1      -8.323  -1.151 126.523  0.00  0.00    +0.007 C 
ATOM     29  C   LIG A   1      -7.812   5.740 130.367  0.00  0.00    -0.006 C 
ATOM     30  C   LIG A   1      -6.383   5.825 131.148  0.00  0.00    +0.014 C 
ATOM     31  C   LIG A   1      -8.222   6.775 131.562  0.00  0.00    +0.014 C 
ENDROOT
BRANCH   1  32
ATOM     32  O   LIG A   1      -9.919   5.076 129.025  0.00  0.00    -0.391 OA
ATOM     33  H   LIG A   1     -10.061   5.909 128.547  0.00  0.00    +0.210 HD
ENDBRANCH   1  32
TORSDOF 1
ENDMDL
MODEL 2
REMARK VINA RESULT:      -9.0      6.133     10.943
REMARK  Name = NuBBE_1064
REMARK  9 active torsions:
REMARK  status: ('A' for Active; 'I' for Inactive)
REMARK    1  A    between atoms: O_1  and  C_2
REMARK    2  A    between atoms: C_6  and  C_7
REMARK    3  A    between atoms: C_11  and  C_12
REMARK    4  A    between atoms: C_19  and  C_20
REMARK    5  A    between atoms: C_23  and  C_24
REMARK    6  A    between atoms: C_27  and  C_28
REMARK    7  A    between atoms: C_27  and  C_29
REMARK    8  A    between atoms: C_32  and  C_33
REMARK    9  A    between atoms: C_32  and  C_34
REMARK                            x       y       z     vdW  Elec       q    Type
REMARK                         _______ _______ _______ _____ _____    ______ ____
ROOT
ATOM      1  C   LIG A   1      -8.887   5.430 133.540  0.00  0.00    +0.120 C 
ATOM      2  C   LIG A   1      -8.625   5.922 132.117  0.00  0.00    +0.032 C 
ATOM      3  C   LIG A   1      -7.225   6.463 131.961  0.00  0.00    +0.010 C 
ATOM      4  C   LIG A   1      -6.134   5.444 132.458  0.00  0.00    -0.025 C 
ATOM      5  C   LIG A   1      -5.893   4.484 131.268  0.00  0.00    +0.012 C 
ATOM      6  C   LIG A   1      -6.648   4.803 133.791  0.00  0.00    +0.003 C 
ATOM      7  C   LIG A   1      -5.519   4.219 134.667  0.00  0.00    +0.005 C 
ATOM      8  C   LIG A   1      -4.568   5.312 135.074  0.00  0.00    +0.008 C 
ATOM      9  C   LIG A   1      -3.693   5.804 133.864  0.00  0.00    -0.021 C 
ATOM     10  C   LIG A   1      -2.702   4.629 133.663  0.00  0.00    +0.012 C 
ATOM     11  C   LIG A   1      -4.806   6.294 132.751  0.00  0.00    +0.004 C 
ATOM     12  C   LIG A   1      -4.346   6.846 131.396  0.00  0.00    +0.039 C 
ATOM     13  C   LIG A   1      -3.328   7.874 131.533  0.00  0.00    +0.152 C 
ATOM     14  O   LIG A   1      -2.098   7.203 131.613  0.00  0.00    -0.364 OA
ATOM     15  C   LIG A   1      -2.475   8.051 132.728  0.00  0.00    +0.105 C 
ATOM     16  C   LIG A   1      -2.763   7.078 134.276  0.00  0.00    +0.005 C 
ATOM     17  C   LIG A   1      -3.535   7.669 135.597  0.00  0.00    +0.014 C 
ATOM     18  C   LIG A   1      -1.403   6.834 135.059  0.00  0.00    +0.010 C 
ATOM     19  C   LIG A   1      -0.573   8.105 135.127  0.00  0.00    +0.007 C 
ATOM     20  C   LIG A   1      -0.859   9.071 133.959  0.00  0.00    -0.026 C 
ATOM     21  C   LIG A   1       0.071   7.857 132.973  0.00  0.00    +0.011 C 
ATOM     22  C   LIG A   1      -1.340   9.404 132.678  0.00  0.00    +0.031 C 
ATOM     23  C   LIG A   1      -1.331  11.070 132.970  0.00  0.00    +0.013 C 
ATOM     24  C   LIG A   1      -1.410  11.700 134.702  0.00  0.00    -0.035 C 
ATOM     25  C   LIG A   1       0.137  11.709 134.763  0.00  0.00    +0.011 C 
ATOM     26  C   LIG A   1      -1.464  11.073 136.274  0.00  0.00    +0.011 C 
ATOM     27  C   LIG A   1      -2.816  11.172 134.637  0.00  0.00    +0.007 C 
ATOM     28  C   LIG A   1      -2.637   9.744 134.191  0.00  0.00    +0.007 C 
ATOM     29  C   LIG A   1      -8.089   4.022 133.938  0.00  0.00    -0.006 C 
ATOM     30  C   LIG A   1      -7.390   2.622 133.482  0.00  0.00    +0.014 C 
ATOM     31  C   LIG A   1      -9.388   3.276 133.287  0.00  0.00    +0.014 C 
ENDROOT
BRANCH   1  32
ATOM     32  O   LIG A   1      -8.695   6.462 134.539  0.00  0.00    -0.391 OA
ATOM     33  H   LIG A   1      -7.749   6.575 134.732  0.00  0.00    +0.210 HD
ENDBRANCH   1  32
TORSDOF 1
ENDMDL
MODEL 3
REMARK VINA RESULT:      -8.9      2.098      7.357
REMARK  Name = NuBBE_1064
REMARK  9 active torsions:
REMARK  status: ('A' for Active; 'I' for Inactive)
REMARK    1  A    between atoms: O_1  and  C_2
REMARK    2  A    between atoms: C_6  and  C_7
REMARK    3  A    between atoms: C_11  and  C_12
REMARK    4  A    between atoms: C_19  and  C_20
REMARK    5  A    between atoms: C_23  and  C_24
REMARK    6  A    between atoms: C_27  and  C_28
REMARK    7  A    between atoms: C_27  and  C_29
REMARK    8  A    between atoms: C_32  and  C_33
REMARK    9  A    between atoms: C_32  and  C_34
REMARK                            x       y       z     vdW  Elec       q    Type
REMARK                         _______ _______ _______ _____ _____    ______ ____
ROOT
ATOM      1  C   LIG A   1      -9.261  -1.020 124.569  0.00  0.00    +0.120 C 
ATOM      2  C   LIG A   1      -7.975  -0.276 124.207  0.00  0.00    +0.032 C 
ATOM      3  C   LIG A   1      -7.162   0.064 125.432  0.00  0.00    +0.010 C 
ATOM      4  C   LIG A   1      -6.897  -1.193 126.340  0.00  0.00    -0.025 C 
ATOM      5  C   LIG A   1      -5.666  -1.897 125.721  0.00  0.00    +0.012 C 
ATOM      6  C   LIG A   1      -8.224  -2.021 126.410  0.00  0.00    +0.003 C 
ATOM      7  C   LIG A   1      -8.305  -2.948 127.642  0.00  0.00    +0.005 C 
ATOM      8  C   LIG A   1      -8.262  -2.129 128.904  0.00  0.00    +0.008 C 
ATOM      9  C   LIG A   1      -6.833  -1.526 129.160  0.00  0.00    -0.021 C 
ATOM     10  C   LIG A   1      -6.016  -2.767 129.601  0.00  0.00    +0.012 C 
ATOM     11  C   LIG A   1      -6.533  -0.641 127.801  0.00  0.00    +0.004 C 
ATOM     12  C   LIG A   1      -5.207   0.114 127.652  0.00  0.00    +0.039 C 
ATOM     13  C   LIG A   1      -4.894   0.919 128.821  0.00  0.00    +0.152 C 
ATOM     14  O   LIG A   1      -4.241   0.066 129.724  0.00  0.00    -0.364 OA
ATOM     15  C   LIG A   1      -5.470   0.700 130.166  0.00  0.00    +0.105 C 
ATOM     16  C   LIG A   1      -6.823  -0.530 130.450  0.00  0.00    +0.005 C 
ATOM     17  C   LIG A   1      -8.407  -0.129 130.600  0.00  0.00    +0.014 C 
ATOM     18  C   LIG A   1      -6.740  -1.144 131.912  0.00  0.00    +0.010 C 
ATOM     19  C   LIG A   1      -6.494  -0.061 132.950  0.00  0.00    +0.007 C 
ATOM     20  C   LIG A   1      -5.763   1.168 132.370  0.00  0.00    -0.026 C 
ATOM     21  C   LIG A   1      -4.313   0.069 132.366  0.00  0.00    +0.011 C 
ATOM     22  C   LIG A   1      -4.972   1.840 131.419  0.00  0.00    +0.031 C 
ATOM     23  C   LIG A   1      -5.389   3.382 131.976  0.00  0.00    +0.013 C 
ATOM     24  C   LIG A   1      -6.957   3.625 132.917  0.00  0.00    -0.035 C 
ATOM     25  C   LIG A   1      -6.193   3.383 134.242  0.00  0.00    +0.011 C 
ATOM     26  C   LIG A   1      -8.244   2.688 133.493  0.00  0.00    +0.011 C 
ATOM     27  C   LIG A   1      -7.589   3.346 131.583  0.00  0.00    +0.007 C 
ATOM     28  C   LIG A   1      -6.968   2.038 131.163  0.00  0.00    +0.007 C 
ATOM     29  C   LIG A   1      -9.026  -2.585 125.088  0.00  0.00    -0.006 C 
ATOM     30  C   LIG A   1      -8.125  -3.944 125.106  0.00  0.00    +0.014 C 
ATOM     31  C   LIG A   1      -9.084  -2.964 123.501  0.00  0.00    +0.014 C 
ENDROOT
BRANCH   1  32
ATOM     32  O   LIG A   1     -10.111  -0.270 125.474  0.00  0.00    -0.391 OA
ATOM     33  H   LIG A   1     -10.391  -0.830 126.217  0.00  0.00    +0.210 HD
ENDBRANCH   1  32
TORSDOF 1
ENDMDL
MODEL 4
REMARK VINA RESULT:      -8.8      2.391      3.623
REMARK  Name = NuBBE_1064
REMARK  9 active torsions:
REMARK  status: ('A' for Active; 'I' for Inactive)
REMARK    1  A    between atoms: O_1  and  C_2
REMARK    2  A    between atoms: C_6  and  C_7
REMARK    3  A    between atoms: C_11  and  C_12
REMARK    4  A    between atoms: C_19  and  C_20
REMARK    5  A    between atoms: C_23  and  C_24
REMARK    6  A    between atoms: C_27  and  C_28
REMARK    7  A    between atoms: C_27  and  C_29
REMARK    8  A    between atoms: C_32  and  C_33
REMARK    9  A    between atoms: C_32  and  C_34
REMARK                            x       y       z     vdW  Elec       q    Type
REMARK                         _______ _______ _______ _____ _____    ______ ____
ROOT
ATOM      1  C   LIG A   1      -4.443   7.209 130.471  0.00  0.00    +0.120 C 
ATOM      2  C   LIG A   1      -5.808   6.923 131.097  0.00  0.00    +0.032 C 
ATOM      3  C   LIG A   1      -6.463   5.712 130.480  0.00  0.00    +0.010 C 
ATOM      4  C   LIG A   1      -5.518   4.453 130.487  0.00  0.00    -0.025 C 
ATOM      5  C   LIG A   1      -5.683   3.823 131.891  0.00  0.00    +0.012 C 
ATOM      6  C   LIG A   1      -4.081   4.931 130.089  0.00  0.00    +0.003 C 
ATOM      7  C   LIG A   1      -3.190   3.799 129.536  0.00  0.00    +0.005 C 
ATOM      8  C   LIG A   1      -3.799   3.233 128.281  0.00  0.00    +0.008 C 
ATOM      9  C   LIG A   1      -5.087   2.385 128.589  0.00  0.00    -0.021 C 
ATOM     10  C   LIG A   1      -4.502   1.098 129.223  0.00  0.00    +0.012 C 
ATOM     11  C   LIG A   1      -6.077   3.449 129.369  0.00  0.00    +0.004 C 
ATOM     12  C   LIG A   1      -7.460   2.997 129.855  0.00  0.00    +0.039 C 
ATOM     13  C   LIG A   1      -8.217   2.318 128.816  0.00  0.00    +0.152 C 
ATOM     14  O   LIG A   1      -7.825   0.971 128.859  0.00  0.00    -0.364 OA
ATOM     15  C   LIG A   1      -7.617   1.693 127.618  0.00  0.00    +0.105 C 
ATOM     16  C   LIG A   1      -5.820   1.889 127.220  0.00  0.00    +0.005 C 
ATOM     17  C   LIG A   1      -5.240   2.944 126.105  0.00  0.00    +0.014 C 
ATOM     18  C   LIG A   1      -5.263   0.617 126.450  0.00  0.00    +0.010 C 
ATOM     19  C   LIG A   1      -6.219   0.175 125.355  0.00  0.00    +0.007 C 
ATOM     20  C   LIG A   1      -7.682   0.571 125.642  0.00  0.00    -0.026 C 
ATOM     21  C   LIG A   1      -7.603  -0.763 126.878  0.00  0.00    +0.011 C 
ATOM     22  C   LIG A   1      -8.748   0.967 126.472  0.00  0.00    +0.031 C 
ATOM     23  C   LIG A   1      -9.738   1.443 125.185  0.00  0.00    +0.013 C 
ATOM     24  C   LIG A   1      -8.983   1.894 123.563  0.00  0.00    -0.035 C 
ATOM     25  C   LIG A   1      -9.126   0.426 123.095  0.00  0.00    +0.011 C 
ATOM     26  C   LIG A   1      -7.444   1.964 122.861  0.00  0.00    +0.011 C 
ATOM     27  C   LIG A   1      -8.488   3.087 124.332  0.00  0.00    +0.007 C 
ATOM     28  C   LIG A   1      -7.796   2.479 125.524  0.00  0.00    +0.007 C 
ATOM     29  C   LIG A   1      -3.255   6.114 130.880  0.00  0.00    -0.006 C 
ATOM     30  C   LIG A   1      -2.651   5.014 131.920  0.00  0.00    +0.014 C 
ATOM     31  C   LIG A   1      -3.022   7.076 132.179  0.00  0.00    +0.014 C 
ENDROOT
BRANCH   1  32
ATOM     32  O   LIG A   1      -4.513   7.423 129.038  0.00  0.00    -0.391 OA
ATOM     33  H   LIG A   1      -4.087   8.263 128.801  0.00  0.00    +0.210 HD
ENDBRANCH   1  32
TORSDOF 1
ENDMDL
MODEL 5
REMARK VINA RESULT:      -8.8      2.478      7.227
REMARK  Name = NuBBE_1064
REMARK  9 active torsions:
REMARK  status: ('A' for Active; 'I' for Inactive)
REMARK    1  A    between atoms: O_1  and  C_2
REMARK    2  A    between atoms: C_6  and  C_7
REMARK    3  A    between atoms: C_11  and  C_12
REMARK    4  A    between atoms: C_19  and  C_20
REMARK    5  A    between atoms: C_23  and  C_24
REMARK    6  A    between atoms: C_27  and  C_28
REMARK    7  A    between atoms: C_27  and  C_29
REMARK    8  A    between atoms: C_32  and  C_33
REMARK    9  A    between atoms: C_32  and  C_34
REMARK                            x       y       z     vdW  Elec       q    Type
REMARK                         _______ _______ _______ _____ _____    ______ ____
ROOT
ATOM      1  C   LIG A   1      -6.797   3.834 124.093  0.00  0.00    +0.120 C 
ATOM      2  C   LIG A   1      -5.354   3.910 124.592  0.00  0.00    +0.032 C 
ATOM      3  C   LIG A   1      -5.261   3.645 126.075  0.00  0.00    +0.010 C 
ATOM      4  C   LIG A   1      -5.973   2.303 126.486  0.00  0.00    -0.025 C 
ATOM      5  C   LIG A   1      -4.933   1.187 126.224  0.00  0.00    +0.012 C 
ATOM      6  C   LIG A   1      -7.321   2.214 125.696  0.00  0.00    +0.003 C 
ATOM      7  C   LIG A   1      -8.359   1.280 126.355  0.00  0.00    +0.005 C 
ATOM      8  C   LIG A   1      -8.716   1.795 127.724  0.00  0.00    +0.008 C 
ATOM      9  C   LIG A   1      -7.539   1.595 128.747  0.00  0.00    -0.021 C 
ATOM     10  C   LIG A   1      -7.570   0.067 129.004  0.00  0.00    +0.012 C 
ATOM     11  C   LIG A   1      -6.280   2.405 128.057  0.00  0.00    +0.004 C 
ATOM     12  C   LIG A   1      -4.915   2.442 128.756  0.00  0.00    +0.039 C 
ATOM     13  C   LIG A   1      -5.019   2.828 130.154  0.00  0.00    +0.152 C 
ATOM     14  O   LIG A   1      -5.288   1.650 130.868  0.00  0.00    -0.364 OA
ATOM     15  C   LIG A   1      -6.255   2.729 130.958  0.00  0.00    +0.105 C 
ATOM     16  C   LIG A   1      -7.877   2.275 130.190  0.00  0.00    +0.005 C 
ATOM     17  C   LIG A   1      -9.043   3.362 129.805  0.00  0.00    +0.014 C 
ATOM     18  C   LIG A   1      -8.802   1.501 131.222  0.00  0.00    +0.010 C 
ATOM     19  C   LIG A   1      -8.792   2.178 132.583  0.00  0.00    +0.007 C 
ATOM     20  C   LIG A   1      -7.495   2.971 132.848  0.00  0.00    -0.026 C 
ATOM     21  C   LIG A   1      -6.750   1.322 133.045  0.00  0.00    +0.011 C 
ATOM     22  C   LIG A   1      -6.146   3.304 132.625  0.00  0.00    +0.031 C 
ATOM     23  C   LIG A   1      -6.235   4.763 133.476  0.00  0.00    +0.013 C 
ATOM     24  C   LIG A   1      -7.865   5.597 133.701  0.00  0.00    -0.035 C 
ATOM     25  C   LIG A   1      -8.063   4.838 135.036  0.00  0.00    +0.011 C 
ATOM     26  C   LIG A   1      -9.489   5.325 133.310  0.00  0.00    +0.011 C 
ATOM     27  C   LIG A   1      -7.738   5.843 132.224  0.00  0.00    +0.007 C 
ATOM     28  C   LIG A   1      -7.485   4.470 131.657  0.00  0.00    +0.007 C 
ATOM     29  C   LIG A   1      -7.431   2.294 124.056  0.00  0.00    -0.006 C 
ATOM     30  C   LIG A   1      -7.211   0.681 123.951  0.00  0.00    +0.014 C 
ATOM     31  C   LIG A   1      -6.760   2.212 122.569  0.00  0.00    +0.014 C 
ENDROOT
BRANCH   1  32
ATOM     32  O   LIG A   1      -7.678   4.766 124.768  0.00  0.00    -0.391 OA
ATOM     33  H   LIG A   1      -7.162   5.396 125.297  0.00  0.00    +0.210 HD
ENDBRANCH   1  32
TORSDOF 1
ENDMDL
MODEL 6
REMARK VINA RESULT:      -8.7      2.102      3.760
REMARK  Name = NuBBE_1064
REMARK  9 active torsions:
REMARK  status: ('A' for Active; 'I' for Inactive)
REMARK    1  A    between atoms: O_1  and  C_2
REMARK    2  A    between atoms: C_6  and  C_7
REMARK    3  A    between atoms: C_11  and  C_12
REMARK    4  A    between atoms: C_19  and  C_20
REMARK    5  A    between atoms: C_23  and  C_24
REMARK    6  A    between atoms: C_27  and  C_28
REMARK    7  A    between atoms: C_27  and  C_29
REMARK    8  A    between atoms: C_32  and  C_33
REMARK    9  A    between atoms: C_32  and  C_34
REMARK                            x       y       z     vdW  Elec       q    Type
REMARK                         _______ _______ _______ _____ _____    ______ ____
ROOT
ATOM      1  C   LIG A   1      -4.876   3.941 132.266  0.00  0.00    +0.120 C 
ATOM      2  C   LIG A   1      -3.612   3.800 131.417  0.00  0.00    +0.032 C 
ATOM      3  C   LIG A   1      -3.912   3.212 130.061  0.00  0.00    +0.010 C 
ATOM      4  C   LIG A   1      -5.059   3.990 129.314  0.00  0.00    -0.025 C 
ATOM      5  C   LIG A   1      -4.365   5.195 128.635  0.00  0.00    +0.012 C 
ATOM      6  C   LIG A   1      -6.177   4.315 130.360  0.00  0.00    +0.003 C 
ATOM      7  C   LIG A   1      -7.558   4.576 129.721  0.00  0.00    +0.005 C 
ATOM      8  C   LIG A   1      -8.024   3.348 128.986  0.00  0.00    +0.008 C 
ATOM      9  C   LIG A   1      -7.200   3.108 127.669  0.00  0.00    -0.021 C 
ATOM     10  C   LIG A   1      -7.734   4.218 126.730  0.00  0.00    +0.012 C 
ATOM     11  C   LIG A   1      -5.642   2.996 128.199  0.00  0.00    +0.004 C 
ATOM     12  C   LIG A   1      -4.504   2.767 127.195  0.00  0.00    +0.039 C 
ATOM     13  C   LIG A   1      -4.778   1.664 126.290  0.00  0.00    +0.152 C 
ATOM     14  O   LIG A   1      -5.527   2.200 125.231  0.00  0.00    -0.364 OA
ATOM     15  C   LIG A   1      -6.128   1.131 126.007  0.00  0.00    +0.105 C 
ATOM     16  C   LIG A   1      -7.614   1.706 126.949  0.00  0.00    +0.005 C 
ATOM     17  C   LIG A   1      -8.299   0.864 128.179  0.00  0.00    +0.014 C 
ATOM     18  C   LIG A   1      -8.921   1.645 126.049  0.00  0.00    +0.010 C 
ATOM     19  C   LIG A   1      -8.994   0.338 125.276  0.00  0.00    +0.007 C 
ATOM     20  C   LIG A   1      -7.606  -0.282 125.014  0.00  0.00    -0.026 C 
ATOM     21  C   LIG A   1      -7.440   1.066 123.804  0.00  0.00    +0.011 C 
ATOM     22  C   LIG A   1      -6.203  -0.248 124.905  0.00  0.00    +0.031 C 
ATOM     23  C   LIG A   1      -6.032  -1.930 124.957  0.00  0.00    +0.013 C 
ATOM     24  C   LIG A   1      -7.352  -2.964 125.727  0.00  0.00    -0.035 C 
ATOM     25  C   LIG A   1      -8.039  -3.104 124.347  0.00  0.00    +0.011 C 
ATOM     26  C   LIG A   1      -8.865  -2.747 126.454  0.00  0.00    +0.011 C 
ATOM     27  C   LIG A   1      -6.853  -2.333 126.996  0.00  0.00    +0.007 C 
ATOM     28  C   LIG A   1      -6.905  -0.856 126.701  0.00  0.00    +0.007 C 
ATOM     29  C   LIG A   1      -5.914   5.140 131.760  0.00  0.00    -0.006 C 
ATOM     30  C   LIG A   1      -6.165   6.554 130.986  0.00  0.00    +0.014 C 
ATOM     31  C   LIG A   1      -5.003   6.121 132.695  0.00  0.00    +0.014 C 
ENDROOT
BRANCH   1  32
ATOM     32  O   LIG A   1      -5.562   2.680 132.470  0.00  0.00    -0.391 OA
ATOM     33  H   LIG A   1      -6.523   2.819 132.500  0.00  0.00    +0.210 HD
ENDBRANCH   1  32
TORSDOF 1
ENDMDL
MODEL 7
REMARK VINA RESULT:      -8.6      3.783      8.532
REMARK  Name = NuBBE_1064
REMARK  9 active torsions:
REMARK  status: ('A' for Active; 'I' for Inactive)
REMARK    1  A    between atoms: O_1  and  C_2
REMARK    2  A    between atoms: C_6  and  C_7
REMARK    3  A    between atoms: C_11  and  C_12
REMARK    4  A    between atoms: C_19  and  C_20
REMARK    5  A    between atoms: C_23  and  C_24
REMARK    6  A    between atoms: C_27  and  C_28
REMARK    7  A    between atoms: C_27  and  C_29
REMARK    8  A    between atoms: C_32  and  C_33
REMARK    9  A    between atoms: C_32  and  C_34
REMARK                            x       y       z     vdW  Elec       q    Type
REMARK                         _______ _______ _______ _____ _____    ______ ____
ROOT
ATOM      1  C   LIG A   1      -4.754  -2.608 129.391  0.00  0.00    +0.120 C 
ATOM      2  C   LIG A   1      -3.525  -2.674 130.299  0.00  0.00    +0.032 C 
ATOM      3  C   LIG A   1      -3.334  -1.394 131.073  0.00  0.00    +0.010 C 
ATOM      4  C   LIG A   1      -4.635  -0.963 131.846  0.00  0.00    -0.025 C 
ATOM      5  C   LIG A   1      -4.611  -1.764 133.171  0.00  0.00    +0.012 C 
ATOM      6  C   LIG A   1      -5.857  -1.201 130.897  0.00  0.00    +0.003 C 
ATOM      7  C   LIG A   1      -7.096  -0.360 131.270  0.00  0.00    +0.005 C 
ATOM      8  C   LIG A   1      -6.772   1.107 131.165  0.00  0.00    +0.008 C 
ATOM      9  C   LIG A   1      -5.815   1.576 132.322  0.00  0.00    -0.021 C 
ATOM     10  C   LIG A   1      -6.754   1.582 133.555  0.00  0.00    +0.012 C 
ATOM     11  C   LIG A   1      -4.494   0.604 132.154  0.00  0.00    +0.004 C 
ATOM     12  C   LIG A   1      -3.310   0.744 133.120  0.00  0.00    +0.039 C 
ATOM     13  C   LIG A   1      -2.871   2.122 133.262  0.00  0.00    +0.152 C 
ATOM     14  O   LIG A   1      -3.678   2.692 134.259  0.00  0.00    -0.364 OA
ATOM     15  C   LIG A   1      -3.704   3.302 132.943  0.00  0.00    +0.105 C 
ATOM     16  C   LIG A   1      -5.357   3.128 132.128  0.00  0.00    +0.005 C 
ATOM     17  C   LIG A   1      -5.620   3.379 130.529  0.00  0.00    +0.014 C 
ATOM     18  C   LIG A   1      -6.338   4.295 132.572  0.00  0.00    +0.010 C 
ATOM     19  C   LIG A   1      -5.637   5.643 132.543  0.00  0.00    +0.007 C 
ATOM     20  C   LIG A   1      -4.112   5.529 132.745  0.00  0.00    -0.026 C 
ATOM     21  C   LIG A   1      -4.556   5.175 134.474  0.00  0.00    +0.011 C 
ATOM     22  C   LIG A   1      -2.932   4.877 133.152  0.00  0.00    +0.031 C 
ATOM     23  C   LIG A   1      -1.911   5.918 132.296  0.00  0.00    +0.013 C 
ATOM     24  C   LIG A   1      -2.562   6.860 130.849  0.00  0.00    -0.035 C 
ATOM     25  C   LIG A   1      -2.930   8.035 131.787  0.00  0.00    +0.011 C 
ATOM     26  C   LIG A   1      -4.029   7.061 130.029  0.00  0.00    +0.011 C 
ATOM     27  C   LIG A   1      -2.600   5.499 130.212  0.00  0.00    +0.007 C 
ATOM     28  C   LIG A   1      -3.389   4.670 131.193  0.00  0.00    +0.007 C 
ATOM     29  C   LIG A   1      -6.210  -2.649 130.199  0.00  0.00    -0.006 C 
ATOM     30  C   LIG A   1      -7.084  -3.079 131.507  0.00  0.00    +0.014 C 
ATOM     31  C   LIG A   1      -6.049  -4.272 130.105  0.00  0.00    +0.014 C 
ENDROOT
BRANCH   1  32
ATOM     32  O   LIG A   1      -4.693  -1.517 128.438  0.00  0.00    -0.391 OA
ATOM     33  H   LIG A   1      -4.509  -0.680 128.894  0.00  0.00    +0.210 HD
ENDBRANCH   1  32
TORSDOF 1
ENDMDL
MODEL 8
REMARK VINA RESULT:      -8.6      2.720      8.275
REMARK  Name = NuBBE_1064
REMARK  9 active torsions:
REMARK  status: ('A' for Active; 'I' for Inactive)
REMARK    1  A    between atoms: O_1  and  C_2
REMARK    2  A    between atoms: C_6  and  C_7
REMARK    3  A    between atoms: C_11  and  C_12
REMARK    4  A    between atoms: C_19  and  C_20
REMARK    5  A    between atoms: C_23  and  C_24
REMARK    6  A    between atoms: C_27  and  C_28
REMARK    7  A    between atoms: C_27  and  C_29
REMARK    8  A    between atoms: C_32  and  C_33
REMARK    9  A    between atoms: C_32  and  C_34
REMARK                            x       y       z     vdW  Elec       q    Type
REMARK                         _______ _______ _______ _____ _____    ______ ____
ROOT
ATOM      1  C   LIG A   1      -5.781  -1.175 127.814  0.00  0.00    +0.120 C 
ATOM      2  C   LIG A   1      -6.979  -0.768 128.671  0.00  0.00    +0.032 C 
ATOM      3  C   LIG A   1      -6.847   0.644 129.184  0.00  0.00    +0.010 C 
ATOM      4  C   LIG A   1      -6.552   1.673 128.030  0.00  0.00    -0.025 C 
ATOM      5  C   LIG A   1      -7.934   2.025 127.429  0.00  0.00    +0.012 C 
ATOM      6  C   LIG A   1      -5.505   1.023 127.065  0.00  0.00    +0.003 C 
ATOM      7  C   LIG A   1      -4.724   2.054 126.223  0.00  0.00    +0.005 C 
ATOM      8  C   LIG A   1      -3.941   2.968 127.127  0.00  0.00    +0.008 C 
ATOM      9  C   LIG A   1      -4.878   3.964 127.903  0.00  0.00    -0.021 C 
ATOM     10  C   LIG A   1      -5.304   4.960 126.796  0.00  0.00    +0.012 C 
ATOM     11  C   LIG A   1      -5.911   2.971 128.720  0.00  0.00    +0.004 C 
ATOM     12  C   LIG A   1      -7.010   3.568 129.608  0.00  0.00    +0.039 C 
ATOM     13  C   LIG A   1      -6.496   4.575 130.522  0.00  0.00    +0.152 C 
ATOM     14  O   LIG A   1      -6.491   5.786 129.812  0.00  0.00    -0.364 OA
ATOM     15  C   LIG A   1      -5.224   5.305 130.333  0.00  0.00    +0.105 C 
ATOM     16  C   LIG A   1      -4.042   4.857 128.981  0.00  0.00    +0.005 C 
ATOM     17  C   LIG A   1      -2.688   3.961 129.210  0.00  0.00    +0.014 C 
ATOM     18  C   LIG A   1      -3.234   6.130 128.483  0.00  0.00    +0.010 C 
ATOM     19  C   LIG A   1      -2.737   6.958 129.656  0.00  0.00    +0.007 C 
ATOM     20  C   LIG A   1      -3.612   6.797 130.916  0.00  0.00    -0.026 C 
ATOM     21  C   LIG A   1      -4.805   7.812 129.990  0.00  0.00    +0.011 C 
ATOM     22  C   LIG A   1      -4.789   6.449 131.606  0.00  0.00    +0.031 C 
ATOM     23  C   LIG A   1      -4.046   6.441 133.125  0.00  0.00    +0.013 C 
ATOM     24  C   LIG A   1      -2.222   6.194 133.255  0.00  0.00    -0.035 C 
ATOM     25  C   LIG A   1      -2.016   7.727 133.193  0.00  0.00    +0.011 C 
ATOM     26  C   LIG A   1      -0.899   5.978 132.221  0.00  0.00    +0.011 C 
ATOM     27  C   LIG A   1      -2.563   4.798 132.815  0.00  0.00    +0.007 C 
ATOM     28  C   LIG A   1      -3.370   5.010 131.560  0.00  0.00    +0.007 C 
ATOM     29  C   LIG A   1      -5.717  -0.431 126.324  0.00  0.00    -0.006 C 
ATOM     30  C   LIG A   1      -6.476   0.300 125.080  0.00  0.00    +0.014 C 
ATOM     31  C   LIG A   1      -6.669  -1.663 125.832  0.00  0.00    +0.014 C 
ENDROOT
BRANCH   1  32
ATOM     32  O   LIG A   1      -4.520  -1.076 128.523  0.00  0.00    -0.391 OA
ATOM     33  H   LIG A   1      -4.660  -1.182 129.478  0.00  0.00    +0.210 HD
ENDBRANCH   1  32
TORSDOF 1
ENDMDL
MODEL 9
REMARK VINA RESULT:      -8.5      2.285      7.380
REMARK  Name = NuBBE_1064
REMARK  9 active torsions:
REMARK  status: ('A' for Active; 'I' for Inactive)
REMARK    1  A    between atoms: O_1  and  C_2
REMARK    2  A    between atoms: C_6  and  C_7
REMARK    3  A    between atoms: C_11  and  C_12
REMARK    4  A    between atoms: C_19  and  C_20
REMARK    5  A    between atoms: C_23  and  C_24
REMARK    6  A    between atoms: C_27  and  C_28
REMARK    7  A    between atoms: C_27  and  C_29
REMARK    8  A    between atoms: C_32  and  C_33
REMARK    9  A    between atoms: C_32  and  C_34
REMARK                            x       y       z     vdW  Elec       q    Type
REMARK                         _______ _______ _______ _____ _____    ______ ____
ROOT
ATOM      1  C   LIG A   1      -8.649   2.664 123.945  0.00  0.00    +0.120 C 
ATOM      2  C   LIG A   1      -7.159   2.634 123.604  0.00  0.00    +0.032 C 
ATOM      3  C   LIG A   1      -6.300   2.655 124.844  0.00  0.00    +0.010 C 
ATOM      4  C   LIG A   1      -6.708   1.533 125.870  0.00  0.00    -0.025 C 
ATOM      5  C   LIG A   1      -5.980   0.253 125.392  0.00  0.00    +0.012 C 
ATOM      6  C   LIG A   1      -8.271   1.480 125.926  0.00  0.00    +0.003 C 
ATOM      7  C   LIG A   1      -8.817   0.849 127.224  0.00  0.00    +0.005 C 
ATOM      8  C   LIG A   1      -8.390   1.667 128.413  0.00  0.00    +0.008 C 
ATOM      9  C   LIG A   1      -6.853   1.509 128.706  0.00  0.00    -0.021 C 
ATOM     10  C   LIG A   1      -6.767   0.081 129.302  0.00  0.00    +0.012 C 
ATOM     11  C   LIG A   1      -6.136   1.984 127.299  0.00  0.00    +0.004 C 
ATOM     12  C   LIG A   1      -4.608   1.966 127.172  0.00  0.00    +0.039 C 
ATOM     13  C   LIG A   1      -3.951   2.630 128.286  0.00  0.00    +0.152 C 
ATOM     14  O   LIG A   1      -3.821   1.665 129.297  0.00  0.00    -0.364 OA
ATOM     15  C   LIG A   1      -4.577   2.865 129.605  0.00  0.00    +0.105 C 
ATOM     16  C   LIG A   1      -6.367   2.500 129.906  0.00  0.00    +0.005 C 
ATOM     17  C   LIG A   1      -7.543   3.643 129.921  0.00  0.00    +0.014 C 
ATOM     18  C   LIG A   1      -6.618   2.081 131.417  0.00  0.00    +0.010 C 
ATOM     19  C   LIG A   1      -5.880   3.004 132.373  0.00  0.00    +0.007 C 
ATOM     20  C   LIG A   1      -4.627   3.644 131.739  0.00  0.00    -0.026 C 
ATOM     21  C   LIG A   1      -3.915   1.979 131.919  0.00  0.00    +0.011 C 
ATOM     22  C   LIG A   1      -3.595   3.736 130.787  0.00  0.00    +0.031 C 
ATOM     23  C   LIG A   1      -3.198   5.331 131.184  0.00  0.00    +0.013 C 
ATOM     24  C   LIG A   1      -4.450   6.413 132.000  0.00  0.00    -0.035 C 
ATOM     25  C   LIG A   1      -3.924   5.965 133.386  0.00  0.00    +0.011 C 
ATOM     26  C   LIG A   1      -6.039   6.299 132.571  0.00  0.00    +0.011 C 
ATOM     27  C   LIG A   1      -5.119   6.344 130.657  0.00  0.00    +0.007 C 
ATOM     28  C   LIG A   1      -5.225   4.864 130.389  0.00  0.00    +0.007 C 
ATOM     29  C   LIG A   1      -9.230   1.251 124.609  0.00  0.00    -0.006 C 
ATOM     30  C   LIG A   1      -9.123  -0.366 124.798  0.00  0.00    +0.014 C 
ATOM     31  C   LIG A   1      -9.448   0.785 123.058  0.00  0.00    +0.014 C 
ENDROOT
BRANCH   1  32
ATOM     32  O   LIG A   1      -9.026   3.825 124.728  0.00  0.00    -0.391 OA
ATOM     33  H   LIG A   1      -8.250   4.191 125.184  0.00  0.00    +0.210 HD
ENDBRANCH   1  32
TORSDOF 1
ENDMDL
