MODEL 1
REMARK VINA RESULT:      -6.7      0.000      0.000
REMARK  Name = NuBBE_1691
REMARK  16 active torsions:
REMARK  status: ('A' for Active; 'I' for Inactive)
REMARK    1  A    between atoms: C_1  and  C_2
REMARK    2  A    between atoms: C_2  and  C_3
REMARK    3  A    between atoms: C_3  and  C_4
REMARK    4  A    between atoms: C_5  and  C_6
REMARK    5  A    between atoms: C_6  and  C_7
REMARK    6  A    between atoms: C_8  and  C_9
REMARK    7  A    between atoms: C_9  and  C_10
REMARK    8  A    between atoms: C_10  and  C_11
REMARK    9  A    between atoms: C_11  and  C_12
REMARK   10  A    between atoms: C_12  and  C_13
REMARK   11  A    between atoms: C_13  and  C_14
REMARK   12  A    between atoms: C_14  and  C_15
REMARK   13  A    between atoms: C_15  and  C_16
REMARK   14  A    between atoms: C_20  and  O_21
REMARK   15  A    between atoms: C_22  and  C_23
REMARK   16  A    between atoms: C_23  and  O_24
REMARK                            x       y       z     vdW  Elec       q    Type
REMARK                         _______ _______ _______ _____ _____    ______ ____
ROOT
ATOM      1  C   LIG A   1      -8.901   0.898 123.736  0.00  0.00    +0.005 C 
ENDROOT
BRANCH   1   2
ATOM      2  C   LIG A   1      -9.899   0.897 124.890  0.00  0.00    +0.000 C 
BRANCH   2   3
ATOM      3  C   LIG A   1      -9.338   0.353 126.202  0.00  0.00    +0.000 C 
BRANCH   3   4
ATOM      4  C   LIG A   1      -7.911  -0.191 126.032  0.00  0.00    +0.000 C 
BRANCH   4   5
ATOM      5  C   LIG A   1      -7.611  -1.461 126.850  0.00  0.00    +0.004 C 
BRANCH   5   6
ATOM      6  C   LIG A   1      -8.715  -2.496 126.655  0.00  0.00    +0.027 C 
BRANCH   6   8
ATOM      7  C   LIG A   1      -8.643  -3.766 124.354  0.00  0.00    -0.027 C 
ATOM      8  C   LIG A   1      -8.533  -3.639 125.692  0.00  0.00    -0.031 C 
BRANCH   7   9
ATOM      9  C   LIG A   1      -9.002  -2.752 123.321  0.00  0.00    +0.054 C 
BRANCH   9  11
ATOM     10  C   LIG A   1      -6.558  -1.926 122.700  0.00  0.00    -0.031 C 
ATOM     11  C   LIG A   1      -7.877  -2.129 122.519  0.00  0.00    -0.027 C 
BRANCH  10  12
ATOM     12  C   LIG A   1      -5.623  -2.278 123.822  0.00  0.00    +0.026 C 
BRANCH  12  14
ATOM     13  C   LIG A   1      -4.702  -4.620 123.798  0.00  0.00    +0.004 C 
ATOM     14  C   LIG A   1      -4.475  -3.176 123.366  0.00  0.00    +0.001 C 
ENDBRANCH  12  14
ENDBRANCH  10  12
ENDBRANCH   9  11
ENDBRANCH   7   9
ENDBRANCH   6   8
ENDBRANCH   5   6
ENDBRANCH   4   5
ENDBRANCH   3   4
ENDBRANCH   2   3
ENDBRANCH   1   2
BRANCH   1  15
ATOM     15  C   LIG A   1      -8.630   2.311 123.202  0.00  0.00    +0.036 C 
BRANCH  15  16
ATOM     16  C   LIG A   1      -7.283   2.933 123.506  0.00  0.00    -0.030 A 
ATOM     17  C   LIG A   1      -6.806   2.905 124.829  0.00  0.00    +0.005 A 
ATOM     18  C   LIG A   1      -5.666   3.628 125.198  0.00  0.00    +0.004 A 
ATOM     19  C   LIG A   1      -4.981   4.394 124.256  0.00  0.00    +0.046 A 
ATOM     20  C   LIG A   1      -5.404   4.390 122.927  0.00  0.00    +0.131 A 
ATOM     21  C   LIG A   1      -6.526   3.640 122.545  0.00  0.00    +0.103 A 
BRANCH  20  22
ATOM     22  O   LIG A   1      -4.737   5.145 122.003  0.00  0.00    -0.506 OA
ATOM     23  H   LIG A   1      -3.916   5.485 122.398  0.00  0.00    +0.292 HD
ENDBRANCH  20  22
BRANCH  21  24
ATOM     24  C   LIG A   1      -6.901   3.621 121.123  0.00  0.00    +0.341 C 
ATOM     25  O   LIG A   1      -6.187   3.350 120.178  0.00  0.00    -0.245 OA
BRANCH  24  26
ATOM     26  O   LIG A   1      -8.162   4.072 120.980  0.00  0.00    -0.477 OA
ATOM     27  H   LIG A   1      -8.070   5.043 120.907  0.00  0.00    +0.295 HD
ENDBRANCH  24  26
ENDBRANCH  21  24
ENDBRANCH  15  16
ENDBRANCH   1  15
TORSDOF 15
ENDMDL
MODEL 2
REMARK VINA RESULT:      -6.5      0.753      2.125
REMARK  Name = NuBBE_1691
REMARK  16 active torsions:
REMARK  status: ('A' for Active; 'I' for Inactive)
REMARK    1  A    between atoms: C_1  and  C_2
REMARK    2  A    between atoms: C_2  and  C_3
REMARK    3  A    between atoms: C_3  and  C_4
REMARK    4  A    between atoms: C_5  and  C_6
REMARK    5  A    between atoms: C_6  and  C_7
REMARK    6  A    between atoms: C_8  and  C_9
REMARK    7  A    between atoms: C_9  and  C_10
REMARK    8  A    between atoms: C_10  and  C_11
REMARK    9  A    between atoms: C_11  and  C_12
REMARK   10  A    between atoms: C_12  and  C_13
REMARK   11  A    between atoms: C_13  and  C_14
REMARK   12  A    between atoms: C_14  and  C_15
REMARK   13  A    between atoms: C_15  and  C_16
REMARK   14  A    between atoms: C_20  and  O_21
REMARK   15  A    between atoms: C_22  and  C_23
REMARK   16  A    between atoms: C_23  and  O_24
REMARK                            x       y       z     vdW  Elec       q    Type
REMARK                         _______ _______ _______ _____ _____    ______ ____
ROOT
ATOM      1  C   LIG A   1      -9.777   1.559 124.175  0.00  0.00    +0.005 C 
ENDROOT
BRANCH   1   2
ATOM      2  C   LIG A   1      -9.750   0.034 124.131  0.00  0.00    +0.000 C 
BRANCH   2   3
ATOM      3  C   LIG A   1      -9.504  -0.548 122.741  0.00  0.00    +0.000 C 
BRANCH   3   4
ATOM      4  C   LIG A   1      -8.719  -1.866 122.802  0.00  0.00    +0.000 C 
BRANCH   4   5
ATOM      5  C   LIG A   1      -9.489  -3.040 123.435  0.00  0.00    +0.004 C 
BRANCH   5   6
ATOM      6  C   LIG A   1      -8.648  -3.709 124.519  0.00  0.00    +0.027 C 
BRANCH   6   8
ATOM      7  C   LIG A   1      -8.417  -2.355 126.759  0.00  0.00    -0.027 C 
ATOM      8  C   LIG A   1      -8.847  -3.359 125.969  0.00  0.00    -0.031 C 
BRANCH   7   9
ATOM      9  C   LIG A   1      -7.551  -1.185 126.437  0.00  0.00    +0.054 C 
BRANCH   9  11
ATOM     10  C   LIG A   1      -5.262  -1.834 125.263  0.00  0.00    -0.031 C 
ATOM     11  C   LIG A   1      -6.065  -1.429 126.265  0.00  0.00    -0.027 C 
BRANCH  10  12
ATOM     12  C   LIG A   1      -5.534  -2.203 123.833  0.00  0.00    +0.026 C 
BRANCH  12  14
ATOM     13  C   LIG A   1      -4.786  -4.604 123.913  0.00  0.00    +0.004 C 
ATOM     14  C   LIG A   1      -4.541  -3.233 123.296  0.00  0.00    +0.001 C 
ENDBRANCH  12  14
ENDBRANCH  10  12
ENDBRANCH   9  11
ENDBRANCH   7   9
ENDBRANCH   6   8
ENDBRANCH   5   6
ENDBRANCH   4   5
ENDBRANCH   3   4
ENDBRANCH   2   3
ENDBRANCH   1   2
BRANCH   1  15
ATOM     15  C   LIG A   1      -8.925   2.188 123.064  0.00  0.00    +0.036 C 
BRANCH  15  16
ATOM     16  C   LIG A   1      -7.563   2.731 123.441  0.00  0.00    -0.030 A 
ATOM     17  C   LIG A   1      -7.104   2.555 124.759  0.00  0.00    +0.005 A 
ATOM     18  C   LIG A   1      -5.946   3.200 125.210  0.00  0.00    +0.004 A 
ATOM     19  C   LIG A   1      -5.225   4.033 124.356  0.00  0.00    +0.046 A 
ATOM     20  C   LIG A   1      -5.631   4.176 123.029  0.00  0.00    +0.131 A 
ATOM     21  C   LIG A   1      -6.771   3.505 122.564  0.00  0.00    +0.103 A 
BRANCH  20  22
ATOM     22  O   LIG A   1      -4.928   4.996 122.193  0.00  0.00    -0.506 OA
ATOM     23  H   LIG A   1      -5.542   5.599 121.741  0.00  0.00    +0.292 HD
ENDBRANCH  20  22
BRANCH  21  24
ATOM     24  C   LIG A   1      -7.128   3.641 121.144  0.00  0.00    +0.341 C 
ATOM     25  O   LIG A   1      -8.203   3.978 120.686  0.00  0.00    -0.245 OA
BRANCH  24  26
ATOM     26  O   LIG A   1      -6.107   3.219 120.375  0.00  0.00    -0.477 OA
ATOM     27  H   LIG A   1      -6.487   2.497 119.835  0.00  0.00    +0.295 HD
ENDBRANCH  24  26
ENDBRANCH  21  24
ENDBRANCH  15  16
ENDBRANCH   1  15
TORSDOF 15
ENDMDL
MODEL 3
REMARK VINA RESULT:      -6.5      2.109      3.586
REMARK  Name = NuBBE_1691
REMARK  16 active torsions:
REMARK  status: ('A' for Active; 'I' for Inactive)
REMARK    1  A    between atoms: C_1  and  C_2
REMARK    2  A    between atoms: C_2  and  C_3
REMARK    3  A    between atoms: C_3  and  C_4
REMARK    4  A    between atoms: C_5  and  C_6
REMARK    5  A    between atoms: C_6  and  C_7
REMARK    6  A    between atoms: C_8  and  C_9
REMARK    7  A    between atoms: C_9  and  C_10
REMARK    8  A    between atoms: C_10  and  C_11
REMARK    9  A    between atoms: C_11  and  C_12
REMARK   10  A    between atoms: C_12  and  C_13
REMARK   11  A    between atoms: C_13  and  C_14
REMARK   12  A    between atoms: C_14  and  C_15
REMARK   13  A    between atoms: C_15  and  C_16
REMARK   14  A    between atoms: C_20  and  O_21
REMARK   15  A    between atoms: C_22  and  C_23
REMARK   16  A    between atoms: C_23  and  O_24
REMARK                            x       y       z     vdW  Elec       q    Type
REMARK                         _______ _______ _______ _____ _____    ______ ____
ROOT
ATOM      1  C   LIG A   1      -8.335   1.196 128.809  0.00  0.00    +0.005 C 
ENDROOT
BRANCH   1   2
ATOM      2  C   LIG A   1      -7.311   0.184 129.314  0.00  0.00    +0.000 C 
BRANCH   2   3
ATOM      3  C   LIG A   1      -7.922  -1.030 130.011  0.00  0.00    +0.000 C 
BRANCH   3   4
ATOM      4  C   LIG A   1      -7.647  -2.331 129.242  0.00  0.00    +0.000 C 
BRANCH   4   5
ATOM      5  C   LIG A   1      -6.552  -2.216 128.165  0.00  0.00    +0.004 C 
BRANCH   5   6
ATOM      6  C   LIG A   1      -7.150  -2.404 126.773  0.00  0.00    +0.027 C 
BRANCH   6   8
ATOM      7  C   LIG A   1      -9.436  -2.974 125.606  0.00  0.00    -0.027 C 
ATOM      8  C   LIG A   1      -8.640  -2.496 126.585  0.00  0.00    -0.031 C 
BRANCH   7   9
ATOM      9  C   LIG A   1      -9.078  -3.612 124.306  0.00  0.00    +0.054 C 
BRANCH   9  11
ATOM     10  C   LIG A   1      -7.804  -1.901 122.729  0.00  0.00    -0.031 C 
ATOM     11  C   LIG A   1      -8.810  -2.705 123.122  0.00  0.00    -0.027 C 
BRANCH  10  12
ATOM     12  C   LIG A   1      -6.464  -1.586 123.331  0.00  0.00    +0.026 C 
BRANCH  12  14
ATOM     13  C   LIG A   1      -5.193  -3.647 124.018  0.00  0.00    +0.004 C 
ATOM     14  C   LIG A   1      -5.392  -2.598 122.931  0.00  0.00    +0.001 C 
ENDBRANCH  12  14
ENDBRANCH  10  12
ENDBRANCH   9  11
ENDBRANCH   7   9
ENDBRANCH   6   8
ENDBRANCH   5   6
ENDBRANCH   4   5
ENDBRANCH   3   4
ENDBRANCH   2   3
ENDBRANCH   1   2
BRANCH   1  15
ATOM     15  C   LIG A   1      -7.766   2.098 127.706  0.00  0.00    +0.036 C 
BRANCH  15  16
ATOM     16  C   LIG A   1      -8.402   2.021 126.334  0.00  0.00    -0.030 A 
ATOM     17  C   LIG A   1      -9.118   0.862 125.982  0.00  0.00    +0.005 A 
ATOM     18  C   LIG A   1      -9.559   0.660 124.670  0.00  0.00    +0.004 A 
ATOM     19  C   LIG A   1      -9.294   1.607 123.682  0.00  0.00    +0.046 A 
ATOM     20  C   LIG A   1      -8.635   2.789 124.022  0.00  0.00    +0.131 A 
ATOM     21  C   LIG A   1      -8.221   3.011 125.343  0.00  0.00    +0.103 A 
BRANCH  20  22
ATOM     22  O   LIG A   1      -8.369   3.715 123.053  0.00  0.00    -0.506 OA
ATOM     23  H   LIG A   1      -8.078   4.543 123.471  0.00  0.00    +0.292 HD
ENDBRANCH  20  22
BRANCH  21  24
ATOM     24  C   LIG A   1      -7.580   4.295 125.665  0.00  0.00    +0.341 C 
ATOM     25  O   LIG A   1      -6.410   4.590 125.519  0.00  0.00    -0.245 OA
BRANCH  24  26
ATOM     26  O   LIG A   1      -8.466   5.105 126.275  0.00  0.00    -0.477 OA
ATOM     27  H   LIG A   1      -8.950   4.520 126.893  0.00  0.00    +0.295 HD
ENDBRANCH  24  26
ENDBRANCH  21  24
ENDBRANCH  15  16
ENDBRANCH   1  15
TORSDOF 15
ENDMDL
MODEL 4
REMARK VINA RESULT:      -6.5      2.088      4.007
REMARK  Name = NuBBE_1691
REMARK  16 active torsions:
REMARK  status: ('A' for Active; 'I' for Inactive)
REMARK    1  A    between atoms: C_1  and  C_2
REMARK    2  A    between atoms: C_2  and  C_3
REMARK    3  A    between atoms: C_3  and  C_4
REMARK    4  A    between atoms: C_5  and  C_6
REMARK    5  A    between atoms: C_6  and  C_7
REMARK    6  A    between atoms: C_8  and  C_9
REMARK    7  A    between atoms: C_9  and  C_10
REMARK    8  A    between atoms: C_10  and  C_11
REMARK    9  A    between atoms: C_11  and  C_12
REMARK   10  A    between atoms: C_12  and  C_13
REMARK   11  A    between atoms: C_13  and  C_14
REMARK   12  A    between atoms: C_14  and  C_15
REMARK   13  A    between atoms: C_15  and  C_16
REMARK   14  A    between atoms: C_20  and  O_21
REMARK   15  A    between atoms: C_22  and  C_23
REMARK   16  A    between atoms: C_23  and  O_24
REMARK                            x       y       z     vdW  Elec       q    Type
REMARK                         _______ _______ _______ _____ _____    ______ ____
ROOT
ATOM      1  C   LIG A   1      -5.341  -0.156 125.712  0.00  0.00    +0.005 C 
ENDROOT
BRANCH   1   2
ATOM      2  C   LIG A   1      -5.999  -1.405 126.293  0.00  0.00    +0.000 C 
BRANCH   2   3
ATOM      3  C   LIG A   1      -5.671  -2.691 125.539  0.00  0.00    +0.000 C 
BRANCH   3   4
ATOM      4  C   LIG A   1      -4.921  -2.412 124.228  0.00  0.00    +0.000 C 
BRANCH   4   5
ATOM      5  C   LIG A   1      -5.707  -2.772 122.953  0.00  0.00    +0.004 C 
BRANCH   5   6
ATOM      6  C   LIG A   1      -6.758  -1.707 122.654  0.00  0.00    +0.027 C 
BRANCH   6   8
ATOM      7  C   LIG A   1      -9.080  -2.831 123.159  0.00  0.00    -0.027 C 
ATOM      8  C   LIG A   1      -8.201  -2.088 122.456  0.00  0.00    -0.031 C 
BRANCH   7   9
ATOM      9  C   LIG A   1      -8.903  -3.564 124.446  0.00  0.00    +0.054 C 
BRANCH   9  11
ATOM     10  C   LIG A   1      -9.234  -3.087 127.034  0.00  0.00    -0.031 C 
ATOM     11  C   LIG A   1      -9.414  -2.907 125.712  0.00  0.00    -0.027 C 
BRANCH  10  12
ATOM     12  C   LIG A   1      -8.388  -4.048 127.820  0.00  0.00    +0.026 C 
BRANCH  12  14
ATOM     13  C   LIG A   1      -7.854  -2.056 129.261  0.00  0.00    +0.004 C 
ATOM     14  C   LIG A   1      -8.112  -3.557 129.240  0.00  0.00    +0.001 C 
ENDBRANCH  12  14
ENDBRANCH  10  12
ENDBRANCH   9  11
ENDBRANCH   7   9
ENDBRANCH   6   8
ENDBRANCH   5   6
ENDBRANCH   4   5
ENDBRANCH   3   4
ENDBRANCH   2   3
ENDBRANCH   1   2
BRANCH   1  15
ATOM     15  C   LIG A   1      -6.366   0.929 125.356  0.00  0.00    +0.036 C 
BRANCH  15  16
ATOM     16  C   LIG A   1      -5.929   2.375 125.459  0.00  0.00    -0.030 A 
ATOM     17  C   LIG A   1      -4.708   2.670 126.094  0.00  0.00    +0.005 A 
ATOM     18  C   LIG A   1      -4.350   3.991 126.386  0.00  0.00    +0.004 A 
ATOM     19  C   LIG A   1      -5.202   5.043 126.053  0.00  0.00    +0.046 A 
ATOM     20  C   LIG A   1      -6.390   4.776 125.372  0.00  0.00    +0.131 A 
ATOM     21  C   LIG A   1      -6.737   3.457 125.047  0.00  0.00    +0.103 A 
BRANCH  20  22
ATOM     22  O   LIG A   1      -7.229   5.806 125.050  0.00  0.00    -0.506 OA
ATOM     23  H   LIG A   1      -6.703   6.600 124.851  0.00  0.00    +0.292 HD
ENDBRANCH  20  22
BRANCH  21  24
ATOM     24  C   LIG A   1      -7.972   3.230 124.281  0.00  0.00    +0.341 C 
ATOM     25  O   LIG A   1      -8.063   2.919 123.109  0.00  0.00    -0.245 OA
BRANCH  24  26
ATOM     26  O   LIG A   1      -9.041   3.533 125.041  0.00  0.00    -0.477 OA
ATOM     27  H   LIG A   1      -8.874   4.447 125.348  0.00  0.00    +0.295 HD
ENDBRANCH  24  26
ENDBRANCH  21  24
ENDBRANCH  15  16
ENDBRANCH   1  15
TORSDOF 15
ENDMDL
MODEL 5
REMARK VINA RESULT:      -6.5      5.378      8.023
REMARK  Name = NuBBE_1691
REMARK  16 active torsions:
REMARK  status: ('A' for Active; 'I' for Inactive)
REMARK    1  A    between atoms: C_1  and  C_2
REMARK    2  A    between atoms: C_2  and  C_3
REMARK    3  A    between atoms: C_3  and  C_4
REMARK    4  A    between atoms: C_5  and  C_6
REMARK    5  A    between atoms: C_6  and  C_7
REMARK    6  A    between atoms: C_8  and  C_9
REMARK    7  A    between atoms: C_9  and  C_10
REMARK    8  A    between atoms: C_10  and  C_11
REMARK    9  A    between atoms: C_11  and  C_12
REMARK   10  A    between atoms: C_12  and  C_13
REMARK   11  A    between atoms: C_13  and  C_14
REMARK   12  A    between atoms: C_14  and  C_15
REMARK   13  A    between atoms: C_15  and  C_16
REMARK   14  A    between atoms: C_20  and  O_21
REMARK   15  A    between atoms: C_22  and  C_23
REMARK   16  A    between atoms: C_23  and  O_24
REMARK                            x       y       z     vdW  Elec       q    Type
REMARK                         _______ _______ _______ _____ _____    ______ ____
ROOT
ATOM      1  C   LIG A   1      -8.547  -3.308 128.903  0.00  0.00    +0.005 C 
ENDROOT
BRANCH   1   2
ATOM      2  C   LIG A   1      -8.843  -4.029 127.590  0.00  0.00    +0.000 C 
BRANCH   2   3
ATOM      3  C   LIG A   1      -8.969  -3.102 126.383  0.00  0.00    +0.000 C 
BRANCH   3   4
ATOM      4  C   LIG A   1      -8.613  -3.818 125.072  0.00  0.00    +0.000 C 
BRANCH   4   5
ATOM      5  C   LIG A   1      -9.437  -3.364 123.852  0.00  0.00    +0.004 C 
BRANCH   5   6
ATOM      6  C   LIG A   1      -8.599  -2.464 122.947  0.00  0.00    +0.027 C 
BRANCH   6   8
ATOM      7  C   LIG A   1      -8.438  -0.018 123.895  0.00  0.00    -0.027 C 
ATOM      8  C   LIG A   1      -8.758  -0.968 122.993  0.00  0.00    -0.031 C 
BRANCH   7   9
ATOM      9  C   LIG A   1      -7.777  -0.143 125.226  0.00  0.00    +0.054 C 
BRANCH   9  11
ATOM     10  C   LIG A   1      -5.348  -1.208 125.178  0.00  0.00    -0.031 C 
ATOM     11  C   LIG A   1      -6.264  -0.225 125.261  0.00  0.00    -0.027 C 
BRANCH  10  12
ATOM     12  C   LIG A   1      -5.469  -2.692 124.982  0.00  0.00    +0.026 C 
BRANCH  12  14
ATOM     13  C   LIG A   1      -4.541  -4.635 123.679  0.00  0.00    +0.004 C 
ATOM     14  C   LIG A   1      -4.894  -3.154 123.644  0.00  0.00    +0.001 C 
ENDBRANCH  12  14
ENDBRANCH  10  12
ENDBRANCH   9  11
ENDBRANCH   7   9
ENDBRANCH   6   8
ENDBRANCH   5   6
ENDBRANCH   4   5
ENDBRANCH   3   4
ENDBRANCH   2   3
ENDBRANCH   1   2
BRANCH   1  15
ATOM     15  C   LIG A   1      -7.052  -3.014 129.081  0.00  0.00    +0.036 C 
BRANCH  15  16
ATOM     16  C   LIG A   1      -6.397  -3.443 130.377  0.00  0.00    -0.030 A 
ATOM     17  C   LIG A   1      -5.842  -4.733 130.462  0.00  0.00    +0.005 A 
ATOM     18  C   LIG A   1      -5.400  -5.247 131.686  0.00  0.00    +0.004 A 
ATOM     19  C   LIG A   1      -5.504  -4.486 132.850  0.00  0.00    +0.046 A 
ATOM     20  C   LIG A   1      -5.998  -3.184 132.777  0.00  0.00    +0.131 A 
ATOM     21  C   LIG A   1      -6.411  -2.653 131.547  0.00  0.00    +0.103 A 
BRANCH  20  22
ATOM     22  O   LIG A   1      -6.106  -2.439 133.918  0.00  0.00    -0.506 OA
ATOM     23  H   LIG A   1      -5.247  -2.031 134.119  0.00  0.00    +0.292 HD
ENDBRANCH  20  22
BRANCH  21  24
ATOM     24  C   LIG A   1      -6.873  -1.256 131.511  0.00  0.00    +0.341 C 
ATOM     25  O   LIG A   1      -6.250  -0.286 131.127  0.00  0.00    -0.245 OA
BRANCH  24  26
ATOM     26  O   LIG A   1      -8.087  -1.164 132.087  0.00  0.00    -0.477 OA
ATOM     27  H   LIG A   1      -8.007  -1.678 132.915  0.00  0.00    +0.295 HD
ENDBRANCH  24  26
ENDBRANCH  21  24
ENDBRANCH  15  16
ENDBRANCH   1  15
TORSDOF 15
ENDMDL
MODEL 6
REMARK VINA RESULT:      -6.4      2.213      3.224
REMARK  Name = NuBBE_1691
REMARK  16 active torsions:
REMARK  status: ('A' for Active; 'I' for Inactive)
REMARK    1  A    between atoms: C_1  and  C_2
REMARK    2  A    between atoms: C_2  and  C_3
REMARK    3  A    between atoms: C_3  and  C_4
REMARK    4  A    between atoms: C_5  and  C_6
REMARK    5  A    between atoms: C_6  and  C_7
REMARK    6  A    between atoms: C_8  and  C_9
REMARK    7  A    between atoms: C_9  and  C_10
REMARK    8  A    between atoms: C_10  and  C_11
REMARK    9  A    between atoms: C_11  and  C_12
REMARK   10  A    between atoms: C_12  and  C_13
REMARK   11  A    between atoms: C_13  and  C_14
REMARK   12  A    between atoms: C_14  and  C_15
REMARK   13  A    between atoms: C_15  and  C_16
REMARK   14  A    between atoms: C_20  and  O_21
REMARK   15  A    between atoms: C_22  and  C_23
REMARK   16  A    between atoms: C_23  and  O_24
REMARK                            x       y       z     vdW  Elec       q    Type
REMARK                         _______ _______ _______ _____ _____    ______ ____
ROOT
ATOM      1  C   LIG A   1      -8.691   1.668 125.628  0.00  0.00    +0.005 C 
ENDROOT
BRANCH   1   2
ATOM      2  C   LIG A   1      -9.274   0.434 124.946  0.00  0.00    +0.000 C 
BRANCH   2   3
ATOM      3  C   LIG A   1      -8.693   0.150 123.563  0.00  0.00    +0.000 C 
BRANCH   3   4
ATOM      4  C   LIG A   1      -9.393  -1.033 122.879  0.00  0.00    +0.000 C 
BRANCH   4   5
ATOM      5  C   LIG A   1      -8.615  -2.361 122.943  0.00  0.00    +0.004 C 
BRANCH   5   6
ATOM      6  C   LIG A   1      -9.313  -3.346 123.878  0.00  0.00    +0.027 C 
BRANCH   6   8
ATOM      7  C   LIG A   1      -8.683  -2.850 126.381  0.00  0.00    -0.027 C 
ATOM      8  C   LIG A   1      -9.514  -3.011 125.331  0.00  0.00    -0.031 C 
BRANCH   7   9
ATOM      9  C   LIG A   1      -7.197  -2.954 126.453  0.00  0.00    +0.054 C 
BRANCH   9  11
ATOM     10  C   LIG A   1      -5.610  -1.595 124.819  0.00  0.00    -0.031 C 
ATOM     11  C   LIG A   1      -6.379  -1.803 125.905  0.00  0.00    -0.027 C 
BRANCH  10  12
ATOM     12  C   LIG A   1      -5.259  -2.462 123.644  0.00  0.00    +0.026 C 
BRANCH  12  14
ATOM     13  C   LIG A   1      -4.017  -4.649 123.561  0.00  0.00    +0.004 C 
ATOM     14  C   LIG A   1      -5.303  -3.951 123.984  0.00  0.00    +0.001 C 
ENDBRANCH  12  14
ENDBRANCH  10  12
ENDBRANCH   9  11
ENDBRANCH   7   9
ENDBRANCH   6   8
ENDBRANCH   5   6
ENDBRANCH   4   5
ENDBRANCH   3   4
ENDBRANCH   2   3
ENDBRANCH   1   2
BRANCH   1  15
ATOM     15  C   LIG A   1      -7.582   2.324 124.794  0.00  0.00    +0.036 C 
BRANCH  15  16
ATOM     16  C   LIG A   1      -6.323   2.762 125.513  0.00  0.00    -0.030 A 
ATOM     17  C   LIG A   1      -5.367   1.790 125.859  0.00  0.00    +0.005 A 
ATOM     18  C   LIG A   1      -4.285   2.108 126.687  0.00  0.00    +0.004 A 
ATOM     19  C   LIG A   1      -4.136   3.400 127.188  0.00  0.00    +0.046 A 
ATOM     20  C   LIG A   1      -5.041   4.392 126.810  0.00  0.00    +0.131 A 
ATOM     21  C   LIG A   1      -6.107   4.086 125.953  0.00  0.00    +0.103 A 
BRANCH  20  22
ATOM     22  O   LIG A   1      -4.899   5.659 127.305  0.00  0.00    -0.506 OA
ATOM     23  H   LIG A   1      -5.397   6.280 126.747  0.00  0.00    +0.292 HD
ENDBRANCH  20  22
BRANCH  21  24
ATOM     24  C   LIG A   1      -7.003   5.177 125.539  0.00  0.00    +0.341 C 
ATOM     25  O   LIG A   1      -8.195   5.273 125.760  0.00  0.00    -0.245 OA
BRANCH  24  26
ATOM     26  O   LIG A   1      -6.335   6.040 124.751  0.00  0.00    -0.477 OA
ATOM     27  H   LIG A   1      -6.961   6.778 124.606  0.00  0.00    +0.295 HD
ENDBRANCH  24  26
ENDBRANCH  21  24
ENDBRANCH  15  16
ENDBRANCH   1  15
TORSDOF 15
ENDMDL
MODEL 7
REMARK VINA RESULT:      -6.4      2.177      4.495
REMARK  Name = NuBBE_1691
REMARK  16 active torsions:
REMARK  status: ('A' for Active; 'I' for Inactive)
REMARK    1  A    between atoms: C_1  and  C_2
REMARK    2  A    between atoms: C_2  and  C_3
REMARK    3  A    between atoms: C_3  and  C_4
REMARK    4  A    between atoms: C_5  and  C_6
REMARK    5  A    between atoms: C_6  and  C_7
REMARK    6  A    between atoms: C_8  and  C_9
REMARK    7  A    between atoms: C_9  and  C_10
REMARK    8  A    between atoms: C_10  and  C_11
REMARK    9  A    between atoms: C_11  and  C_12
REMARK   10  A    between atoms: C_12  and  C_13
REMARK   11  A    between atoms: C_13  and  C_14
REMARK   12  A    between atoms: C_14  and  C_15
REMARK   13  A    between atoms: C_15  and  C_16
REMARK   14  A    between atoms: C_20  and  O_21
REMARK   15  A    between atoms: C_22  and  C_23
REMARK   16  A    between atoms: C_23  and  O_24
REMARK                            x       y       z     vdW  Elec       q    Type
REMARK                         _______ _______ _______ _____ _____    ______ ____
ROOT
ATOM      1  C   LIG A   1      -5.916   0.238 125.330  0.00  0.00    +0.005 C 
ENDROOT
BRANCH   1   2
ATOM      2  C   LIG A   1      -5.758  -1.097 126.053  0.00  0.00    +0.000 C 
BRANCH   2   3
ATOM      3  C   LIG A   1      -5.601  -2.297 125.123  0.00  0.00    +0.000 C 
BRANCH   3   4
ATOM      4  C   LIG A   1      -5.934  -1.940 123.666  0.00  0.00    +0.000 C 
BRANCH   4   5
ATOM      5  C   LIG A   1      -7.297  -2.462 123.176  0.00  0.00    +0.004 C 
BRANCH   5   6
ATOM      6  C   LIG A   1      -7.865  -3.481 124.161  0.00  0.00    +0.027 C 
BRANCH   6   8
ATOM      7  C   LIG A   1      -9.476  -3.203 126.219  0.00  0.00    -0.027 C 
ATOM      8  C   LIG A   1      -9.136  -3.193 124.914  0.00  0.00    -0.031 C 
BRANCH   7   9
ATOM      9  C   LIG A   1      -8.654  -3.521 127.422  0.00  0.00    +0.054 C 
BRANCH   9  11
ATOM     10  C   LIG A   1      -7.622  -2.221 129.492  0.00  0.00    -0.031 C 
ATOM     11  C   LIG A   1      -8.147  -2.365 128.260  0.00  0.00    -0.027 C 
BRANCH  10  12
ATOM     12  C   LIG A   1      -7.293  -3.209 130.574  0.00  0.00    +0.026 C 
BRANCH  12  14
ATOM     13  C   LIG A   1      -4.909  -3.459 129.806  0.00  0.00    +0.004 C 
ATOM     14  C   LIG A   1      -6.200  -4.190 130.156  0.00  0.00    +0.001 C 
ENDBRANCH  12  14
ENDBRANCH  10  12
ENDBRANCH   9  11
ENDBRANCH   7   9
ENDBRANCH   6   8
ENDBRANCH   5   6
ENDBRANCH   4   5
ENDBRANCH   3   4
ENDBRANCH   2   3
ENDBRANCH   1   2
BRANCH   1  15
ATOM     15  C   LIG A   1      -7.227   0.946 125.696  0.00  0.00    +0.036 C 
BRANCH  15  16
ATOM     16  C   LIG A   1      -8.191   1.270 124.574  0.00  0.00    -0.030 A 
ATOM     17  C   LIG A   1      -9.153   0.311 124.208  0.00  0.00    +0.005 A 
ATOM     18  C   LIG A   1      -9.937   0.480 123.061  0.00  0.00    +0.004 A 
ATOM     19  C   LIG A   1      -9.776   1.607 122.256  0.00  0.00    +0.046 A 
ATOM     20  C   LIG A   1      -8.868   2.597 122.633  0.00  0.00    +0.131 A 
ATOM     21  C   LIG A   1      -8.105   2.448 123.799  0.00  0.00    +0.103 A 
BRANCH  20  22
ATOM     22  O   LIG A   1      -8.705   3.700 121.842  0.00  0.00    -0.506 OA
ATOM     23  H   LIG A   1      -7.787   3.736 121.524  0.00  0.00    +0.292 HD
ENDBRANCH  20  22
BRANCH  21  24
ATOM     24  C   LIG A   1      -7.202   3.543 124.186  0.00  0.00    +0.341 C 
ATOM     25  O   LIG A   1      -5.987   3.540 124.152  0.00  0.00    -0.245 OA
BRANCH  24  26
ATOM     26  O   LIG A   1      -7.915   4.556 124.714  0.00  0.00    -0.477 OA
ATOM     27  H   LIG A   1      -7.243   5.202 125.011  0.00  0.00    +0.295 HD
ENDBRANCH  24  26
ENDBRANCH  21  24
ENDBRANCH  15  16
ENDBRANCH   1  15
TORSDOF 15
ENDMDL
MODEL 8
REMARK VINA RESULT:      -6.3      4.579      7.018
REMARK  Name = NuBBE_1691
REMARK  16 active torsions:
REMARK  status: ('A' for Active; 'I' for Inactive)
REMARK    1  A    between atoms: C_1  and  C_2
REMARK    2  A    between atoms: C_2  and  C_3
REMARK    3  A    between atoms: C_3  and  C_4
REMARK    4  A    between atoms: C_5  and  C_6
REMARK    5  A    between atoms: C_6  and  C_7
REMARK    6  A    between atoms: C_8  and  C_9
REMARK    7  A    between atoms: C_9  and  C_10
REMARK    8  A    between atoms: C_10  and  C_11
REMARK    9  A    between atoms: C_11  and  C_12
REMARK   10  A    between atoms: C_12  and  C_13
REMARK   11  A    between atoms: C_13  and  C_14
REMARK   12  A    between atoms: C_14  and  C_15
REMARK   13  A    between atoms: C_15  and  C_16
REMARK   14  A    between atoms: C_20  and  O_21
REMARK   15  A    between atoms: C_22  and  C_23
REMARK   16  A    between atoms: C_23  and  O_24
REMARK                            x       y       z     vdW  Elec       q    Type
REMARK                         _______ _______ _______ _____ _____    ______ ____
ROOT
ATOM      1  C   LIG A   1      -8.906  -3.600 128.895  0.00  0.00    +0.005 C 
ENDROOT
BRANCH   1   2
ATOM      2  C   LIG A   1      -9.351  -4.071 127.514  0.00  0.00    +0.000 C 
BRANCH   2   3
ATOM      3  C   LIG A   1      -8.902  -3.165 126.370  0.00  0.00    +0.000 C 
BRANCH   3   4
ATOM      4  C   LIG A   1      -8.533  -3.968 125.114  0.00  0.00    +0.000 C 
BRANCH   4   5
ATOM      5  C   LIG A   1      -9.031  -3.351 123.793  0.00  0.00    +0.004 C 
BRANCH   5   6
ATOM      6  C   LIG A   1      -8.476  -1.939 123.619  0.00  0.00    +0.027 C 
BRANCH   6   8
ATOM      7  C   LIG A   1      -5.980  -1.990 122.797  0.00  0.00    -0.027 C 
ATOM      8  C   LIG A   1      -7.292  -1.686 122.726  0.00  0.00    -0.031 C 
BRANCH   7   9
ATOM      9  C   LIG A   1      -5.223  -2.727 123.850  0.00  0.00    +0.054 C 
BRANCH   9  11
ATOM     10  C   LIG A   1      -5.585  -1.375 126.103  0.00  0.00    -0.031 C 
ATOM     11  C   LIG A   1      -5.574  -2.454 125.298  0.00  0.00    -0.027 C 
BRANCH  10  12
ATOM     12  C   LIG A   1      -5.257   0.071 125.863  0.00  0.00    +0.026 C 
BRANCH  12  14
ATOM     13  C   LIG A   1      -7.719   0.570 126.027  0.00  0.00    +0.004 C 
ATOM     14  C   LIG A   1      -6.430   0.844 125.262  0.00  0.00    +0.001 C 
ENDBRANCH  12  14
ENDBRANCH  10  12
ENDBRANCH   9  11
ENDBRANCH   7   9
ENDBRANCH   6   8
ENDBRANCH   5   6
ENDBRANCH   4   5
ENDBRANCH   3   4
ENDBRANCH   2   3
ENDBRANCH   1   2
BRANCH   1  15
ATOM     15  C   LIG A   1      -7.380  -3.622 129.055  0.00  0.00    +0.036 C 
BRANCH  15  16
ATOM     16  C   LIG A   1      -6.688  -2.322 129.408  0.00  0.00    -0.030 A 
ATOM     17  C   LIG A   1      -7.430  -1.127 129.369  0.00  0.00    +0.005 A 
ATOM     18  C   LIG A   1      -6.799   0.115 129.498  0.00  0.00    +0.004 A 
ATOM     19  C   LIG A   1      -5.417   0.191 129.666  0.00  0.00    +0.046 A 
ATOM     20  C   LIG A   1      -4.671  -0.984 129.764  0.00  0.00    +0.131 A 
ATOM     21  C   LIG A   1      -5.303  -2.231 129.670  0.00  0.00    +0.103 A 
BRANCH  20  22
ATOM     22  O   LIG A   1      -3.316  -0.911 129.923  0.00  0.00    -0.506 OA
ATOM     23  H   LIG A   1      -2.892  -0.838 129.051  0.00  0.00    +0.292 HD
ENDBRANCH  20  22
BRANCH  21  24
ATOM     24  C   LIG A   1      -4.484  -3.442 129.835  0.00  0.00    +0.341 C 
ATOM     25  O   LIG A   1      -4.410  -4.151 130.819  0.00  0.00    -0.245 OA
BRANCH  24  26
ATOM     26  O   LIG A   1      -3.704  -3.614 128.751  0.00  0.00    -0.477 OA
ATOM     27  H   LIG A   1      -2.962  -4.168 129.067  0.00  0.00    +0.295 HD
ENDBRANCH  24  26
ENDBRANCH  21  24
ENDBRANCH  15  16
ENDBRANCH   1  15
TORSDOF 15
ENDMDL
MODEL 9
REMARK VINA RESULT:      -6.3      2.371      3.984
REMARK  Name = NuBBE_1691
REMARK  16 active torsions:
REMARK  status: ('A' for Active; 'I' for Inactive)
REMARK    1  A    between atoms: C_1  and  C_2
REMARK    2  A    between atoms: C_2  and  C_3
REMARK    3  A    between atoms: C_3  and  C_4
REMARK    4  A    between atoms: C_5  and  C_6
REMARK    5  A    between atoms: C_6  and  C_7
REMARK    6  A    between atoms: C_8  and  C_9
REMARK    7  A    between atoms: C_9  and  C_10
REMARK    8  A    between atoms: C_10  and  C_11
REMARK    9  A    between atoms: C_11  and  C_12
REMARK   10  A    between atoms: C_12  and  C_13
REMARK   11  A    between atoms: C_13  and  C_14
REMARK   12  A    between atoms: C_14  and  C_15
REMARK   13  A    between atoms: C_15  and  C_16
REMARK   14  A    between atoms: C_20  and  O_21
REMARK   15  A    between atoms: C_22  and  C_23
REMARK   16  A    between atoms: C_23  and  O_24
REMARK                            x       y       z     vdW  Elec       q    Type
REMARK                         _______ _______ _______ _____ _____    ______ ____
ROOT
ATOM      1  C   LIG A   1      -9.503   1.205 123.277  0.00  0.00    +0.005 C 
ENDROOT
BRANCH   1   2
ATOM      2  C   LIG A   1      -9.002  -0.157 123.748  0.00  0.00    +0.000 C 
BRANCH   2   3
ATOM      3  C   LIG A   1      -9.314  -1.303 122.788  0.00  0.00    +0.000 C 
BRANCH   3   4
ATOM      4  C   LIG A   1      -9.313  -2.664 123.501  0.00  0.00    +0.000 C 
BRANCH   4   5
ATOM      5  C   LIG A   1      -7.911  -3.252 123.751  0.00  0.00    +0.004 C 
BRANCH   5   6
ATOM      6  C   LIG A   1      -7.573  -3.215 125.239  0.00  0.00    +0.027 C 
BRANCH   6   8
ATOM      7  C   LIG A   1      -8.681  -3.357 127.618  0.00  0.00    -0.027 C 
ATOM      8  C   LIG A   1      -8.640  -3.451 126.274  0.00  0.00    -0.031 C 
BRANCH   7   9
ATOM      9  C   LIG A   1      -7.616  -2.961 128.585  0.00  0.00    +0.054 C 
BRANCH   9  11
ATOM     10  C   LIG A   1      -7.663  -0.310 128.494  0.00  0.00    -0.031 C 
ATOM     11  C   LIG A   1      -7.597  -1.526 129.070  0.00  0.00    -0.027 C 
BRANCH  10  12
ATOM     12  C   LIG A   1      -7.814   0.127 127.065  0.00  0.00    +0.026 C 
BRANCH  12  14
ATOM     13  C   LIG A   1      -5.669  -0.217 125.793  0.00  0.00    +0.004 C 
ATOM     14  C   LIG A   1      -6.550   0.791 126.521  0.00  0.00    +0.001 C 
ENDBRANCH  12  14
ENDBRANCH  10  12
ENDBRANCH   9  11
ENDBRANCH   7   9
ENDBRANCH   6   8
ENDBRANCH   5   6
ENDBRANCH   4   5
ENDBRANCH   3   4
ENDBRANCH   2   3
ENDBRANCH   1   2
BRANCH   1  15
ATOM     15  C   LIG A   1      -9.194   2.319 124.286  0.00  0.00    +0.036 C 
BRANCH  15  16
ATOM     16  C   LIG A   1      -7.974   3.181 124.034  0.00  0.00    -0.030 A 
ATOM     17  C   LIG A   1      -7.236   2.982 122.854  0.00  0.00    +0.005 A 
ATOM     18  C   LIG A   1      -6.001   3.612 122.663  0.00  0.00    +0.004 A 
ATOM     19  C   LIG A   1      -5.478   4.452 123.645  0.00  0.00    +0.046 A 
ATOM     20  C   LIG A   1      -6.221   4.707 124.798  0.00  0.00    +0.131 A 
ATOM     21  C   LIG A   1      -7.473   4.104 124.978  0.00  0.00    +0.103 A 
BRANCH  20  22
ATOM     22  O   LIG A   1      -5.706   5.525 125.765  0.00  0.00    -0.506 OA
ATOM     23  H   LIG A   1      -5.809   6.452 125.490  0.00  0.00    +0.292 HD
ENDBRANCH  20  22
BRANCH  21  24
ATOM     24  C   LIG A   1      -8.245   4.447 126.184  0.00  0.00    +0.341 C 
ATOM     25  O   LIG A   1      -8.392   3.766 127.180  0.00  0.00    -0.245 OA
BRANCH  24  26
ATOM     26  O   LIG A   1      -8.891   5.612 125.994  0.00  0.00    -0.477 OA
ATOM     27  H   LIG A   1      -9.840   5.375 126.018  0.00  0.00    +0.295 HD
ENDBRANCH  24  26
ENDBRANCH  21  24
ENDBRANCH  15  16
ENDBRANCH   1  15
TORSDOF 15
ENDMDL
