MODEL 1
REMARK VINA RESULT:      -7.5      0.000      0.000
REMARK  Name = NuBBE_230
REMARK  21 active torsions:
REMARK  status: ('A' for Active; 'I' for Inactive)
REMARK    1  A    between atoms: C_1  and  C_2
REMARK    2  A    between atoms: C_4  and  O_6
REMARK    3  A    between atoms: C_7  and  O_9
REMARK    4  A    between atoms: O_9  and  C_10
REMARK    5  A    between atoms: C_10  and  C_11
REMARK    6  A    between atoms: C_15  and  O_17
REMARK    7  A    between atoms: O_17  and  C_18
REMARK    8  A    between atoms: C_18  and  C_19
REMARK    9  A    between atoms: C_19  and  C_20
REMARK   10  A    between atoms: C_20  and  C_21
REMARK   11  A    between atoms: C_24  and  O_26
REMARK   12  A    between atoms: O_26  and  C_27
REMARK   13  A    between atoms: C_27  and  C_28
REMARK   14  A    between atoms: C_28  and  C_29
REMARK   15  A    between atoms: C_29  and  C_30
REMARK   16  A    between atoms: C_33  and  O_35
REMARK   17  A    between atoms: C_39  and  C_40
REMARK   18  A    between atoms: C_39  and  C_41
REMARK   19  A    between atoms: C_41  and  C_42
REMARK   20  A    between atoms: C_43  and  C_44
REMARK   21  A    between atoms: C_43  and  C_46
REMARK                            x       y       z     vdW  Elec       q    Type
REMARK                         _______ _______ _______ _____ _____    ______ ____
ROOT
ATOM      1  C   LIG A   1      -5.482  -0.334 125.464  0.00  0.00    +0.011 C 
ATOM      2  C   LIG A   1      -6.208   0.688 126.350  0.00  0.00    +0.025 C 
ATOM      3  C   LIG A   1      -5.788   0.518 127.823  0.00  0.00    +0.159 C 
ATOM      4  C   LIG A   1      -6.723   1.050 128.954  0.00  0.00    +0.222 C 
ATOM      5  C   LIG A   1      -7.816   2.119 128.586  0.00  0.00    +0.103 C 
ATOM      6  C   LIG A   1      -7.429   3.557 128.995  0.00  0.00    +0.013 C 
ATOM      7  C   LIG A   1      -8.605   4.281 129.625  0.00  0.00    +0.343 C 
ATOM      8  O   LIG A   1      -9.667   3.304 129.555  0.00  0.00    -0.297 OA
ATOM      9  C   LIG A   1      -9.014   2.024 129.614  0.00  0.00    +0.328 C 
ATOM     10  C   LIG A   1      -6.382   4.207 128.465  0.00  0.00    +0.010 C 
ATOM     11  C   LIG A   1      -6.035   3.890 127.065  0.00  0.00    +0.138 C 
ATOM     12  C   LIG A   1      -7.330   3.434 126.354  0.00  0.00    +0.040 C 
ATOM     13  C   LIG A   1      -8.104   2.189 127.013  0.00  0.00    +0.018 C 
ATOM     14  C   LIG A   1      -7.746   0.873 126.155  0.00  0.00    -0.020 C 
ATOM     15  C   LIG A   1      -8.071   1.156 124.644  0.00  0.00    +0.012 C 
ENDROOT
BRANCH   3  16
ATOM     16  O   LIG A   1      -4.482   1.091 127.976  0.00  0.00    -0.388 OA
ATOM     17  H   LIG A   1      -4.122   1.247 127.082  0.00  0.00    +0.210 HD
ENDBRANCH   3  16
BRANCH  11  18
ATOM     18  O   LIG A   1      -5.597   5.095 126.440  0.00  0.00    -0.388 OA
ATOM     19  H   LIG A   1      -6.185   5.802 126.761  0.00  0.00    +0.210 HD
ENDBRANCH  11  18
BRANCH   4  20
ATOM     20  O   LIG A   1      -7.318  -0.163 129.522  0.00  0.00    -0.458 OA
BRANCH  20  21
ATOM     21  C   LIG A   1      -6.483  -0.910 130.307  0.00  0.00    +0.304 C 
ATOM     22  C   LIG A   1      -6.541  -2.365 129.946  0.00  0.00    +0.136 C 
ATOM     23  O   LIG A   1      -5.712  -0.448 131.137  0.00  0.00    -0.251 OA
ENDBRANCH  20  21
ENDBRANCH   4  20
BRANCH   7  24
ATOM     24  O   LIG A   1      -9.004   5.423 128.823  0.00  0.00    -0.431 OA
BRANCH  24  25
ATOM     25  C   LIG A   1      -9.232   6.580 129.524  0.00  0.00    +0.309 C 
ATOM     26  O   LIG A   1      -9.813   7.550 129.047  0.00  0.00    -0.251 OA
BRANCH  25  27
ATOM     27  C   LIG A   1      -8.717   6.498 130.917  0.00  0.00    +0.120 C 
BRANCH  27  28
ATOM     28  C   LIG A   1      -7.276   7.089 131.023  0.00  0.00    +0.008 C 
ATOM     29  C   LIG A   1      -6.339   6.281 131.908  0.00  0.00    +0.004 C 
ENDBRANCH  27  28
ENDBRANCH  25  27
ENDBRANCH  24  25
ENDBRANCH   7  24
BRANCH   9  30
ATOM     30  O   LIG A   1      -8.501   1.876 130.980  0.00  0.00    -0.434 OA
BRANCH  30  31
ATOM     31  C   LIG A   1      -9.328   1.484 131.987  0.00  0.00    +0.309 C 
ATOM     32  O   LIG A   1      -9.946   0.441 132.024  0.00  0.00    -0.251 OA
BRANCH  31  33
ATOM     33  C   LIG A   1      -9.446   2.608 133.021  0.00  0.00    +0.120 C 
BRANCH  33  34
ATOM     34  C   LIG A   1      -8.148   3.339 133.361  0.00  0.00    +0.008 C 
ATOM     35  C   LIG A   1      -8.323   4.312 134.531  0.00  0.00    +0.004 C 
ENDBRANCH  33  34
ENDBRANCH  31  33
ENDBRANCH  30  31
ENDBRANCH   9  30
BRANCH  14  36
ATOM     36  C   LIG A   1      -8.608  -0.388 126.550  0.00  0.00    +0.034 C 
BRANCH  36  37
ATOM     37  C   LIG A   1      -9.041  -1.269 125.386  0.00  0.00    -0.023 C 
ATOM     38  C   LIG A   1      -8.905  -2.594 125.202  0.00  0.00    -0.055 C 
ATOM     39  C   LIG A   1      -9.310  -3.224 123.889  0.00  0.00    +0.043 C 
BRANCH  38  40
ATOM     40  C   LIG A   1      -8.353  -3.488 126.192  0.00  0.00    -0.005 C 
ATOM     41  C   LIG A   1      -8.989  -3.807 127.325  0.00  0.00    +0.008 C 
ENDBRANCH  38  40
ENDBRANCH  36  37
ENDBRANCH  14  36
TORSDOF 15
ENDMDL
MODEL 2
REMARK VINA RESULT:      -7.4      2.274      7.617
REMARK  Name = NuBBE_230
REMARK  21 active torsions:
REMARK  status: ('A' for Active; 'I' for Inactive)
REMARK    1  A    between atoms: C_1  and  C_2
REMARK    2  A    between atoms: C_4  and  O_6
REMARK    3  A    between atoms: C_7  and  O_9
REMARK    4  A    between atoms: O_9  and  C_10
REMARK    5  A    between atoms: C_10  and  C_11
REMARK    6  A    between atoms: C_15  and  O_17
REMARK    7  A    between atoms: O_17  and  C_18
REMARK    8  A    between atoms: C_18  and  C_19
REMARK    9  A    between atoms: C_19  and  C_20
REMARK   10  A    between atoms: C_20  and  C_21
REMARK   11  A    between atoms: C_24  and  O_26
REMARK   12  A    between atoms: O_26  and  C_27
REMARK   13  A    between atoms: C_27  and  C_28
REMARK   14  A    between atoms: C_28  and  C_29
REMARK   15  A    between atoms: C_29  and  C_30
REMARK   16  A    between atoms: C_33  and  O_35
REMARK   17  A    between atoms: C_39  and  C_40
REMARK   18  A    between atoms: C_39  and  C_41
REMARK   19  A    between atoms: C_41  and  C_42
REMARK   20  A    between atoms: C_43  and  C_44
REMARK   21  A    between atoms: C_43  and  C_46
REMARK                            x       y       z     vdW  Elec       q    Type
REMARK                         _______ _______ _______ _____ _____    ______ ____
ROOT
ATOM      1  C   LIG A   1      -8.462   5.733 133.296  0.00  0.00    +0.011 C 
ATOM      2  C   LIG A   1      -8.409   4.951 131.976  0.00  0.00    +0.025 C 
ATOM      3  C   LIG A   1      -6.949   4.776 131.513  0.00  0.00    +0.159 C 
ATOM      4  C   LIG A   1      -6.651   4.493 130.007  0.00  0.00    +0.222 C 
ATOM      5  C   LIG A   1      -7.815   3.954 129.097  0.00  0.00    +0.103 C 
ATOM      6  C   LIG A   1      -7.728   2.436 128.825  0.00  0.00    +0.013 C 
ATOM      7  C   LIG A   1      -8.015   2.126 127.367  0.00  0.00    +0.343 C 
ATOM      8  O   LIG A   1      -8.299   3.425 126.805  0.00  0.00    -0.297 OA
ATOM      9  C   LIG A   1      -7.540   4.358 127.594  0.00  0.00    +0.328 C 
ATOM     10  C   LIG A   1      -7.840   1.515 129.794  0.00  0.00    +0.010 C 
ATOM     11  C   LIG A   1      -8.713   1.849 130.938  0.00  0.00    +0.138 C 
ATOM     12  C   LIG A   1      -9.794   2.832 130.429  0.00  0.00    +0.040 C 
ATOM     13  C   LIG A   1      -9.260   4.185 129.745  0.00  0.00    +0.018 C 
ATOM     14  C   LIG A   1      -9.383   5.371 130.830  0.00  0.00    -0.020 C 
ATOM     15  C   LIG A   1     -10.861   5.411 131.363  0.00  0.00    +0.012 C 
ENDROOT
BRANCH   3  16
ATOM     16  O   LIG A   1      -6.354   3.749 132.317  0.00  0.00    -0.388 OA
ATOM     17  H   LIG A   1      -5.630   3.351 131.799  0.00  0.00    +0.210 HD
ENDBRANCH   3  16
BRANCH  11  18
ATOM     18  O   LIG A   1      -9.372   0.652 131.347  0.00  0.00    -0.388 OA
ATOM     19  H   LIG A   1      -9.404   0.072 130.565  0.00  0.00    +0.210 HD
ENDBRANCH  11  18
BRANCH   4  20
ATOM     20  O   LIG A   1      -6.113   5.762 129.507  0.00  0.00    -0.458 OA
BRANCH  20  21
ATOM     21  C   LIG A   1      -4.814   6.019 129.847  0.00  0.00    +0.304 C 
ATOM     22  C   LIG A   1      -4.679   7.333 130.558  0.00  0.00    +0.136 C 
ATOM     23  O   LIG A   1      -3.885   5.240 129.682  0.00  0.00    -0.251 OA
ENDBRANCH  20  21
ENDBRANCH   4  20
BRANCH   7  24
ATOM     24  O   LIG A   1      -9.212   1.317 127.233  0.00  0.00    -0.431 OA
BRANCH  24  25
ATOM     25  C   LIG A   1      -9.263   0.526 126.113  0.00  0.00    +0.309 C 
ATOM     26  O   LIG A   1     -10.204   0.537 125.325  0.00  0.00    -0.251 OA
BRANCH  25  27
ATOM     27  C   LIG A   1      -8.042  -0.311 125.967  0.00  0.00    +0.120 C 
BRANCH  27  28
ATOM     28  C   LIG A   1      -8.233  -1.711 126.632  0.00  0.00    +0.008 C 
ATOM     29  C   LIG A   1      -7.685  -1.803 128.048  0.00  0.00    +0.004 C 
ENDBRANCH  27  28
ENDBRANCH  25  27
ENDBRANCH  24  25
ENDBRANCH   7  24
BRANCH   9  30
ATOM     30  O   LIG A   1      -6.129   4.141 127.259  0.00  0.00    -0.434 OA
BRANCH  30  31
ATOM     31  C   LIG A   1      -5.596   4.693 126.135  0.00  0.00    +0.309 C 
ATOM     32  O   LIG A   1      -6.050   5.644 125.534  0.00  0.00    -0.251 OA
BRANCH  31  33
ATOM     33  C   LIG A   1      -4.390   3.865 125.679  0.00  0.00    +0.120 C 
BRANCH  33  34
ATOM     34  C   LIG A   1      -3.705   3.035 126.763  0.00  0.00    +0.008 C 
ATOM     35  C   LIG A   1      -2.189   3.256 126.787  0.00  0.00    +0.004 C 
ENDBRANCH  33  34
ENDBRANCH  31  33
ENDBRANCH  30  31
ENDBRANCH   9  30
BRANCH  14  36
ATOM     36  C   LIG A   1      -9.104   6.803 130.230  0.00  0.00    +0.034 C 
BRANCH  36  37
ATOM     37  C   LIG A   1     -10.344   7.633 129.927  0.00  0.00    -0.023 C 
ATOM     38  C   LIG A   1     -10.946   7.898 128.755  0.00  0.00    -0.055 C 
ATOM     39  C   LIG A   1     -12.108   8.865 128.699  0.00  0.00    +0.043 C 
BRANCH  38  40
ATOM     40  C   LIG A   1     -10.532   7.331 127.494  0.00  0.00    -0.005 C 
ATOM     41  C   LIG A   1     -11.265   7.417 126.378  0.00  0.00    +0.008 C 
ENDBRANCH  38  40
ENDBRANCH  36  37
ENDBRANCH  14  36
TORSDOF 15
ENDMDL
MODEL 3
REMARK VINA RESULT:      -7.4      2.660      6.498
REMARK  Name = NuBBE_230
REMARK  21 active torsions:
REMARK  status: ('A' for Active; 'I' for Inactive)
REMARK    1  A    between atoms: C_1  and  C_2
REMARK    2  A    between atoms: C_4  and  O_6
REMARK    3  A    between atoms: C_7  and  O_9
REMARK    4  A    between atoms: O_9  and  C_10
REMARK    5  A    between atoms: C_10  and  C_11
REMARK    6  A    between atoms: C_15  and  O_17
REMARK    7  A    between atoms: O_17  and  C_18
REMARK    8  A    between atoms: C_18  and  C_19
REMARK    9  A    between atoms: C_19  and  C_20
REMARK   10  A    between atoms: C_20  and  C_21
REMARK   11  A    between atoms: C_24  and  O_26
REMARK   12  A    between atoms: O_26  and  C_27
REMARK   13  A    between atoms: C_27  and  C_28
REMARK   14  A    between atoms: C_28  and  C_29
REMARK   15  A    between atoms: C_29  and  C_30
REMARK   16  A    between atoms: C_33  and  O_35
REMARK   17  A    between atoms: C_39  and  C_40
REMARK   18  A    between atoms: C_39  and  C_41
REMARK   19  A    between atoms: C_41  and  C_42
REMARK   20  A    between atoms: C_43  and  C_44
REMARK   21  A    between atoms: C_43  and  C_46
REMARK                            x       y       z     vdW  Elec       q    Type
REMARK                         _______ _______ _______ _____ _____    ______ ____
ROOT
ATOM      1  C   LIG A   1      -6.011   3.416 134.688  0.00  0.00    +0.011 C 
ATOM      2  C   LIG A   1      -6.709   3.868 133.397  0.00  0.00    +0.025 C 
ATOM      3  C   LIG A   1      -7.405   2.673 132.715  0.00  0.00    +0.159 C 
ATOM      4  C   LIG A   1      -7.725   2.743 131.188  0.00  0.00    +0.222 C 
ATOM      5  C   LIG A   1      -7.754   4.150 130.488  0.00  0.00    +0.103 C 
ATOM      6  C   LIG A   1      -9.183   4.686 130.246  0.00  0.00    +0.013 C 
ATOM      7  C   LIG A   1      -9.311   5.292 128.861  0.00  0.00    +0.343 C 
ATOM      8  O   LIG A   1      -7.981   5.149 128.316  0.00  0.00    -0.297 OA
ATOM      9  C   LIG A   1      -7.431   3.981 128.950  0.00  0.00    +0.328 C 
ATOM     10  C   LIG A   1     -10.028   4.984 131.244  0.00  0.00    +0.010 C 
ATOM     11  C   LIG A   1      -9.430   5.477 132.502  0.00  0.00    +0.138 C 
ATOM     12  C   LIG A   1      -8.096   6.172 132.144  0.00  0.00    +0.040 C 
ATOM     13  C   LIG A   1      -7.020   5.282 131.349  0.00  0.00    +0.018 C 
ATOM     14  C   LIG A   1      -5.914   4.778 132.408  0.00  0.00    -0.020 C 
ATOM     15  C   LIG A   1      -5.340   6.029 133.165  0.00  0.00    +0.012 C 
ENDROOT
BRANCH   3  16
ATOM     16  O   LIG A   1      -8.608   2.392 133.442  0.00  0.00    -0.388 OA
ATOM     17  H   LIG A   1      -9.352   2.446 132.814  0.00  0.00    +0.210 HD
ENDBRANCH   3  16
BRANCH  11  18
ATOM     18  O   LIG A   1     -10.305   6.466 133.042  0.00  0.00    -0.388 OA
ATOM     19  H   LIG A   1     -11.205   6.222 132.762  0.00  0.00    +0.210 HD
ENDBRANCH  11  18
BRANCH   4  20
ATOM     20  O   LIG A   1      -6.736   1.851 130.577  0.00  0.00    -0.458 OA
BRANCH  20  21
ATOM     21  C   LIG A   1      -6.870   0.527 130.892  0.00  0.00    +0.304 C 
ATOM     22  C   LIG A   1      -8.210  -0.006 130.476  0.00  0.00    +0.136 C 
ATOM     23  O   LIG A   1      -5.982  -0.168 131.366  0.00  0.00    -0.251 OA
ENDBRANCH  20  21
ENDBRANCH   4  20
BRANCH   7  24
ATOM     24  O   LIG A   1      -9.605   6.710 128.938  0.00  0.00    -0.431 OA
BRANCH  24  25
ATOM     25  C   LIG A   1     -10.453   7.188 127.970  0.00  0.00    +0.309 C 
ATOM     26  O   LIG A   1     -10.608   6.638 126.883  0.00  0.00    -0.251 OA
BRANCH  25  27
ATOM     27  C   LIG A   1     -11.162   8.419 128.410  0.00  0.00    +0.120 C 
BRANCH  27  28
ATOM     28  C   LIG A   1     -12.006   8.156 129.696  0.00  0.00    +0.008 C 
ATOM     29  C   LIG A   1     -13.032   7.042 129.546  0.00  0.00    +0.004 C 
ENDBRANCH  27  28
ENDBRANCH  25  27
ENDBRANCH  24  25
ENDBRANCH   7  24
BRANCH   9  30
ATOM     30  O   LIG A   1      -8.152   2.827 128.403  0.00  0.00    -0.434 OA
BRANCH  30  31
ATOM     31  C   LIG A   1      -7.890   2.386 127.142  0.00  0.00    +0.309 C 
ATOM     32  O   LIG A   1      -8.717   2.208 126.273  0.00  0.00    -0.251 OA
BRANCH  31  33
ATOM     33  C   LIG A   1      -6.402   2.045 127.017  0.00  0.00    +0.120 C 
BRANCH  33  34
ATOM     34  C   LIG A   1      -5.772   2.308 125.650  0.00  0.00    +0.008 C 
ATOM     35  C   LIG A   1      -5.565   3.803 125.389  0.00  0.00    +0.004 C 
ENDBRANCH  33  34
ENDBRANCH  31  33
ENDBRANCH  30  31
ENDBRANCH   9  30
BRANCH  14  36
ATOM     36  C   LIG A   1      -4.672   4.077 131.734  0.00  0.00    +0.034 C 
BRANCH  36  37
ATOM     37  C   LIG A   1      -3.722   5.009 130.995  0.00  0.00    -0.023 C 
ATOM     38  C   LIG A   1      -3.281   4.972 129.726  0.00  0.00    -0.055 C 
ATOM     39  C   LIG A   1      -2.229   5.952 129.258  0.00  0.00    +0.043 C 
BRANCH  38  40
ATOM     40  C   LIG A   1      -3.734   4.012 128.748  0.00  0.00    -0.005 C 
ATOM     41  C   LIG A   1      -2.899   3.302 127.980  0.00  0.00    +0.008 C 
ENDBRANCH  38  40
ENDBRANCH  36  37
ENDBRANCH  14  36
TORSDOF 15
ENDMDL
MODEL 4
REMARK VINA RESULT:      -7.4      2.210      5.836
REMARK  Name = NuBBE_230
REMARK  21 active torsions:
REMARK  status: ('A' for Active; 'I' for Inactive)
REMARK    1  A    between atoms: C_1  and  C_2
REMARK    2  A    between atoms: C_4  and  O_6
REMARK    3  A    between atoms: C_7  and  O_9
REMARK    4  A    between atoms: O_9  and  C_10
REMARK    5  A    between atoms: C_10  and  C_11
REMARK    6  A    between atoms: C_15  and  O_17
REMARK    7  A    between atoms: O_17  and  C_18
REMARK    8  A    between atoms: C_18  and  C_19
REMARK    9  A    between atoms: C_19  and  C_20
REMARK   10  A    between atoms: C_20  and  C_21
REMARK   11  A    between atoms: C_24  and  O_26
REMARK   12  A    between atoms: O_26  and  C_27
REMARK   13  A    between atoms: C_27  and  C_28
REMARK   14  A    between atoms: C_28  and  C_29
REMARK   15  A    between atoms: C_29  and  C_30
REMARK   16  A    between atoms: C_33  and  O_35
REMARK   17  A    between atoms: C_39  and  C_40
REMARK   18  A    between atoms: C_39  and  C_41
REMARK   19  A    between atoms: C_41  and  C_42
REMARK   20  A    between atoms: C_43  and  C_44
REMARK   21  A    between atoms: C_43  and  C_46
REMARK                            x       y       z     vdW  Elec       q    Type
REMARK                         _______ _______ _______ _____ _____    ______ ____
ROOT
ATOM      1  C   LIG A   1      -5.485  -0.544 131.671  0.00  0.00    +0.011 C 
ATOM      2  C   LIG A   1      -6.278   0.682 131.195  0.00  0.00    +0.025 C 
ATOM      3  C   LIG A   1      -7.093   0.339 129.933  0.00  0.00    +0.159 C 
ATOM      4  C   LIG A   1      -7.552   1.487 128.981  0.00  0.00    +0.222 C 
ATOM      5  C   LIG A   1      -7.576   2.959 129.534  0.00  0.00    +0.103 C 
ATOM      6  C   LIG A   1      -8.993   3.453 129.903  0.00  0.00    +0.013 C 
ATOM      7  C   LIG A   1      -9.220   4.872 129.418  0.00  0.00    +0.343 C 
ATOM      8  O   LIG A   1      -7.956   5.218 128.810  0.00  0.00    -0.297 OA
ATOM      9  C   LIG A   1      -7.408   3.976 128.334  0.00  0.00    +0.328 C 
ATOM     10  C   LIG A   1      -9.723   2.900 130.883  0.00  0.00    +0.010 C 
ATOM     11  C   LIG A   1      -8.987   2.341 132.035  0.00  0.00    +0.138 C 
ATOM     12  C   LIG A   1      -7.659   3.122 132.163  0.00  0.00    +0.040 C 
ATOM     13  C   LIG A   1      -6.708   3.130 130.867  0.00  0.00    +0.018 C 
ATOM     14  C   LIG A   1      -5.534   2.052 131.107  0.00  0.00    -0.020 C 
ATOM     15  C   LIG A   1      -4.829   2.375 132.473  0.00  0.00    +0.012 C 
ENDROOT
BRANCH   3  16
ATOM     16  O   LIG A   1      -8.235  -0.426 130.343  0.00  0.00    -0.388 OA
ATOM     17  H   LIG A   1      -9.021  -0.031 129.921  0.00  0.00    +0.210 HD
ENDBRANCH   3  16
BRANCH  11  18
ATOM     18  O   LIG A   1      -9.755   2.594 133.209  0.00  0.00    -0.388 OA
ATOM     19  H   LIG A   1      -9.285   3.289 133.703  0.00  0.00    +0.210 HD
ENDBRANCH  11  18
BRANCH   4  20
ATOM     20  O   LIG A   1      -6.671   1.357 127.817  0.00  0.00    -0.458 OA
BRANCH  20  21
ATOM     21  C   LIG A   1      -6.943   0.300 126.993  0.00  0.00    +0.304 C 
ATOM     22  C   LIG A   1      -5.690  -0.409 126.573  0.00  0.00    +0.136 C 
ATOM     23  O   LIG A   1      -8.069  -0.085 126.706  0.00  0.00    -0.251 OA
ENDBRANCH  20  21
ENDBRANCH   4  20
BRANCH   7  24
ATOM     24  O   LIG A   1      -9.434   5.776 130.533  0.00  0.00    -0.431 OA
BRANCH  24  25
ATOM     25  C   LIG A   1      -8.559   6.831 130.610  0.00  0.00    +0.309 C 
ATOM     26  O   LIG A   1      -8.658   7.837 129.915  0.00  0.00    -0.251 OA
BRANCH  25  27
ATOM     27  C   LIG A   1      -7.512   6.610 131.643  0.00  0.00    +0.120 C 
BRANCH  27  28
ATOM     28  C   LIG A   1      -6.085   6.869 131.066  0.00  0.00    +0.008 C 
ATOM     29  C   LIG A   1      -4.959   6.313 131.926  0.00  0.00    +0.004 C 
ENDBRANCH  27  28
ENDBRANCH  25  27
ENDBRANCH  24  25
ENDBRANCH   7  24
BRANCH   9  30
ATOM     30  O   LIG A   1      -8.234   3.561 127.196  0.00  0.00    -0.434 OA
BRANCH  30  31
ATOM     31  C   LIG A   1      -8.161   4.229 126.013  0.00  0.00    +0.309 C 
ATOM     32  O   LIG A   1      -8.603   5.340 125.805  0.00  0.00    -0.251 OA
BRANCH  31  33
ATOM     33  C   LIG A   1      -7.531   3.325 124.950  0.00  0.00    +0.120 C 
BRANCH  33  34
ATOM     34  C   LIG A   1      -6.004   3.305 124.913  0.00  0.00    +0.008 C 
ATOM     35  C   LIG A   1      -5.400   4.652 125.323  0.00  0.00    +0.004 C 
ENDBRANCH  33  34
ENDBRANCH  31  33
ENDBRANCH  30  31
ENDBRANCH   9  30
BRANCH  14  36
ATOM     36  C   LIG A   1      -4.398   2.107 130.014  0.00  0.00    +0.034 C 
BRANCH  36  37
ATOM     37  C   LIG A   1      -3.930   3.505 129.633  0.00  0.00    -0.023 C 
ATOM     38  C   LIG A   1      -3.272   3.933 128.542  0.00  0.00    -0.055 C 
ATOM     39  C   LIG A   1      -2.802   5.368 128.453  0.00  0.00    +0.043 C 
BRANCH  38  40
ATOM     40  C   LIG A   1      -2.944   3.087 127.420  0.00  0.00    -0.005 C 
ATOM     41  C   LIG A   1      -1.750   3.103 126.816  0.00  0.00    +0.008 C 
ENDBRANCH  38  40
ENDBRANCH  36  37
ENDBRANCH  14  36
TORSDOF 15
ENDMDL
MODEL 5
REMARK VINA RESULT:      -7.2      2.403      6.148
REMARK  Name = NuBBE_230
REMARK  21 active torsions:
REMARK  status: ('A' for Active; 'I' for Inactive)
REMARK    1  A    between atoms: C_1  and  C_2
REMARK    2  A    between atoms: C_4  and  O_6
REMARK    3  A    between atoms: C_7  and  O_9
REMARK    4  A    between atoms: O_9  and  C_10
REMARK    5  A    between atoms: C_10  and  C_11
REMARK    6  A    between atoms: C_15  and  O_17
REMARK    7  A    between atoms: O_17  and  C_18
REMARK    8  A    between atoms: C_18  and  C_19
REMARK    9  A    between atoms: C_19  and  C_20
REMARK   10  A    between atoms: C_20  and  C_21
REMARK   11  A    between atoms: C_24  and  O_26
REMARK   12  A    between atoms: O_26  and  C_27
REMARK   13  A    between atoms: C_27  and  C_28
REMARK   14  A    between atoms: C_28  and  C_29
REMARK   15  A    between atoms: C_29  and  C_30
REMARK   16  A    between atoms: C_33  and  O_35
REMARK   17  A    between atoms: C_39  and  C_40
REMARK   18  A    between atoms: C_39  and  C_41
REMARK   19  A    between atoms: C_41  and  C_42
REMARK   20  A    between atoms: C_43  and  C_44
REMARK   21  A    between atoms: C_43  and  C_46
REMARK                            x       y       z     vdW  Elec       q    Type
REMARK                         _______ _______ _______ _____ _____    ______ ____
ROOT
ATOM      1  C   LIG A   1      -5.242  -0.457 131.620  0.00  0.00    +0.011 C 
ATOM      2  C   LIG A   1      -6.055   0.775 131.198  0.00  0.00    +0.025 C 
ATOM      3  C   LIG A   1      -6.918   0.454 129.962  0.00  0.00    +0.159 C 
ATOM      4  C   LIG A   1      -7.416   1.619 129.050  0.00  0.00    +0.222 C 
ATOM      5  C   LIG A   1      -7.422   3.080 129.631  0.00  0.00    +0.103 C 
ATOM      6  C   LIG A   1      -8.824   3.563 130.064  0.00  0.00    +0.013 C 
ATOM      7  C   LIG A   1      -9.072   4.990 129.615  0.00  0.00    +0.343 C 
ATOM      8  O   LIG A   1      -7.834   5.351 128.966  0.00  0.00    -0.297 OA
ATOM      9  C   LIG A   1      -7.302   4.119 128.446  0.00  0.00    +0.328 C 
ATOM     10  C   LIG A   1      -9.515   2.989 131.061  0.00  0.00    +0.010 C 
ATOM     11  C   LIG A   1      -8.733   2.411 132.173  0.00  0.00    +0.138 C 
ATOM     12  C   LIG A   1      -7.403   3.194 132.265  0.00  0.00    +0.040 C 
ATOM     13  C   LIG A   1      -6.503   3.229 130.933  0.00  0.00    +0.018 C 
ATOM     14  C   LIG A   1      -5.318   2.149 131.107  0.00  0.00    -0.020 C 
ATOM     15  C   LIG A   1      -4.562   2.449 132.451  0.00  0.00    +0.012 C 
ENDROOT
BRANCH   3  16
ATOM     16  O   LIG A   1      -8.042  -0.321 130.402  0.00  0.00    -0.388 OA
ATOM     17  H   LIG A   1      -7.710  -0.995 131.024  0.00  0.00    +0.210 HD
ENDBRANCH   3  16
BRANCH  11  18
ATOM     18  O   LIG A   1      -9.457   2.639 133.380  0.00  0.00    -0.388 OA
ATOM     19  H   LIG A   1     -10.401   2.560 133.156  0.00  0.00    +0.210 HD
ENDBRANCH  11  18
BRANCH   4  20
ATOM     20  O   LIG A   1      -6.580   1.513 127.851  0.00  0.00    -0.458 OA
BRANCH  20  21
ATOM     21  C   LIG A   1      -6.970   0.563 126.949  0.00  0.00    +0.304 C 
ATOM     22  C   LIG A   1      -5.792  -0.057 126.256  0.00  0.00    +0.136 C 
ATOM     23  O   LIG A   1      -8.124   0.190 126.788  0.00  0.00    -0.251 OA
ENDBRANCH  20  21
ENDBRANCH   4  20
BRANCH   7  24
ATOM     24  O   LIG A   1      -9.245   5.872 130.754  0.00  0.00    -0.431 OA
BRANCH  24  25
ATOM     25  C   LIG A   1     -10.472   6.481 130.845  0.00  0.00    +0.309 C 
ATOM     26  O   LIG A   1     -11.250   6.288 131.774  0.00  0.00    -0.251 OA
BRANCH  25  27
ATOM     27  C   LIG A   1     -10.719   7.405 129.705  0.00  0.00    +0.120 C 
BRANCH  27  28
ATOM     28  C   LIG A   1     -12.214   7.850 129.652  0.00  0.00    +0.008 C 
ATOM     29  C   LIG A   1     -13.094   6.957 128.789  0.00  0.00    +0.004 C 
ENDBRANCH  27  28
ENDBRANCH  25  27
ENDBRANCH  24  25
ENDBRANCH   7  24
BRANCH   9  30
ATOM     30  O   LIG A   1      -8.170   3.723 127.332  0.00  0.00    -0.434 OA
BRANCH  30  31
ATOM     31  C   LIG A   1      -7.889   4.126 126.063  0.00  0.00    +0.309 C 
ATOM     32  O   LIG A   1      -8.692   4.213 125.158  0.00  0.00    -0.251 OA
BRANCH  31  33
ATOM     33  C   LIG A   1      -6.381   4.353 125.919  0.00  0.00    +0.120 C 
BRANCH  33  34
ATOM     34  C   LIG A   1      -5.683   3.521 124.846  0.00  0.00    +0.008 C 
ATOM     35  C   LIG A   1      -5.567   4.274 123.516  0.00  0.00    +0.004 C 
ENDBRANCH  33  34
ENDBRANCH  31  33
ENDBRANCH  30  31
ENDBRANCH   9  30
BRANCH  14  36
ATOM     36  C   LIG A   1      -4.225   2.228 129.972  0.00  0.00    +0.034 C 
BRANCH  36  37
ATOM     37  C   LIG A   1      -3.763   3.633 129.612  0.00  0.00    -0.023 C 
ATOM     38  C   LIG A   1      -3.189   4.097 128.489  0.00  0.00    -0.055 C 
ATOM     39  C   LIG A   1      -2.700   5.527 128.420  0.00  0.00    +0.043 C 
BRANCH  38  40
ATOM     40  C   LIG A   1      -2.970   3.294 127.310  0.00  0.00    -0.005 C 
ATOM     41  C   LIG A   1      -1.760   3.097 126.774  0.00  0.00    +0.008 C 
ENDBRANCH  38  40
ENDBRANCH  36  37
ENDBRANCH  14  36
TORSDOF 15
ENDMDL
MODEL 6
REMARK VINA RESULT:      -7.2      2.438      7.814
REMARK  Name = NuBBE_230
REMARK  21 active torsions:
REMARK  status: ('A' for Active; 'I' for Inactive)
REMARK    1  A    between atoms: C_1  and  C_2
REMARK    2  A    between atoms: C_4  and  O_6
REMARK    3  A    between atoms: C_7  and  O_9
REMARK    4  A    between atoms: O_9  and  C_10
REMARK    5  A    between atoms: C_10  and  C_11
REMARK    6  A    between atoms: C_15  and  O_17
REMARK    7  A    between atoms: O_17  and  C_18
REMARK    8  A    between atoms: C_18  and  C_19
REMARK    9  A    between atoms: C_19  and  C_20
REMARK   10  A    between atoms: C_20  and  C_21
REMARK   11  A    between atoms: C_24  and  O_26
REMARK   12  A    between atoms: O_26  and  C_27
REMARK   13  A    between atoms: C_27  and  C_28
REMARK   14  A    between atoms: C_28  and  C_29
REMARK   15  A    between atoms: C_29  and  C_30
REMARK   16  A    between atoms: C_33  and  O_35
REMARK   17  A    between atoms: C_39  and  C_40
REMARK   18  A    between atoms: C_39  and  C_41
REMARK   19  A    between atoms: C_41  and  C_42
REMARK   20  A    between atoms: C_43  and  C_44
REMARK   21  A    between atoms: C_43  and  C_46
REMARK                            x       y       z     vdW  Elec       q    Type
REMARK                         _______ _______ _______ _____ _____    ______ ____
ROOT
ATOM      1  C   LIG A   1      -5.355   1.690 131.601  0.00  0.00    +0.011 C 
ATOM      2  C   LIG A   1      -6.018   1.164 130.321  0.00  0.00    +0.025 C 
ATOM      3  C   LIG A   1      -5.434   1.870 129.082  0.00  0.00    +0.159 C 
ATOM      4  C   LIG A   1      -6.260   1.904 127.758  0.00  0.00    +0.222 C 
ATOM      5  C   LIG A   1      -7.426   0.867 127.571  0.00  0.00    +0.103 C 
ATOM      6  C   LIG A   1      -7.053  -0.318 126.653  0.00  0.00    +0.013 C 
ATOM      7  C   LIG A   1      -8.179  -0.638 125.688  0.00  0.00    +0.343 C 
ATOM      8  O   LIG A   1      -9.204   0.312 126.054  0.00  0.00    -0.297 OA
ATOM      9  C   LIG A   1      -8.500   1.455 126.570  0.00  0.00    +0.328 C 
ATOM     10  C   LIG A   1      -6.095  -1.205 126.963  0.00  0.00    +0.010 C 
ATOM     11  C   LIG A   1      -5.890  -1.497 128.396  0.00  0.00    +0.138 C 
ATOM     12  C   LIG A   1      -7.237  -1.259 129.118  0.00  0.00    +0.040 C 
ATOM     13  C   LIG A   1      -7.887   0.202 128.952  0.00  0.00    +0.018 C 
ATOM     14  C   LIG A   1      -7.574   1.038 130.294  0.00  0.00    -0.020 C 
ATOM     15  C   LIG A   1      -8.073   0.206 131.530  0.00  0.00    +0.012 C 
ENDROOT
BRANCH   3  16
ATOM     16  O   LIG A   1      -4.142   1.303 128.823  0.00  0.00    -0.388 OA
ATOM     17  H   LIG A   1      -3.550   1.576 129.548  0.00  0.00    +0.210 HD
ENDBRANCH   3  16
BRANCH  11  18
ATOM     18  O   LIG A   1      -5.570  -2.881 128.518  0.00  0.00    -0.388 OA
ATOM     19  H   LIG A   1      -5.022  -3.107 127.746  0.00  0.00    +0.210 HD
ENDBRANCH  11  18
BRANCH   4  20
ATOM     20  O   LIG A   1      -6.742   3.286 127.677  0.00  0.00    -0.458 OA
BRANCH  20  21
ATOM     21  C   LIG A   1      -5.781   4.226 127.427  0.00  0.00    +0.304 C 
ATOM     22  C   LIG A   1      -5.095   3.979 126.116  0.00  0.00    +0.136 C 
ATOM     23  O   LIG A   1      -5.565   5.203 128.131  0.00  0.00    -0.251 OA
ENDBRANCH  20  21
ENDBRANCH   4  20
BRANCH   7  24
ATOM     24  O   LIG A   1      -8.706  -1.969 125.926  0.00  0.00    -0.431 OA
BRANCH  24  25
ATOM     25  C   LIG A   1      -8.811  -2.766 124.814  0.00  0.00    +0.309 C 
ATOM     26  O   LIG A   1      -9.749  -2.700 124.026  0.00  0.00    -0.251 OA
BRANCH  25  27
ATOM     27  C   LIG A   1      -7.649  -3.685 124.678  0.00  0.00    +0.120 C 
BRANCH  27  28
ATOM     28  C   LIG A   1      -6.539  -3.064 123.773  0.00  0.00    +0.008 C 
ATOM     29  C   LIG A   1      -5.149  -3.631 124.021  0.00  0.00    +0.004 C 
ENDBRANCH  27  28
ENDBRANCH  25  27
ENDBRANCH  24  25
ENDBRANCH   7  24
BRANCH   9  30
ATOM     30  O   LIG A   1      -7.836   2.091 125.428  0.00  0.00    -0.434 OA
BRANCH  30  31
ATOM     31  C   LIG A   1      -8.474   3.057 124.712  0.00  0.00    +0.309 C 
ATOM     32  O   LIG A   1      -8.774   4.157 125.127  0.00  0.00    -0.251 OA
BRANCH  31  33
ATOM     33  C   LIG A   1      -8.851   2.509 123.332  0.00  0.00    +0.120 C 
BRANCH  33  34
ATOM     34  C   LIG A   1      -8.191   3.197 122.139  0.00  0.00    +0.008 C 
ATOM     35  C   LIG A   1      -6.667   3.265 122.284  0.00  0.00    +0.004 C 
ENDBRANCH  33  34
ENDBRANCH  31  33
ENDBRANCH  30  31
ENDBRANCH   9  30
BRANCH  14  36
ATOM     36  C   LIG A   1      -8.340   2.416 130.368  0.00  0.00    +0.034 C 
BRANCH  36  37
ATOM     37  C   LIG A   1      -8.874   2.789 131.744  0.00  0.00    -0.023 C 
ATOM     38  C   LIG A   1      -8.494   3.763 132.589  0.00  0.00    -0.055 C 
ATOM     39  C   LIG A   1      -9.105   3.853 133.969  0.00  0.00    +0.043 C 
BRANCH  38  40
ATOM     40  C   LIG A   1      -7.489   4.750 132.274  0.00  0.00    -0.005 C 
ATOM     41  C   LIG A   1      -7.783   6.007 131.922  0.00  0.00    +0.008 C 
ENDBRANCH  38  40
ENDBRANCH  36  37
ENDBRANCH  14  36
TORSDOF 15
ENDMDL
MODEL 7
REMARK VINA RESULT:      -7.1      2.737      7.245
REMARK  Name = NuBBE_230
REMARK  21 active torsions:
REMARK  status: ('A' for Active; 'I' for Inactive)
REMARK    1  A    between atoms: C_1  and  C_2
REMARK    2  A    between atoms: C_4  and  O_6
REMARK    3  A    between atoms: C_7  and  O_9
REMARK    4  A    between atoms: O_9  and  C_10
REMARK    5  A    between atoms: C_10  and  C_11
REMARK    6  A    between atoms: C_15  and  O_17
REMARK    7  A    between atoms: O_17  and  C_18
REMARK    8  A    between atoms: C_18  and  C_19
REMARK    9  A    between atoms: C_19  and  C_20
REMARK   10  A    between atoms: C_20  and  C_21
REMARK   11  A    between atoms: C_24  and  O_26
REMARK   12  A    between atoms: O_26  and  C_27
REMARK   13  A    between atoms: C_27  and  C_28
REMARK   14  A    between atoms: C_28  and  C_29
REMARK   15  A    between atoms: C_29  and  C_30
REMARK   16  A    between atoms: C_33  and  O_35
REMARK   17  A    between atoms: C_39  and  C_40
REMARK   18  A    between atoms: C_39  and  C_41
REMARK   19  A    between atoms: C_41  and  C_42
REMARK   20  A    between atoms: C_43  and  C_44
REMARK   21  A    between atoms: C_43  and  C_46
REMARK                            x       y       z     vdW  Elec       q    Type
REMARK                         _______ _______ _______ _____ _____    ______ ____
ROOT
ATOM      1  C   LIG A   1      -7.839   5.020 128.698  0.00  0.00    +0.011 C 
ATOM      2  C   LIG A   1      -7.678   3.643 128.038  0.00  0.00    +0.025 C 
ATOM      3  C   LIG A   1      -8.188   2.533 128.978  0.00  0.00    +0.159 C 
ATOM      4  C   LIG A   1      -7.680   1.070 128.782  0.00  0.00    +0.222 C 
ATOM      5  C   LIG A   1      -7.039   0.673 127.402  0.00  0.00    +0.103 C 
ATOM      6  C   LIG A   1      -7.994  -0.128 126.489  0.00  0.00    +0.013 C 
ATOM      7  C   LIG A   1      -7.274  -1.292 125.835  0.00  0.00    +0.343 C 
ATOM      8  O   LIG A   1      -5.921  -1.158 126.322  0.00  0.00    -0.297 OA
ATOM      9  C   LIG A   1      -6.039  -0.533 127.612  0.00  0.00    +0.328 C 
ATOM     10  C   LIG A   1      -9.132   0.385 125.998  0.00  0.00    +0.010 C 
ATOM     11  C   LIG A   1      -9.148   1.836 125.721  0.00  0.00    +0.138 C 
ATOM     12  C   LIG A   1      -7.697   2.268 125.409  0.00  0.00    +0.040 C 
ATOM     13  C   LIG A   1      -6.599   1.947 126.539  0.00  0.00    +0.018 C 
ATOM     14  C   LIG A   1      -6.315   3.308 127.354  0.00  0.00    -0.020 C 
ATOM     15  C   LIG A   1      -5.931   4.435 126.329  0.00  0.00    +0.012 C 
ENDROOT
BRANCH   3  16
ATOM     16  O   LIG A   1      -9.621   2.549 128.938  0.00  0.00    -0.388 OA
ATOM     17  H   LIG A   1      -9.933   3.017 129.735  0.00  0.00    +0.210 HD
ENDBRANCH   3  16
BRANCH  11  18
ATOM     18  O   LIG A   1      -9.927   2.046 124.546  0.00  0.00    -0.388 OA
ATOM     19  H   LIG A   1     -10.425   2.871 124.687  0.00  0.00    +0.210 HD
ENDBRANCH  11  18
BRANCH   4  20
ATOM     20  O   LIG A   1      -6.747   0.867 129.894  0.00  0.00    -0.458 OA
BRANCH  20  21
ATOM     21  C   LIG A   1      -7.320   0.810 131.134  0.00  0.00    +0.304 C 
ATOM     22  C   LIG A   1      -8.379  -0.251 131.205  0.00  0.00    +0.136 C 
ATOM     23  O   LIG A   1      -6.958   1.470 132.098  0.00  0.00    -0.251 OA
ENDBRANCH  20  21
ENDBRANCH   4  20
BRANCH   7  24
ATOM     24  O   LIG A   1      -7.240  -1.139 124.392  0.00  0.00    -0.431 OA
BRANCH  24  25
ATOM     25  C   LIG A   1      -7.515  -2.276 123.675  0.00  0.00    +0.309 C 
ATOM     26  O   LIG A   1      -8.376  -2.327 122.802  0.00  0.00    -0.251 OA
BRANCH  25  27
ATOM     27  C   LIG A   1      -6.633  -3.408 124.068  0.00  0.00    +0.120 C 
BRANCH  27  28
ATOM     28  C   LIG A   1      -5.194  -3.231 123.488  0.00  0.00    +0.008 C 
ATOM     29  C   LIG A   1      -4.329  -4.479 123.590  0.00  0.00    +0.004 C 
ENDBRANCH  27  28
ENDBRANCH  25  27
ENDBRANCH  24  25
ENDBRANCH   7  24
BRANCH   9  30
ATOM     30  O   LIG A   1      -6.628  -1.532 128.510  0.00  0.00    -0.434 OA
BRANCH  30  31
ATOM     31  C   LIG A   1      -5.923  -2.641 128.863  0.00  0.00    +0.309 C 
ATOM     32  O   LIG A   1      -4.739  -2.814 128.666  0.00  0.00    -0.251 OA
BRANCH  31  33
ATOM     33  C   LIG A   1      -6.874  -3.687 129.454  0.00  0.00    +0.120 C 
BRANCH  33  34
ATOM     34  C   LIG A   1      -8.364  -3.429 129.239  0.00  0.00    +0.008 C 
ATOM     35  C   LIG A   1      -8.857  -3.982 127.898  0.00  0.00    +0.004 C 
ENDBRANCH  33  34
ENDBRANCH  31  33
ENDBRANCH  30  31
ENDBRANCH   9  30
BRANCH  14  36
ATOM     36  C   LIG A   1      -5.096   3.200 128.350  0.00  0.00    +0.034 C 
BRANCH  36  37
ATOM     37  C   LIG A   1      -3.763   2.843 127.709  0.00  0.00    -0.023 C 
ATOM     38  C   LIG A   1      -2.611   3.534 127.656  0.00  0.00    -0.055 C 
ATOM     39  C   LIG A   1      -1.449   3.013 126.841  0.00  0.00    +0.043 C 
BRANCH  38  40
ATOM     40  C   LIG A   1      -2.404   4.799 128.320  0.00  0.00    -0.005 C 
ATOM     41  C   LIG A   1      -2.859   5.961 127.838  0.00  0.00    +0.008 C 
ENDBRANCH  38  40
ENDBRANCH  36  37
ENDBRANCH  14  36
TORSDOF 15
ENDMDL
MODEL 8
REMARK VINA RESULT:      -6.9      2.069      6.879
REMARK  Name = NuBBE_230
REMARK  21 active torsions:
REMARK  status: ('A' for Active; 'I' for Inactive)
REMARK    1  A    between atoms: C_1  and  C_2
REMARK    2  A    between atoms: C_4  and  O_6
REMARK    3  A    between atoms: C_7  and  O_9
REMARK    4  A    between atoms: O_9  and  C_10
REMARK    5  A    between atoms: C_10  and  C_11
REMARK    6  A    between atoms: C_15  and  O_17
REMARK    7  A    between atoms: O_17  and  C_18
REMARK    8  A    between atoms: C_18  and  C_19
REMARK    9  A    between atoms: C_19  and  C_20
REMARK   10  A    between atoms: C_20  and  C_21
REMARK   11  A    between atoms: C_24  and  O_26
REMARK   12  A    between atoms: O_26  and  C_27
REMARK   13  A    between atoms: C_27  and  C_28
REMARK   14  A    between atoms: C_28  and  C_29
REMARK   15  A    between atoms: C_29  and  C_30
REMARK   16  A    between atoms: C_33  and  O_35
REMARK   17  A    between atoms: C_39  and  C_40
REMARK   18  A    between atoms: C_39  and  C_41
REMARK   19  A    between atoms: C_41  and  C_42
REMARK   20  A    between atoms: C_43  and  C_44
REMARK   21  A    between atoms: C_43  and  C_46
REMARK                            x       y       z     vdW  Elec       q    Type
REMARK                         _______ _______ _______ _____ _____    ______ ____
ROOT
ATOM      1  C   LIG A   1      -5.459   5.005 126.104  0.00  0.00    +0.011 C 
ATOM      2  C   LIG A   1      -5.953   3.638 126.599  0.00  0.00    +0.025 C 
ATOM      3  C   LIG A   1      -7.327   3.778 127.284  0.00  0.00    +0.159 C 
ATOM      4  C   LIG A   1      -7.793   2.685 128.296  0.00  0.00    +0.222 C 
ATOM      5  C   LIG A   1      -7.092   1.278 128.262  0.00  0.00    +0.103 C 
ATOM      6  C   LIG A   1      -7.932   0.190 127.556  0.00  0.00    +0.013 C 
ATOM      7  C   LIG A   1      -7.903  -1.112 128.333  0.00  0.00    +0.343 C 
ATOM      8  O   LIG A   1      -7.038  -0.809 129.449  0.00  0.00    -0.297 OA
ATOM      9  C   LIG A   1      -7.198   0.601 129.687  0.00  0.00    +0.328 C 
ATOM     10  C   LIG A   1      -8.248   0.246 126.253  0.00  0.00    +0.010 C 
ATOM     11  C   LIG A   1      -7.273   0.899 125.355  0.00  0.00    +0.138 C 
ATOM     12  C   LIG A   1      -5.872   0.736 125.989  0.00  0.00    +0.040 C 
ATOM     13  C   LIG A   1      -5.695   1.305 127.482  0.00  0.00    +0.018 C 
ATOM     14  C   LIG A   1      -4.951   2.732 127.383  0.00  0.00    -0.020 C 
ATOM     15  C   LIG A   1      -3.626   2.550 126.559  0.00  0.00    +0.012 C 
ENDROOT
BRANCH   3  16
ATOM     16  O   LIG A   1      -8.315   3.928 126.256  0.00  0.00    -0.388 OA
ATOM     17  H   LIG A   1      -7.852   3.923 125.398  0.00  0.00    +0.210 HD
ENDBRANCH   3  16
BRANCH  11  18
ATOM     18  O   LIG A   1      -7.277   0.188 124.119  0.00  0.00    -0.388 OA
ATOM     19  H   LIG A   1      -6.707  -0.591 124.246  0.00  0.00    +0.210 HD
ENDBRANCH  11  18
BRANCH   4  20
ATOM     20  O   LIG A   1      -7.654   3.330 129.604  0.00  0.00    -0.458 OA
BRANCH  20  21
ATOM     21  C   LIG A   1      -8.581   4.298 129.880  0.00  0.00    +0.304 C 
ATOM     22  C   LIG A   1      -7.944   5.518 130.477  0.00  0.00    +0.136 C 
ATOM     23  O   LIG A   1      -9.768   4.224 129.593  0.00  0.00    -0.251 OA
ENDBRANCH  20  21
ENDBRANCH   4  20
BRANCH   7  24
ATOM     24  O   LIG A   1      -7.272  -2.166 127.560  0.00  0.00    -0.431 OA
BRANCH  24  25
ATOM     25  C   LIG A   1      -8.118  -3.144 127.101  0.00  0.00    +0.309 C 
ATOM     26  O   LIG A   1      -8.892  -3.758 127.828  0.00  0.00    -0.251 OA
BRANCH  25  27
ATOM     27  C   LIG A   1      -7.996  -3.339 125.631  0.00  0.00    +0.120 C 
BRANCH  27  28
ATOM     28  C   LIG A   1      -9.355  -3.074 124.910  0.00  0.00    +0.008 C 
ATOM     29  C   LIG A   1      -9.247  -3.000 123.394  0.00  0.00    +0.004 C 
ENDBRANCH  27  28
ENDBRANCH  25  27
ENDBRANCH  24  25
ENDBRANCH   7  24
BRANCH   9  30
ATOM     30  O   LIG A   1      -8.545   0.783 130.237  0.00  0.00    -0.434 OA
BRANCH  30  31
ATOM     31  C   LIG A   1      -8.794   0.518 131.549  0.00  0.00    +0.309 C 
ATOM     32  O   LIG A   1      -8.626  -0.553 132.094  0.00  0.00    -0.251 OA
BRANCH  31  33
ATOM     33  C   LIG A   1      -9.422   1.748 132.211  0.00  0.00    +0.120 C 
BRANCH  33  34
ATOM     34  C   LIG A   1      -8.505   2.545 133.137  0.00  0.00    +0.008 C 
ATOM     35  C   LIG A   1      -9.219   3.750 133.758  0.00  0.00    +0.004 C 
ENDBRANCH  33  34
ENDBRANCH  31  33
ENDBRANCH  30  31
ENDBRANCH   9  30
BRANCH  14  36
ATOM     36  C   LIG A   1      -4.511   3.309 128.783  0.00  0.00    +0.034 C 
BRANCH  36  37
ATOM     37  C   LIG A   1      -3.356   4.300 128.743  0.00  0.00    -0.023 C 
ATOM     38  C   LIG A   1      -3.319   5.605 129.064  0.00  0.00    -0.055 C 
ATOM     39  C   LIG A   1      -2.066   6.413 128.816  0.00  0.00    +0.043 C 
BRANCH  38  40
ATOM     40  C   LIG A   1      -4.439   6.324 129.622  0.00  0.00    -0.005 C 
ATOM     41  C   LIG A   1      -4.309   7.483 130.278  0.00  0.00    +0.008 C 
ENDBRANCH  38  40
ENDBRANCH  36  37
ENDBRANCH  14  36
TORSDOF 15
ENDMDL
MODEL 9
REMARK VINA RESULT:      -6.8      2.508      6.833
REMARK  Name = NuBBE_230
REMARK  21 active torsions:
REMARK  status: ('A' for Active; 'I' for Inactive)
REMARK    1  A    between atoms: C_1  and  C_2
REMARK    2  A    between atoms: C_4  and  O_6
REMARK    3  A    between atoms: C_7  and  O_9
REMARK    4  A    between atoms: O_9  and  C_10
REMARK    5  A    between atoms: C_10  and  C_11
REMARK    6  A    between atoms: C_15  and  O_17
REMARK    7  A    between atoms: O_17  and  C_18
REMARK    8  A    between atoms: C_18  and  C_19
REMARK    9  A    between atoms: C_19  and  C_20
REMARK   10  A    between atoms: C_20  and  C_21
REMARK   11  A    between atoms: C_24  and  O_26
REMARK   12  A    between atoms: O_26  and  C_27
REMARK   13  A    between atoms: C_27  and  C_28
REMARK   14  A    between atoms: C_28  and  C_29
REMARK   15  A    between atoms: C_29  and  C_30
REMARK   16  A    between atoms: C_33  and  O_35
REMARK   17  A    between atoms: C_39  and  C_40
REMARK   18  A    between atoms: C_39  and  C_41
REMARK   19  A    between atoms: C_41  and  C_42
REMARK   20  A    between atoms: C_43  and  C_44
REMARK   21  A    between atoms: C_43  and  C_46
REMARK                            x       y       z     vdW  Elec       q    Type
REMARK                         _______ _______ _______ _____ _____    ______ ____
ROOT
ATOM      1  C   LIG A   1      -6.767   4.561 129.777  0.00  0.00    +0.011 C 
ATOM      2  C   LIG A   1      -6.922   3.239 129.010  0.00  0.00    +0.025 C 
ATOM      3  C   LIG A   1      -8.100   2.422 129.578  0.00  0.00    +0.159 C 
ATOM      4  C   LIG A   1      -8.146   0.880 129.344  0.00  0.00    +0.222 C 
ATOM      5  C   LIG A   1      -7.274   0.268 128.188  0.00  0.00    +0.103 C 
ATOM      6  C   LIG A   1      -8.088  -0.076 126.920  0.00  0.00    +0.013 C 
ATOM      7  C   LIG A   1      -7.684  -1.428 126.362  0.00  0.00    +0.343 C 
ATOM      8  O   LIG A   1      -6.633  -1.852 127.257  0.00  0.00    -0.297 OA
ATOM      9  C   LIG A   1      -6.938  -1.241 128.523  0.00  0.00    +0.328 C 
ATOM     10  C   LIG A   1      -8.709   0.854 126.180  0.00  0.00    +0.010 C 
ATOM     11  C   LIG A   1      -8.083   2.191 126.120  0.00  0.00    +0.138 C 
ATOM     12  C   LIG A   1      -6.563   2.004 126.337  0.00  0.00    +0.040 C 
ATOM     13  C   LIG A   1      -6.122   1.262 127.692  0.00  0.00    +0.018 C 
ATOM     14  C   LIG A   1      -5.641   2.388 128.741  0.00  0.00    -0.020 C 
ATOM     15  C   LIG A   1      -4.538   3.271 128.056  0.00  0.00    +0.012 C 
ENDROOT
BRANCH   3  16
ATOM     16  O   LIG A   1      -9.315   3.014 129.100  0.00  0.00    -0.388 OA
ATOM     17  H   LIG A   1      -9.356   3.925 129.447  0.00  0.00    +0.210 HD
ENDBRANCH   3  16
BRANCH  11  18
ATOM     18  O   LIG A   1      -8.275   2.704 124.804  0.00  0.00    -0.388 OA
ATOM     19  H   LIG A   1      -9.237   2.772 124.671  0.00  0.00    +0.210 HD
ENDBRANCH  11  18
BRANCH   4  20
ATOM     20  O   LIG A   1      -7.797   0.312 130.648  0.00  0.00    -0.458 OA
BRANCH  20  21
ATOM     21  C   LIG A   1      -8.627   0.660 131.678  0.00  0.00    +0.304 C 
ATOM     22  C   LIG A   1      -7.918   1.504 132.697  0.00  0.00    +0.136 C 
ATOM     23  O   LIG A   1      -9.821   0.402 131.725  0.00  0.00    -0.251 OA
ENDBRANCH  20  21
ENDBRANCH   4  20
BRANCH   7  24
ATOM     24  O   LIG A   1      -7.106  -1.292 125.037  0.00  0.00    -0.431 OA
BRANCH  24  25
ATOM     25  C   LIG A   1      -7.015  -2.455 124.315  0.00  0.00    +0.309 C 
ATOM     26  O   LIG A   1      -7.760  -3.415 124.490  0.00  0.00    -0.251 OA
BRANCH  25  27
ATOM     27  C   LIG A   1      -5.934  -2.392 123.294  0.00  0.00    +0.120 C 
BRANCH  27  28
ATOM     28  C   LIG A   1      -4.628  -3.072 123.812  0.00  0.00    +0.008 C 
ATOM     29  C   LIG A   1      -4.601  -4.582 123.625  0.00  0.00    +0.004 C 
ENDBRANCH  27  28
ENDBRANCH  25  27
ENDBRANCH  24  25
ENDBRANCH   7  24
BRANCH   9  30
ATOM     30  O   LIG A   1      -8.127  -1.923 129.043  0.00  0.00    -0.434 OA
BRANCH  30  31
ATOM     31  C   LIG A   1      -8.078  -3.246 129.361  0.00  0.00    +0.309 C 
ATOM     32  O   LIG A   1      -8.747  -4.118 128.847  0.00  0.00    -0.251 OA
BRANCH  31  33
ATOM     33  C   LIG A   1      -7.125  -3.454 130.542  0.00  0.00    +0.120 C 
BRANCH  33  34
ATOM     34  C   LIG A   1      -5.944  -4.388 130.287  0.00  0.00    +0.008 C 
ATOM     35  C   LIG A   1      -5.366  -4.955 131.587  0.00  0.00    +0.004 C 
ENDBRANCH  33  34
ENDBRANCH  31  33
ENDBRANCH  30  31
ENDBRANCH   9  30
BRANCH  14  36
ATOM     36  C   LIG A   1      -4.971   1.793 130.039  0.00  0.00    +0.034 C 
BRANCH  36  37
ATOM     37  C   LIG A   1      -4.248   0.467 129.846  0.00  0.00    -0.023 C 
ATOM     38  C   LIG A   1      -4.136  -0.589 130.671  0.00  0.00    -0.055 C 
ATOM     39  C   LIG A   1      -3.248  -1.754 130.297  0.00  0.00    +0.043 C 
BRANCH  38  40
ATOM     40  C   LIG A   1      -4.803  -0.683 131.948  0.00  0.00    -0.005 C 
ATOM     41  C   LIG A   1      -4.451  -1.562 132.893  0.00  0.00    +0.008 C 
ENDBRANCH  38  40
ENDBRANCH  36  37
ENDBRANCH  14  36
TORSDOF 15
ENDMDL
