MODEL 1
REMARK VINA RESULT:      -6.0      0.000      0.000
REMARK  Name = NuBBE_1752
REMARK  5 active torsions:
REMARK  status: ('A' for Active; 'I' for Inactive)
REMARK    1  A    between atoms: C_1  and  C_2
REMARK    2  A    between atoms: C_1  and  C_3
REMARK    3  A    between atoms: C_1  and  O_4
REMARK    4  A    between atoms: C_1  and  C_5
REMARK    5  A    between atoms: C_8  and  C_11
REMARK                            x       y       z     vdW  Elec       q    Type
REMARK                         _______ _______ _______ _____ _____    ______ ____
ROOT
ATOM      1  C   LIG A   1     -12.407   7.024 128.665  0.00  0.00    +0.024 C 
ATOM      2  C   LIG A   1     -13.603   7.741 128.005  0.00  0.00    +0.011 C 
ATOM      3  C   LIG A   1     -13.591   9.258 128.202  0.00  0.00    +0.030 C 
ATOM      4  C   LIG A   1     -13.269   9.669 129.616  0.00  0.00    -0.076 C 
ATOM      5  C   LIG A   1     -12.752   8.801 130.502  0.00  0.00    -0.027 C 
ATOM      6  C   LIG A   1     -12.418   7.372 130.175  0.00  0.00    +0.033 C 
ATOM      7  C   LIG A   1     -13.540  11.103 129.965  0.00  0.00    +0.038 C 
ENDROOT
BRANCH   1   8
ATOM      8  C   LIG A   1     -11.027   7.254 127.958  0.00  0.00    +0.064 C 
ATOM      9  C   LIG A   1     -11.211   7.501 126.451  0.00  0.00    +0.041 C 
ATOM     10  C   LIG A   1     -10.277   8.457 128.552  0.00  0.00    +0.041 C 
BRANCH   8  11
ATOM     11  O   LIG A   1     -10.187   6.111 128.104  0.00  0.00    -0.389 OA
ATOM     12  H   LIG A   1     -10.364   5.708 128.971  0.00  0.00    +0.210 HD
ENDBRANCH   8  11
ENDBRANCH   1   8
TORSDOF 2
ENDMDL
MODEL 2
REMARK VINA RESULT:      -5.6      1.157      1.514
REMARK  Name = NuBBE_1752
REMARK  5 active torsions:
REMARK  status: ('A' for Active; 'I' for Inactive)
REMARK    1  A    between atoms: C_1  and  C_2
REMARK    2  A    between atoms: C_1  and  C_3
REMARK    3  A    between atoms: C_1  and  O_4
REMARK    4  A    between atoms: C_1  and  C_5
REMARK    5  A    between atoms: C_8  and  C_11
REMARK                            x       y       z     vdW  Elec       q    Type
REMARK                         _______ _______ _______ _____ _____    ______ ____
ROOT
ATOM      1  C   LIG A   1     -12.144   6.783 129.261  0.00  0.00    +0.024 C 
ATOM      2  C   LIG A   1     -13.196   7.462 128.359  0.00  0.00    +0.011 C 
ATOM      3  C   LIG A   1     -13.203   8.988 128.470  0.00  0.00    +0.030 C 
ATOM      4  C   LIG A   1     -13.135   9.478 129.894  0.00  0.00    -0.076 C 
ATOM      5  C   LIG A   1     -12.794   8.660 130.906  0.00  0.00    -0.027 C 
ATOM      6  C   LIG A   1     -12.422   7.216 130.723  0.00  0.00    +0.033 C 
ATOM      7  C   LIG A   1     -13.448  10.929 130.110  0.00  0.00    +0.038 C 
ENDROOT
BRANCH   1   8
ATOM      8  C   LIG A   1     -10.658   6.972 128.802  0.00  0.00    +0.064 C 
ATOM      9  C   LIG A   1      -9.776   5.808 129.287  0.00  0.00    +0.041 C 
ATOM     10  C   LIG A   1     -10.541   7.056 127.273  0.00  0.00    +0.041 C 
BRANCH   8  11
ATOM     11  O   LIG A   1     -10.112   8.174 129.340  0.00  0.00    -0.389 OA
ATOM     12  H   LIG A   1     -10.556   8.930 128.919  0.00  0.00    +0.210 HD
ENDBRANCH   8  11
ENDBRANCH   1   8
TORSDOF 2
ENDMDL
MODEL 3
REMARK VINA RESULT:      -5.6     11.698     13.264
REMARK  Name = NuBBE_1752
REMARK  5 active torsions:
REMARK  status: ('A' for Active; 'I' for Inactive)
REMARK    1  A    between atoms: C_1  and  C_2
REMARK    2  A    between atoms: C_1  and  C_3
REMARK    3  A    between atoms: C_1  and  O_4
REMARK    4  A    between atoms: C_1  and  C_5
REMARK    5  A    between atoms: C_8  and  C_11
REMARK                            x       y       z     vdW  Elec       q    Type
REMARK                         _______ _______ _______ _____ _____    ______ ____
ROOT
ATOM      1  C   LIG A   1      -7.383  -1.396 124.590  0.00  0.00    +0.024 C 
ATOM      2  C   LIG A   1      -6.667  -1.251 123.230  0.00  0.00    +0.011 C 
ATOM      3  C   LIG A   1      -5.926  -2.515 122.791  0.00  0.00    +0.030 C 
ATOM      4  C   LIG A   1      -5.122  -3.144 123.899  0.00  0.00    -0.076 C 
ATOM      5  C   LIG A   1      -5.301  -2.797 125.186  0.00  0.00    -0.027 C 
ATOM      6  C   LIG A   1      -6.320  -1.793 125.646  0.00  0.00    +0.033 C 
ATOM      7  C   LIG A   1      -4.131  -4.192 123.484  0.00  0.00    +0.038 C 
ENDROOT
BRANCH   1   8
ATOM      8  C   LIG A   1      -8.653  -2.315 124.574  0.00  0.00    +0.064 C 
ATOM      9  C   LIG A   1      -9.110  -2.602 123.133  0.00  0.00    +0.041 C 
ATOM     10  C   LIG A   1      -8.391  -3.659 125.271  0.00  0.00    +0.041 C 
BRANCH   8  11
ATOM     11  O   LIG A   1      -9.740  -1.687 125.250  0.00  0.00    -0.389 OA
ATOM     12  H   LIG A   1     -10.001  -0.897 124.746  0.00  0.00    +0.210 HD
ENDBRANCH   8  11
ENDBRANCH   1   8
TORSDOF 2
ENDMDL
MODEL 4
REMARK VINA RESULT:      -5.3     10.567     12.708
REMARK  Name = NuBBE_1752
REMARK  5 active torsions:
REMARK  status: ('A' for Active; 'I' for Inactive)
REMARK    1  A    between atoms: C_1  and  C_2
REMARK    2  A    between atoms: C_1  and  C_3
REMARK    3  A    between atoms: C_1  and  O_4
REMARK    4  A    between atoms: C_1  and  C_5
REMARK    5  A    between atoms: C_8  and  C_11
REMARK                            x       y       z     vdW  Elec       q    Type
REMARK                         _______ _______ _______ _____ _____    ______ ____
ROOT
ATOM      1  C   LIG A   1      -8.732  -1.852 123.967  0.00  0.00    +0.024 C 
ATOM      2  C   LIG A   1      -8.558  -3.385 123.993  0.00  0.00    +0.011 C 
ATOM      3  C   LIG A   1      -7.145  -3.834 124.369  0.00  0.00    +0.030 C 
ATOM      4  C   LIG A   1      -6.069  -3.058 123.656  0.00  0.00    -0.076 C 
ATOM      5  C   LIG A   1      -6.337  -1.908 123.013  0.00  0.00    -0.027 C 
ATOM      6  C   LIG A   1      -7.699  -1.275 122.966  0.00  0.00    +0.033 C 
ATOM      7  C   LIG A   1      -4.684  -3.631 123.726  0.00  0.00    +0.038 C 
ENDROOT
BRANCH   1   8
ATOM      8  C   LIG A   1      -8.726  -1.162 125.374  0.00  0.00    +0.064 C 
ATOM      9  C   LIG A   1      -8.750  -2.207 126.503  0.00  0.00    +0.041 C 
ATOM     10  C   LIG A   1      -7.486  -0.275 125.567  0.00  0.00    +0.041 C 
BRANCH   8  11
ATOM     11  O   LIG A   1      -9.875  -0.333 125.535  0.00  0.00    -0.389 OA
ATOM     12  H   LIG A   1      -9.803   0.131 126.387  0.00  0.00    +0.210 HD
ENDBRANCH   8  11
ENDBRANCH   1   8
TORSDOF 2
ENDMDL
MODEL 5
REMARK VINA RESULT:      -5.2      2.213      2.955
REMARK  Name = NuBBE_1752
REMARK  5 active torsions:
REMARK  status: ('A' for Active; 'I' for Inactive)
REMARK    1  A    between atoms: C_1  and  C_2
REMARK    2  A    between atoms: C_1  and  C_3
REMARK    3  A    between atoms: C_1  and  O_4
REMARK    4  A    between atoms: C_1  and  C_5
REMARK    5  A    between atoms: C_8  and  C_11
REMARK                            x       y       z     vdW  Elec       q    Type
REMARK                         _______ _______ _______ _____ _____    ______ ____
ROOT
ATOM      1  C   LIG A   1     -10.844   6.156 129.407  0.00  0.00    +0.024 C 
ATOM      2  C   LIG A   1     -10.472   7.265 128.401  0.00  0.00    +0.011 C 
ATOM      3  C   LIG A   1     -11.022   8.642 128.778  0.00  0.00    +0.030 C 
ATOM      4  C   LIG A   1     -12.462   8.603 129.219  0.00  0.00    -0.076 C 
ATOM      5  C   LIG A   1     -13.073   7.448 129.534  0.00  0.00    -0.027 C 
ATOM      6  C   LIG A   1     -12.390   6.109 129.512  0.00  0.00    +0.033 C 
ATOM      7  C   LIG A   1     -13.163   9.927 129.305  0.00  0.00    +0.038 C 
ENDROOT
BRANCH   1   8
ATOM      8  C   LIG A   1     -10.105   6.239 130.786  0.00  0.00    +0.064 C 
ATOM      9  C   LIG A   1      -9.766   4.835 131.318  0.00  0.00    +0.041 C 
ATOM     10  C   LIG A   1      -8.798   7.040 130.684  0.00  0.00    +0.041 C 
BRANCH   8  11
ATOM     11  O   LIG A   1     -10.924   6.878 131.762  0.00  0.00    -0.389 OA
ATOM     12  H   LIG A   1     -11.802   6.461 131.749  0.00  0.00    +0.210 HD
ENDBRANCH   8  11
ENDBRANCH   1   8
TORSDOF 2
ENDMDL
MODEL 6
REMARK VINA RESULT:      -5.2     10.569     12.173
REMARK  Name = NuBBE_1752
REMARK  5 active torsions:
REMARK  status: ('A' for Active; 'I' for Inactive)
REMARK    1  A    between atoms: C_1  and  C_2
REMARK    2  A    between atoms: C_1  and  C_3
REMARK    3  A    between atoms: C_1  and  O_4
REMARK    4  A    between atoms: C_1  and  C_5
REMARK    5  A    between atoms: C_8  and  C_11
REMARK                            x       y       z     vdW  Elec       q    Type
REMARK                         _______ _______ _______ _____ _____    ______ ____
ROOT
ATOM      1  C   LIG A   1      -7.549  -3.259 124.151  0.00  0.00    +0.024 C 
ATOM      2  C   LIG A   1      -8.658  -2.580 123.320  0.00  0.00    +0.011 C 
ATOM      3  C   LIG A   1      -8.924  -1.129 123.726  0.00  0.00    +0.030 C 
ATOM      4  C   LIG A   1      -9.002  -0.937 125.218  0.00  0.00    -0.076 C 
ATOM      5  C   LIG A   1      -8.575  -1.881 126.074  0.00  0.00    -0.027 C 
ATOM      6  C   LIG A   1      -7.959  -3.183 125.643  0.00  0.00    +0.033 C 
ATOM      7  C   LIG A   1      -9.562   0.373 125.688  0.00  0.00    +0.038 C 
ENDROOT
BRANCH   1   8
ATOM      8  C   LIG A   1      -6.096  -2.752 123.853  0.00  0.00    +0.064 C 
ATOM      9  C   LIG A   1      -5.085  -3.912 123.897  0.00  0.00    +0.041 C 
ATOM     10  C   LIG A   1      -5.998  -2.083 122.473  0.00  0.00    +0.041 C 
BRANCH   8  11
ATOM     11  O   LIG A   1      -5.686  -1.792 124.824  0.00  0.00    -0.389 OA
ATOM     12  H   LIG A   1      -5.295  -1.032 124.361  0.00  0.00    +0.210 HD
ENDBRANCH   8  11
ENDBRANCH   1   8
TORSDOF 2
ENDMDL
MODEL 7
REMARK VINA RESULT:      -5.1     10.939     12.354
REMARK  Name = NuBBE_1752
REMARK  5 active torsions:
REMARK  status: ('A' for Active; 'I' for Inactive)
REMARK    1  A    between atoms: C_1  and  C_2
REMARK    2  A    between atoms: C_1  and  C_3
REMARK    3  A    between atoms: C_1  and  O_4
REMARK    4  A    between atoms: C_1  and  C_5
REMARK    5  A    between atoms: C_8  and  C_11
REMARK                            x       y       z     vdW  Elec       q    Type
REMARK                         _______ _______ _______ _____ _____    ______ ____
ROOT
ATOM      1  C   LIG A   1      -7.465  -2.188 123.303  0.00  0.00    +0.024 C 
ATOM      2  C   LIG A   1      -6.055  -2.604 123.771  0.00  0.00    +0.011 C 
ATOM      3  C   LIG A   1      -5.650  -1.990 125.112  0.00  0.00    +0.030 C 
ATOM      4  C   LIG A   1      -5.976  -0.522 125.213  0.00  0.00    -0.076 C 
ATOM      5  C   LIG A   1      -6.804   0.078 124.340  0.00  0.00    -0.027 C 
ATOM      6  C   LIG A   1      -7.501  -0.641 123.219  0.00  0.00    +0.033 C 
ATOM      7  C   LIG A   1      -5.340   0.220 126.352  0.00  0.00    +0.038 C 
ENDROOT
BRANCH   1   8
ATOM      8  C   LIG A   1      -8.646  -2.819 124.118  0.00  0.00    +0.064 C 
ATOM      9  C   LIG A   1      -9.755  -3.329 123.181  0.00  0.00    +0.041 C 
ATOM     10  C   LIG A   1      -8.173  -3.996 124.985  0.00  0.00    +0.041 C 
BRANCH   8  11
ATOM     11  O   LIG A   1      -9.232  -1.854 124.988  0.00  0.00    -0.389 OA
ATOM     12  H   LIG A   1      -9.432  -1.055 124.473  0.00  0.00    +0.210 HD
ENDBRANCH   8  11
ENDBRANCH   1   8
TORSDOF 2
ENDMDL
MODEL 8
REMARK VINA RESULT:      -5.1     10.849     12.814
REMARK  Name = NuBBE_1752
REMARK  5 active torsions:
REMARK  status: ('A' for Active; 'I' for Inactive)
REMARK    1  A    between atoms: C_1  and  C_2
REMARK    2  A    between atoms: C_1  and  C_3
REMARK    3  A    between atoms: C_1  and  O_4
REMARK    4  A    between atoms: C_1  and  C_5
REMARK    5  A    between atoms: C_8  and  C_11
REMARK                            x       y       z     vdW  Elec       q    Type
REMARK                         _______ _______ _______ _____ _____    ______ ____
ROOT
ATOM      1  C   LIG A   1      -7.959  -1.698 125.172  0.00  0.00    +0.024 C 
ATOM      2  C   LIG A   1      -6.524  -1.362 125.628  0.00  0.00    +0.011 C 
ATOM      3  C   LIG A   1      -5.443  -1.862 124.668  0.00  0.00    +0.030 C 
ATOM      4  C   LIG A   1      -5.676  -3.276 124.200  0.00  0.00    -0.076 C 
ATOM      5  C   LIG A   1      -6.860  -3.890 124.372  0.00  0.00    -0.027 C 
ATOM      6  C   LIG A   1      -8.056  -3.236 125.004  0.00  0.00    +0.033 C 
ATOM      7  C   LIG A   1      -4.520  -3.944 123.516  0.00  0.00    +0.038 C 
ENDROOT
BRANCH   1   8
ATOM      8  C   LIG A   1      -8.468  -0.879 123.936  0.00  0.00    +0.064 C 
ATOM      9  C   LIG A   1      -7.456   0.209 123.539  0.00  0.00    +0.041 C 
ATOM     10  C   LIG A   1      -8.705  -1.781 122.715  0.00  0.00    +0.041 C 
BRANCH   8  11
ATOM     11  O   LIG A   1      -9.701  -0.229 124.234  0.00  0.00    -0.389 OA
ATOM     12  H   LIG A   1     -10.170  -0.059 123.399  0.00  0.00    +0.210 HD
ENDBRANCH   8  11
ENDBRANCH   1   8
TORSDOF 2
ENDMDL
MODEL 9
REMARK VINA RESULT:      -4.9     10.513     11.949
REMARK  Name = NuBBE_1752
REMARK  5 active torsions:
REMARK  status: ('A' for Active; 'I' for Inactive)
REMARK    1  A    between atoms: C_1  and  C_2
REMARK    2  A    between atoms: C_1  and  C_3
REMARK    3  A    between atoms: C_1  and  O_4
REMARK    4  A    between atoms: C_1  and  C_5
REMARK    5  A    between atoms: C_8  and  C_11
REMARK                            x       y       z     vdW  Elec       q    Type
REMARK                         _______ _______ _______ _____ _____    ______ ____
ROOT
ATOM      1  C   LIG A   1      -7.647  -2.546 124.795  0.00  0.00    +0.024 C 
ATOM      2  C   LIG A   1      -8.425  -3.754 125.358  0.00  0.00    +0.011 C 
ATOM      3  C   LIG A   1      -8.957  -3.533 126.775  0.00  0.00    +0.030 C 
ATOM      4  C   LIG A   1      -7.941  -2.911 127.698  0.00  0.00    -0.076 C 
ATOM      5  C   LIG A   1      -6.817  -2.341 127.229  0.00  0.00    -0.027 C 
ATOM      6  C   LIG A   1      -6.480  -2.239 125.768  0.00  0.00    +0.033 C 
ATOM      7  C   LIG A   1      -8.269  -2.947 129.162  0.00  0.00    +0.038 C 
ENDROOT
BRANCH   1   8
ATOM      8  C   LIG A   1      -8.529  -1.303 124.430  0.00  0.00    +0.064 C 
ATOM      9  C   LIG A   1      -7.717  -0.000 124.529  0.00  0.00    +0.041 C 
ATOM     10  C   LIG A   1      -9.097  -1.408 123.007  0.00  0.00    +0.041 C 
BRANCH   8  11
ATOM     11  O   LIG A   1      -9.634  -1.187 125.324  0.00  0.00    -0.389 OA
ATOM     12  H   LIG A   1      -9.912  -0.256 125.351  0.00  0.00    +0.210 HD
ENDBRANCH   8  11
ENDBRANCH   1   8
TORSDOF 2
ENDMDL
