MODEL 1
REMARK VINA RESULT:      -7.4      0.000      0.000
REMARK  Name = NuBBE_1864
REMARK  10 active torsions:
REMARK  status: ('A' for Active; 'I' for Inactive)
REMARK    1  A    between atoms: C_1  and  O_2
REMARK    2  A    between atoms: O_2  and  C_3
REMARK    3  A    between atoms: C_4  and  C_5
REMARK    4  A    between atoms: C_7  and  O_8
REMARK    5  A    between atoms: C_9  and  O_10
REMARK    6  A    between atoms: O_10  and  C_11
REMARK    7  A    between atoms: C_13  and  O_14
REMARK    8  A    between atoms: C_18  and  O_19
REMARK    9  A    between atoms: C_21  and  O_22
REMARK   10  A    between atoms: O_22  and  C_23
REMARK                            x       y       z     vdW  Elec       q    Type
REMARK                         _______ _______ _______ _____ _____    ______ ____
ROOT
ATOM      1  C   LIG A   1      -9.002   4.647 130.768  0.00  0.00    +0.211 A 
ATOM      2  C   LIG A   1      -9.584   5.725 131.346  0.00  0.00    +0.184 A 
ATOM      3  O   LIG A   1      -9.340   6.152 132.641  0.00  0.00    -0.451 OA
ATOM      4  C   LIG A   1      -8.419   5.483 133.398  0.00  0.00    +0.146 A 
ATOM      5  C   LIG A   1      -7.721   4.375 132.944  0.00  0.00    +0.109 A 
ATOM      6  C   LIG A   1      -6.778   3.759 133.784  0.00  0.00    +0.135 A 
ATOM      7  C   LIG A   1      -6.543   4.254 135.066  0.00  0.00    +0.092 A 
ATOM      8  C   LIG A   1      -7.245   5.374 135.519  0.00  0.00    +0.127 A 
ATOM      9  C   LIG A   1      -8.186   5.979 134.681  0.00  0.00    +0.092 A 
ATOM     10  C   LIG A   1      -7.988   3.904 131.583  0.00  0.00    +0.238 A 
ATOM     11  O   LIG A   1      -7.343   2.935 131.167  0.00  0.00    -0.283 OA
ENDROOT
BRANCH   2  12
ATOM     12  C   LIG A   1     -10.535   6.621 130.645  0.00  0.00    +0.066 A 
ATOM     13  C   LIG A   1     -10.095   7.344 129.523  0.00  0.00    +0.064 A 
ATOM     14  C   LIG A   1     -10.915   8.310 128.911  0.00  0.00    +0.159 A 
ATOM     15  C   LIG A   1     -12.202   8.562 129.397  0.00  0.00    +0.165 A 
ATOM     16  C   LIG A   1     -12.660   7.806 130.483  0.00  0.00    +0.095 A 
ATOM     17  C   LIG A   1     -11.837   6.854 131.101  0.00  0.00    +0.131 A 
BRANCH  14  18
ATOM     18  O   LIG A   1     -10.418   8.999 127.840  0.00  0.00    -0.503 OA
ATOM     19  H   LIG A   1     -10.400   8.418 127.062  0.00  0.00    +0.292 HD
ENDBRANCH  14  18
BRANCH  15  20
ATOM     20  O   LIG A   1     -13.123   9.472 128.951  0.00  0.00    -0.491 OA
ATOM     21  C   LIG A   1     -13.385  10.619 129.748  0.00  0.00    +0.277 C 
ENDBRANCH  15  20
BRANCH  17  22
ATOM     22  O   LIG A   1     -12.317   6.153 132.174  0.00  0.00    -0.506 OA
ATOM     23  H   LIG A   1     -13.182   6.525 132.418  0.00  0.00    +0.292 HD
ENDBRANCH  17  22
ENDBRANCH   2  12
BRANCH   1  25
ATOM     24  C   LIG A   1      -8.198   4.410 128.538  0.00  0.00    +0.277 C 
ATOM     25  O   LIG A   1      -9.287   4.312 129.453  0.00  0.00    -0.488 OA
ENDBRANCH   1  25
BRANCH   6  26
ATOM     26  O   LIG A   1      -6.045   2.664 133.406  0.00  0.00    -0.506 OA
ATOM     27  H   LIG A   1      -6.528   2.210 132.681  0.00  0.00    +0.292 HD
ENDBRANCH   6  26
BRANCH   8  28
ATOM     28  O   LIG A   1      -6.936   5.794 136.785  0.00  0.00    -0.495 OA
ATOM     29  C   LIG A   1      -7.910   6.618 137.419  0.00  0.00    +0.277 C 
ENDBRANCH   8  28
TORSDOF 7
ENDMDL
MODEL 2
REMARK VINA RESULT:      -7.1      6.013     10.291
REMARK  Name = NuBBE_1864
REMARK  10 active torsions:
REMARK  status: ('A' for Active; 'I' for Inactive)
REMARK    1  A    between atoms: C_1  and  O_2
REMARK    2  A    between atoms: O_2  and  C_3
REMARK    3  A    between atoms: C_4  and  C_5
REMARK    4  A    between atoms: C_7  and  O_8
REMARK    5  A    between atoms: C_9  and  O_10
REMARK    6  A    between atoms: O_10  and  C_11
REMARK    7  A    between atoms: C_13  and  O_14
REMARK    8  A    between atoms: C_18  and  O_19
REMARK    9  A    between atoms: C_21  and  O_22
REMARK   10  A    between atoms: O_22  and  C_23
REMARK                            x       y       z     vdW  Elec       q    Type
REMARK                         _______ _______ _______ _____ _____    ______ ____
ROOT
ATOM      1  C   LIG A   1      -6.684   3.422 126.397  0.00  0.00    +0.211 A 
ATOM      2  C   LIG A   1      -5.545   4.046 126.011  0.00  0.00    +0.184 A 
ATOM      3  O   LIG A   1      -5.181   4.278 124.696  0.00  0.00    -0.451 OA
ATOM      4  C   LIG A   1      -6.031   3.898 123.694  0.00  0.00    +0.146 A 
ATOM      5  C   LIG A   1      -7.245   3.269 123.924  0.00  0.00    +0.109 A 
ATOM      6  C   LIG A   1      -8.065   2.929 122.836  0.00  0.00    +0.135 A 
ATOM      7  C   LIG A   1      -7.667   3.221 121.533  0.00  0.00    +0.092 A 
ATOM      8  C   LIG A   1      -6.445   3.859 121.304  0.00  0.00    +0.127 A 
ATOM      9  C   LIG A   1      -5.630   4.189 122.390  0.00  0.00    +0.092 A 
ATOM     10  C   LIG A   1      -7.628   3.001 125.313  0.00  0.00    +0.238 A 
ATOM     11  O   LIG A   1      -8.724   2.469 125.520  0.00  0.00    -0.283 OA
ENDROOT
BRANCH   2  12
ATOM     12  C   LIG A   1      -4.553   4.606 126.961  0.00  0.00    +0.066 A 
ATOM     13  C   LIG A   1      -4.708   5.928 127.414  0.00  0.00    +0.064 A 
ATOM     14  C   LIG A   1      -3.720   6.549 128.200  0.00  0.00    +0.159 A 
ATOM     15  C   LIG A   1      -2.563   5.856 128.567  0.00  0.00    +0.165 A 
ATOM     16  C   LIG A   1      -2.431   4.523 128.158  0.00  0.00    +0.095 A 
ATOM     17  C   LIG A   1      -3.408   3.910 127.363  0.00  0.00    +0.131 A 
BRANCH  14  18
ATOM     18  O   LIG A   1      -3.919   7.845 128.586  0.00  0.00    -0.503 OA
ATOM     19  H   LIG A   1      -4.665   8.220 128.092  0.00  0.00    +0.292 HD
ENDBRANCH  14  18
BRANCH  15  20
ATOM     20  O   LIG A   1      -1.494   6.301 129.299  0.00  0.00    -0.491 OA
ATOM     21  C   LIG A   1      -1.629   6.393 130.711  0.00  0.00    +0.277 C 
ENDBRANCH  15  20
BRANCH  17  22
ATOM     22  O   LIG A   1      -3.228   2.612 126.967  0.00  0.00    -0.506 OA
ATOM     23  H   LIG A   1      -3.968   2.365 126.387  0.00  0.00    +0.292 HD
ENDBRANCH  17  22
ENDBRANCH   2  12
BRANCH   1  25
ATOM     24  C   LIG A   1      -7.890   4.209 128.294  0.00  0.00    +0.277 C 
ATOM     25  O   LIG A   1      -6.979   3.261 127.742  0.00  0.00    -0.488 OA
ENDBRANCH   1  25
BRANCH   6  26
ATOM     26  O   LIG A   1      -9.280   2.312 122.982  0.00  0.00    -0.506 OA
ATOM     27  H   LIG A   1      -9.603   2.486 123.894  0.00  0.00    +0.292 HD
ENDBRANCH   6  26
BRANCH   8  28
ATOM     28  O   LIG A   1      -6.147   4.116 119.993  0.00  0.00    -0.495 OA
ATOM     29  C   LIG A   1      -5.356   5.275 119.752  0.00  0.00    +0.277 C 
ENDBRANCH   8  28
TORSDOF 7
ENDMDL
MODEL 3
REMARK VINA RESULT:      -7.0      6.804     10.933
REMARK  Name = NuBBE_1864
REMARK  10 active torsions:
REMARK  status: ('A' for Active; 'I' for Inactive)
REMARK    1  A    between atoms: C_1  and  O_2
REMARK    2  A    between atoms: O_2  and  C_3
REMARK    3  A    between atoms: C_4  and  C_5
REMARK    4  A    between atoms: C_7  and  O_8
REMARK    5  A    between atoms: C_9  and  O_10
REMARK    6  A    between atoms: O_10  and  C_11
REMARK    7  A    between atoms: C_13  and  O_14
REMARK    8  A    between atoms: C_18  and  O_19
REMARK    9  A    between atoms: C_21  and  O_22
REMARK   10  A    between atoms: O_22  and  C_23
REMARK                            x       y       z     vdW  Elec       q    Type
REMARK                         _______ _______ _______ _____ _____    ______ ____
ROOT
ATOM      1  C   LIG A   1      -7.441   2.741 124.977  0.00  0.00    +0.211 A 
ATOM      2  C   LIG A   1      -6.171   3.201 125.062  0.00  0.00    +0.184 A 
ATOM      3  O   LIG A   1      -5.443   3.704 123.997  0.00  0.00    -0.451 OA
ATOM      4  C   LIG A   1      -6.038   3.794 122.769  0.00  0.00    +0.146 A 
ATOM      5  C   LIG A   1      -7.339   3.386 122.523  0.00  0.00    +0.109 A 
ATOM      6  C   LIG A   1      -7.878   3.531 121.233  0.00  0.00    +0.135 A 
ATOM      7  C   LIG A   1      -7.113   4.081 120.206  0.00  0.00    +0.092 A 
ATOM      8  C   LIG A   1      -5.802   4.495 120.458  0.00  0.00    +0.127 A 
ATOM      9  C   LIG A   1      -5.270   4.342 121.742  0.00  0.00    +0.092 A 
ATOM     10  C   LIG A   1      -8.109   2.833 123.639  0.00  0.00    +0.238 A 
ATOM     11  O   LIG A   1      -9.280   2.499 123.427  0.00  0.00    -0.283 OA
ENDROOT
BRANCH   2  12
ATOM     12  C   LIG A   1      -5.403   3.267 126.329  0.00  0.00    +0.066 A 
ATOM     13  C   LIG A   1      -5.020   2.071 126.962  0.00  0.00    +0.064 A 
ATOM     14  C   LIG A   1      -4.417   2.080 128.233  0.00  0.00    +0.159 A 
ATOM     15  C   LIG A   1      -4.166   3.287 128.893  0.00  0.00    +0.165 A 
ATOM     16  C   LIG A   1      -4.501   4.481 128.241  0.00  0.00    +0.095 A 
ATOM     17  C   LIG A   1      -5.115   4.470 126.982  0.00  0.00    +0.131 A 
BRANCH  14  18
ATOM     18  O   LIG A   1      -4.093   0.882 128.806  0.00  0.00    -0.503 OA
ATOM     19  H   LIG A   1      -3.783   1.031 129.714  0.00  0.00    +0.292 HD
ENDBRANCH  14  18
BRANCH  15  20
ATOM     20  O   LIG A   1      -3.616   3.488 130.130  0.00  0.00    -0.491 OA
ATOM     21  C   LIG A   1      -3.091   4.772 130.440  0.00  0.00    +0.277 C 
ENDBRANCH  15  20
BRANCH  17  22
ATOM     22  O   LIG A   1      -5.446   5.660 126.391  0.00  0.00    -0.506 OA
ATOM     23  H   LIG A   1      -5.397   5.545 125.427  0.00  0.00    +0.292 HD
ENDBRANCH  17  22
ENDBRANCH   2  12
BRANCH   1  25
ATOM     24  C   LIG A   1      -8.410   0.889 126.121  0.00  0.00    +0.277 C 
ATOM     25  O   LIG A   1      -8.102   2.281 126.106  0.00  0.00    -0.488 OA
ENDBRANCH   1  25
BRANCH   6  26
ATOM     26  O   LIG A   1      -9.157   3.157 120.913  0.00  0.00    -0.506 OA
ATOM     27  H   LIG A   1      -9.574   2.779 121.717  0.00  0.00    +0.292 HD
ENDBRANCH   6  26
BRANCH   8  28
ATOM     28  O   LIG A   1      -5.136   5.034 119.391  0.00  0.00    -0.495 OA
ATOM     29  C   LIG A   1      -5.925   5.812 118.496  0.00  0.00    +0.277 C 
ENDBRANCH   8  28
TORSDOF 7
ENDMDL
MODEL 4
REMARK VINA RESULT:      -6.9      2.929      7.301
REMARK  Name = NuBBE_1864
REMARK  10 active torsions:
REMARK  status: ('A' for Active; 'I' for Inactive)
REMARK    1  A    between atoms: C_1  and  O_2
REMARK    2  A    between atoms: O_2  and  C_3
REMARK    3  A    between atoms: C_4  and  C_5
REMARK    4  A    between atoms: C_7  and  O_8
REMARK    5  A    between atoms: C_9  and  O_10
REMARK    6  A    between atoms: O_10  and  C_11
REMARK    7  A    between atoms: C_13  and  O_14
REMARK    8  A    between atoms: C_18  and  O_19
REMARK    9  A    between atoms: C_21  and  O_22
REMARK   10  A    between atoms: O_22  and  C_23
REMARK                            x       y       z     vdW  Elec       q    Type
REMARK                         _______ _______ _______ _____ _____    ______ ____
ROOT
ATOM      1  C   LIG A   1      -8.526   3.980 130.216  0.00  0.00    +0.211 A 
ATOM      2  C   LIG A   1      -8.182   4.513 129.020  0.00  0.00    +0.184 A 
ATOM      3  O   LIG A   1      -8.853   5.552 128.398  0.00  0.00    -0.451 OA
ATOM      4  C   LIG A   1      -9.918   6.129 129.034  0.00  0.00    +0.146 A 
ATOM      5  C   LIG A   1     -10.380   5.714 130.273  0.00  0.00    +0.109 A 
ATOM      6  C   LIG A   1     -11.470   6.377 130.862  0.00  0.00    +0.135 A 
ATOM      7  C   LIG A   1     -12.085   7.444 130.209  0.00  0.00    +0.092 A 
ATOM      8  C   LIG A   1     -11.614   7.863 128.962  0.00  0.00    +0.127 A 
ATOM      9  C   LIG A   1     -10.533   7.196 128.378  0.00  0.00    +0.092 A 
ATOM     10  C   LIG A   1      -9.688   4.602 130.928  0.00  0.00    +0.238 A 
ATOM     11  O   LIG A   1     -10.081   4.252 132.046  0.00  0.00    -0.283 OA
ENDROOT
BRANCH   2  12
ATOM     12  C   LIG A   1      -7.003   4.075 128.234  0.00  0.00    +0.066 A 
ATOM     13  C   LIG A   1      -7.152   3.047 127.287  0.00  0.00    +0.064 A 
ATOM     14  C   LIG A   1      -6.039   2.503 126.621  0.00  0.00    +0.159 A 
ATOM     15  C   LIG A   1      -4.752   2.987 126.872  0.00  0.00    +0.165 A 
ATOM     16  C   LIG A   1      -4.608   4.046 127.778  0.00  0.00    +0.095 A 
ATOM     17  C   LIG A   1      -5.715   4.577 128.452  0.00  0.00    +0.131 A 
BRANCH  14  18
ATOM     18  O   LIG A   1      -6.249   1.486 125.731  0.00  0.00    -0.503 OA
ATOM     19  H   LIG A   1      -7.090   1.045 125.935  0.00  0.00    +0.292 HD
ENDBRANCH  14  18
BRANCH  15  20
ATOM     20  O   LIG A   1      -3.561   2.568 126.343  0.00  0.00    -0.491 OA
ATOM     21  C   LIG A   1      -2.361   3.171 126.808  0.00  0.00    +0.277 C 
ENDBRANCH  15  20
BRANCH  17  22
ATOM     22  O   LIG A   1      -5.525   5.597 129.346  0.00  0.00    -0.506 OA
ATOM     23  H   LIG A   1      -6.391   5.990 129.547  0.00  0.00    +0.292 HD
ENDBRANCH  17  22
ENDBRANCH   2  12
BRANCH   1  25
ATOM     24  C   LIG A   1      -8.298   1.642 130.611  0.00  0.00    +0.277 C 
ATOM     25  O   LIG A   1      -7.774   2.958 130.775  0.00  0.00    -0.488 OA
ENDBRANCH   1  25
BRANCH   6  26
ATOM     26  O   LIG A   1     -11.981   6.029 132.085  0.00  0.00    -0.506 OA
ATOM     27  H   LIG A   1     -11.286   6.183 132.761  0.00  0.00    +0.292 HD
ENDBRANCH   6  26
BRANCH   8  28
ATOM     28  O   LIG A   1     -12.273   8.926 128.406  0.00  0.00    -0.495 OA
ATOM     29  C   LIG A   1     -13.042   9.718 129.307  0.00  0.00    +0.277 C 
ENDBRANCH   8  28
TORSDOF 7
ENDMDL
MODEL 5
REMARK VINA RESULT:      -6.9      2.593      2.957
REMARK  Name = NuBBE_1864
REMARK  10 active torsions:
REMARK  status: ('A' for Active; 'I' for Inactive)
REMARK    1  A    between atoms: C_1  and  O_2
REMARK    2  A    between atoms: O_2  and  C_3
REMARK    3  A    between atoms: C_4  and  C_5
REMARK    4  A    between atoms: C_7  and  O_8
REMARK    5  A    between atoms: C_9  and  O_10
REMARK    6  A    between atoms: O_10  and  C_11
REMARK    7  A    between atoms: C_13  and  O_14
REMARK    8  A    between atoms: C_18  and  O_19
REMARK    9  A    between atoms: C_21  and  O_22
REMARK   10  A    between atoms: O_22  and  C_23
REMARK                            x       y       z     vdW  Elec       q    Type
REMARK                         _______ _______ _______ _____ _____    ______ ____
ROOT
ATOM      1  C   LIG A   1      -8.890   4.896 131.347  0.00  0.00    +0.211 A 
ATOM      2  C   LIG A   1      -8.889   6.158 130.857  0.00  0.00    +0.184 A 
ATOM      3  O   LIG A   1      -7.766   6.963 130.757  0.00  0.00    -0.451 OA
ATOM      4  C   LIG A   1      -6.552   6.459 131.134  0.00  0.00    +0.146 A 
ATOM      5  C   LIG A   1      -6.382   5.178 131.634  0.00  0.00    +0.109 A 
ATOM      6  C   LIG A   1      -5.095   4.735 131.979  0.00  0.00    +0.135 A 
ATOM      7  C   LIG A   1      -3.993   5.575 131.822  0.00  0.00    +0.092 A 
ATOM      8  C   LIG A   1      -4.166   6.864 131.314  0.00  0.00    +0.127 A 
ATOM      9  C   LIG A   1      -5.451   7.302 130.978  0.00  0.00    +0.092 A 
ATOM     10  C   LIG A   1      -7.568   4.327 131.762  0.00  0.00    +0.238 A 
ATOM     11  O   LIG A   1      -7.412   3.173 132.178  0.00  0.00    -0.283 OA
ENDROOT
BRANCH   2  12
ATOM     12  C   LIG A   1     -10.095   6.832 130.317  0.00  0.00    +0.066 A 
ATOM     13  C   LIG A   1     -10.031   7.445 129.054  0.00  0.00    +0.064 A 
ATOM     14  C   LIG A   1     -11.100   8.215 128.563  0.00  0.00    +0.159 A 
ATOM     15  C   LIG A   1     -12.267   8.376 129.316  0.00  0.00    +0.165 A 
ATOM     16  C   LIG A   1     -12.352   7.723 130.553  0.00  0.00    +0.095 A 
ATOM     17  C   LIG A   1     -11.280   6.968 131.048  0.00  0.00    +0.131 A 
BRANCH  14  18
ATOM     18  O   LIG A   1     -10.965   8.808 127.338  0.00  0.00    -0.503 OA
ATOM     19  H   LIG A   1     -11.814   8.775 126.867  0.00  0.00    +0.292 HD
ENDBRANCH  14  18
BRANCH  15  20
ATOM     20  O   LIG A   1     -13.388   9.101 129.015  0.00  0.00    -0.491 OA
ATOM     21  C   LIG A   1     -13.458  10.454 129.445  0.00  0.00    +0.277 C 
ENDBRANCH  15  20
BRANCH  17  22
ATOM     22  O   LIG A   1     -11.398   6.366 132.272  0.00  0.00    -0.506 OA
ATOM     23  H   LIG A   1     -11.216   5.418 132.163  0.00  0.00    +0.292 HD
ENDBRANCH  17  22
ENDBRANCH   2  12
BRANCH   1  25
ATOM     24  C   LIG A   1     -10.236   3.224 130.313  0.00  0.00    +0.277 C 
ATOM     25  O   LIG A   1     -10.061   4.153 131.380  0.00  0.00    -0.488 OA
ENDBRANCH   1  25
BRANCH   6  26
ATOM     26  O   LIG A   1      -4.845   3.482 132.474  0.00  0.00    -0.506 OA
ATOM     27  H   LIG A   1      -5.343   2.834 131.930  0.00  0.00    +0.292 HD
ENDBRANCH   6  26
BRANCH   8  28
ATOM     28  O   LIG A   1      -3.025   7.608 131.183  0.00  0.00    -0.495 OA
ATOM     29  C   LIG A   1      -2.507   8.166 132.387  0.00  0.00    +0.277 C 
ENDBRANCH   8  28
TORSDOF 7
ENDMDL
MODEL 6
REMARK VINA RESULT:      -6.8      7.485      9.838
REMARK  Name = NuBBE_1864
REMARK  10 active torsions:
REMARK  status: ('A' for Active; 'I' for Inactive)
REMARK    1  A    between atoms: C_1  and  O_2
REMARK    2  A    between atoms: O_2  and  C_3
REMARK    3  A    between atoms: C_4  and  C_5
REMARK    4  A    between atoms: C_7  and  O_8
REMARK    5  A    between atoms: C_9  and  O_10
REMARK    6  A    between atoms: O_10  and  C_11
REMARK    7  A    between atoms: C_13  and  O_14
REMARK    8  A    between atoms: C_18  and  O_19
REMARK    9  A    between atoms: C_21  and  O_22
REMARK   10  A    between atoms: O_22  and  C_23
REMARK                            x       y       z     vdW  Elec       q    Type
REMARK                         _______ _______ _______ _____ _____    ______ ____
ROOT
ATOM      1  C   LIG A   1      -6.941   2.647 124.440  0.00  0.00    +0.211 A 
ATOM      2  C   LIG A   1      -6.231   2.309 125.542  0.00  0.00    +0.184 A 
ATOM      3  O   LIG A   1      -6.387   1.128 126.247  0.00  0.00    -0.451 OA
ATOM      4  C   LIG A   1      -7.285   0.200 125.798  0.00  0.00    +0.146 A 
ATOM      5  C   LIG A   1      -8.072   0.386 124.672  0.00  0.00    +0.109 A 
ATOM      6  C   LIG A   1      -8.957  -0.629 124.272  0.00  0.00    +0.135 A 
ATOM      7  C   LIG A   1      -9.046  -1.816 124.997  0.00  0.00    +0.092 A 
ATOM      8  C   LIG A   1      -8.249  -2.003 126.129  0.00  0.00    +0.127 A 
ATOM      9  C   LIG A   1      -7.374  -0.986 126.527  0.00  0.00    +0.092 A 
ATOM     10  C   LIG A   1      -7.928   1.642 123.932  0.00  0.00    +0.238 A 
ATOM     11  O   LIG A   1      -8.607   1.794 122.911  0.00  0.00    -0.283 OA
ENDROOT
BRANCH   2  12
ATOM     12  C   LIG A   1      -5.152   3.150 126.115  0.00  0.00    +0.066 A 
ATOM     13  C   LIG A   1      -3.854   2.621 126.224  0.00  0.00    +0.064 A 
ATOM     14  C   LIG A   1      -2.834   3.325 126.888  0.00  0.00    +0.159 A 
ATOM     15  C   LIG A   1      -3.082   4.584 127.443  0.00  0.00    +0.165 A 
ATOM     16  C   LIG A   1      -4.361   5.134 127.291  0.00  0.00    +0.095 A 
ATOM     17  C   LIG A   1      -5.381   4.426 126.642  0.00  0.00    +0.131 A 
BRANCH  14  18
ATOM     18  O   LIG A   1      -1.600   2.744 126.983  0.00  0.00    -0.503 OA
ATOM     19  H   LIG A   1      -1.669   1.917 127.488  0.00  0.00    +0.292 HD
ENDBRANCH  14  18
BRANCH  15  20
ATOM     20  O   LIG A   1      -2.229   5.397 128.139  0.00  0.00    -0.491 OA
ATOM     21  C   LIG A   1      -2.512   6.789 128.197  0.00  0.00    +0.277 C 
ENDBRANCH  15  20
BRANCH  17  22
ATOM     22  O   LIG A   1      -6.623   4.992 126.536  0.00  0.00    -0.506 OA
ATOM     23  H   LIG A   1      -6.588   5.675 125.845  0.00  0.00    +0.292 HD
ENDBRANCH  17  22
ENDBRANCH   2  12
BRANCH   1  25
ATOM     24  C   LIG A   1      -5.860   3.753 122.628  0.00  0.00    +0.277 C 
ATOM     25  O   LIG A   1      -6.694   3.842 123.781  0.00  0.00    -0.488 OA
ENDBRANCH   1  25
BRANCH   6  26
ATOM     26  O   LIG A   1      -9.763  -0.523 123.168  0.00  0.00    -0.506 OA
ATOM     27  H   LIG A   1     -10.480  -1.189 123.249  0.00  0.00    +0.292 HD
ENDBRANCH   6  26
BRANCH   8  28
ATOM     28  O   LIG A   1      -8.397  -3.205 126.767  0.00  0.00    -0.495 OA
ATOM     29  C   LIG A   1      -8.291  -3.170 128.187  0.00  0.00    +0.277 C 
ENDBRANCH   8  28
TORSDOF 7
ENDMDL
MODEL 7
REMARK VINA RESULT:      -6.7      1.640      2.355
REMARK  Name = NuBBE_1864
REMARK  10 active torsions:
REMARK  status: ('A' for Active; 'I' for Inactive)
REMARK    1  A    between atoms: C_1  and  O_2
REMARK    2  A    between atoms: O_2  and  C_3
REMARK    3  A    between atoms: C_4  and  C_5
REMARK    4  A    between atoms: C_7  and  O_8
REMARK    5  A    between atoms: C_9  and  O_10
REMARK    6  A    between atoms: O_10  and  C_11
REMARK    7  A    between atoms: C_13  and  O_14
REMARK    8  A    between atoms: C_18  and  O_19
REMARK    9  A    between atoms: C_21  and  O_22
REMARK   10  A    between atoms: O_22  and  C_23
REMARK                            x       y       z     vdW  Elec       q    Type
REMARK                         _______ _______ _______ _____ _____    ______ ____
ROOT
ATOM      1  C   LIG A   1      -9.148   3.827 132.146  0.00  0.00    +0.211 A 
ATOM      2  C   LIG A   1      -9.127   5.164 132.355  0.00  0.00    +0.184 A 
ATOM      3  O   LIG A   1      -8.312   5.806 133.272  0.00  0.00    -0.451 OA
ATOM      4  C   LIG A   1      -7.424   5.066 134.003  0.00  0.00    +0.146 A 
ATOM      5  C   LIG A   1      -7.306   3.689 133.890  0.00  0.00    +0.109 A 
ATOM      6  C   LIG A   1      -6.354   3.010 134.668  0.00  0.00    +0.135 A 
ATOM      7  C   LIG A   1      -5.531   3.710 135.548  0.00  0.00    +0.092 A 
ATOM      8  C   LIG A   1      -5.649   5.098 135.657  0.00  0.00    +0.127 A 
ATOM      9  C   LIG A   1      -6.603   5.768 134.885  0.00  0.00    +0.092 A 
ATOM     10  C   LIG A   1      -8.180   3.001 132.937  0.00  0.00    +0.238 A 
ATOM     11  O   LIG A   1      -8.054   1.777 132.813  0.00  0.00    -0.283 OA
ENDROOT
BRANCH   2  12
ATOM     12  C   LIG A   1      -9.953   6.129 131.589  0.00  0.00    +0.066 A 
ATOM     13  C   LIG A   1     -11.296   6.324 131.954  0.00  0.00    +0.064 A 
ATOM     14  C   LIG A   1     -12.156   7.119 131.174  0.00  0.00    +0.159 A 
ATOM     15  C   LIG A   1     -11.687   7.752 130.019  0.00  0.00    +0.165 A 
ATOM     16  C   LIG A   1     -10.336   7.599 129.682  0.00  0.00    +0.095 A 
ATOM     17  C   LIG A   1      -9.484   6.796 130.451  0.00  0.00    +0.131 A 
BRANCH  14  18
ATOM     18  O   LIG A   1     -13.458   7.247 131.570  0.00  0.00    -0.503 OA
ATOM     19  H   LIG A   1     -13.593   8.126 131.960  0.00  0.00    +0.292 HD
ENDBRANCH  14  18
BRANCH  15  20
ATOM     20  O   LIG A   1     -12.376   8.535 129.132  0.00  0.00    -0.491 OA
ATOM     21  C   LIG A   1     -13.156   7.898 128.129  0.00  0.00    +0.277 C 
ENDBRANCH  15  20
BRANCH  17  22
ATOM     22  O   LIG A   1      -8.176   6.657 130.072  0.00  0.00    -0.506 OA
ATOM     23  H   LIG A   1      -8.144   6.064 129.302  0.00  0.00    +0.292 HD
ENDBRANCH  17  22
ENDBRANCH   2  12
BRANCH   1  25
ATOM     24  C   LIG A   1      -9.365   2.980 129.930  0.00  0.00    +0.277 C 
ATOM     25  O   LIG A   1      -9.979   3.276 131.182  0.00  0.00    -0.488 OA
ENDBRANCH   1  25
BRANCH   6  26
ATOM     26  O   LIG A   1      -6.174   1.653 134.608  0.00  0.00    -0.506 OA
ATOM     27  H   LIG A   1      -6.195   1.383 133.664  0.00  0.00    +0.292 HD
ENDBRANCH   6  26
BRANCH   8  28
ATOM     28  O   LIG A   1      -4.789   5.698 136.536  0.00  0.00    -0.495 OA
ATOM     29  C   LIG A   1      -4.645   7.109 136.398  0.00  0.00    +0.277 C 
ENDBRANCH   8  28
TORSDOF 7
ENDMDL
MODEL 8
REMARK VINA RESULT:      -6.7      3.759      7.499
REMARK  Name = NuBBE_1864
REMARK  10 active torsions:
REMARK  status: ('A' for Active; 'I' for Inactive)
REMARK    1  A    between atoms: C_1  and  O_2
REMARK    2  A    between atoms: O_2  and  C_3
REMARK    3  A    between atoms: C_4  and  C_5
REMARK    4  A    between atoms: C_7  and  O_8
REMARK    5  A    between atoms: C_9  and  O_10
REMARK    6  A    between atoms: O_10  and  C_11
REMARK    7  A    between atoms: C_13  and  O_14
REMARK    8  A    between atoms: C_18  and  O_19
REMARK    9  A    between atoms: C_21  and  O_22
REMARK   10  A    between atoms: O_22  and  C_23
REMARK                            x       y       z     vdW  Elec       q    Type
REMARK                         _______ _______ _______ _____ _____    ______ ____
ROOT
ATOM      1  C   LIG A   1      -6.991   3.285 128.769  0.00  0.00    +0.211 A 
ATOM      2  C   LIG A   1      -8.105   2.516 128.782  0.00  0.00    +0.184 A 
ATOM      3  O   LIG A   1      -9.308   2.882 129.362  0.00  0.00    -0.451 OA
ATOM      4  C   LIG A   1      -9.421   4.120 129.932  0.00  0.00    +0.146 A 
ATOM      5  C   LIG A   1      -8.379   5.033 129.980  0.00  0.00    +0.109 A 
ATOM      6  C   LIG A   1      -8.588   6.291 130.570  0.00  0.00    +0.135 A 
ATOM      7  C   LIG A   1      -9.832   6.623 131.104  0.00  0.00    +0.092 A 
ATOM      8  C   LIG A   1     -10.882   5.702 131.051  0.00  0.00    +0.127 A 
ATOM      9  C   LIG A   1     -10.666   4.450 130.468  0.00  0.00    +0.092 A 
ATOM     10  C   LIG A   1      -7.097   4.645 129.388  0.00  0.00    +0.238 A 
ATOM     11  O   LIG A   1      -6.177   5.471 129.402  0.00  0.00    -0.283 OA
ENDROOT
BRANCH   2  12
ATOM     12  C   LIG A   1      -8.194   1.186 128.132  0.00  0.00    +0.066 A 
ATOM     13  C   LIG A   1      -7.718   0.055 128.817  0.00  0.00    +0.064 A 
ATOM     14  C   LIG A   1      -7.651  -1.203 128.189  0.00  0.00    +0.159 A 
ATOM     15  C   LIG A   1      -8.075  -1.361 126.866  0.00  0.00    +0.165 A 
ATOM     16  C   LIG A   1      -8.596  -0.245 126.199  0.00  0.00    +0.095 A 
ATOM     17  C   LIG A   1      -8.650   1.010 126.821  0.00  0.00    +0.131 A 
BRANCH  14  18
ATOM     18  O   LIG A   1      -7.153  -2.258 128.901  0.00  0.00    -0.503 OA
ATOM     19  H   LIG A   1      -7.295  -2.104 129.849  0.00  0.00    +0.292 HD
ENDBRANCH  14  18
BRANCH  15  20
ATOM     20  O   LIG A   1      -8.060  -2.490 126.091  0.00  0.00    -0.491 OA
ATOM     21  C   LIG A   1      -8.961  -2.572 124.995  0.00  0.00    +0.277 C 
ENDBRANCH  15  20
BRANCH  17  22
ATOM     22  O   LIG A   1      -9.146   2.079 126.124  0.00  0.00    -0.506 OA
ATOM     23  H   LIG A   1     -10.105   2.122 126.276  0.00  0.00    +0.292 HD
ENDBRANCH  17  22
ENDBRANCH   2  12
BRANCH   1  25
ATOM     24  C   LIG A   1      -5.622   3.349 126.821  0.00  0.00    +0.277 C 
ATOM     25  O   LIG A   1      -5.838   2.845 128.137  0.00  0.00    -0.488 OA
ENDBRANCH   1  25
BRANCH   6  26
ATOM     26  O   LIG A   1      -7.611   7.248 130.651  0.00  0.00    -0.506 OA
ATOM     27  H   LIG A   1      -6.840   6.858 131.118  0.00  0.00    +0.292 HD
ENDBRANCH   6  26
BRANCH   8  28
ATOM     28  O   LIG A   1     -12.068   6.124 131.588  0.00  0.00    -0.495 OA
ATOM     29  C   LIG A   1     -12.719   7.185 130.897  0.00  0.00    +0.277 C 
ENDBRANCH   8  28
TORSDOF 7
ENDMDL
MODEL 9
REMARK VINA RESULT:      -6.5      3.175      6.243
REMARK  Name = NuBBE_1864
REMARK  10 active torsions:
REMARK  status: ('A' for Active; 'I' for Inactive)
REMARK    1  A    between atoms: C_1  and  O_2
REMARK    2  A    between atoms: O_2  and  C_3
REMARK    3  A    between atoms: C_4  and  C_5
REMARK    4  A    between atoms: C_7  and  O_8
REMARK    5  A    between atoms: C_9  and  O_10
REMARK    6  A    between atoms: O_10  and  C_11
REMARK    7  A    between atoms: C_13  and  O_14
REMARK    8  A    between atoms: C_18  and  O_19
REMARK    9  A    between atoms: C_21  and  O_22
REMARK   10  A    between atoms: O_22  and  C_23
REMARK                            x       y       z     vdW  Elec       q    Type
REMARK                         _______ _______ _______ _____ _____    ______ ____
ROOT
ATOM      1  C   LIG A   1      -6.698   4.150 129.320  0.00  0.00    +0.211 A 
ATOM      2  C   LIG A   1      -7.719   4.098 128.433  0.00  0.00    +0.184 A 
ATOM      3  O   LIG A   1      -9.019   4.490 128.705  0.00  0.00    -0.451 OA
ATOM      4  C   LIG A   1      -9.312   5.010 129.935  0.00  0.00    +0.146 A 
ATOM      5  C   LIG A   1      -8.373   5.151 130.945  0.00  0.00    +0.109 A 
ATOM      6  C   LIG A   1      -8.758   5.713 132.174  0.00  0.00    +0.135 A 
ATOM      7  C   LIG A   1     -10.073   6.127 132.380  0.00  0.00    +0.092 A 
ATOM      8  C   LIG A   1     -11.016   5.989 131.359  0.00  0.00    +0.127 A 
ATOM      9  C   LIG A   1     -10.629   5.423 130.140  0.00  0.00    +0.092 A 
ATOM     10  C   LIG A   1      -7.001   4.719 130.672  0.00  0.00    +0.238 A 
ATOM     11  O   LIG A   1      -6.156   4.874 131.562  0.00  0.00    -0.283 OA
ENDROOT
BRANCH   2  12
ATOM     12  C   LIG A   1      -7.565   3.650 127.027  0.00  0.00    +0.066 A 
ATOM     13  C   LIG A   1      -6.826   4.443 126.132  0.00  0.00    +0.064 A 
ATOM     14  C   LIG A   1      -6.771   4.134 124.761  0.00  0.00    +0.159 A 
ATOM     15  C   LIG A   1      -7.439   3.015 124.255  0.00  0.00    +0.165 A 
ATOM     16  C   LIG A   1      -8.134   2.196 125.155  0.00  0.00    +0.095 A 
ATOM     17  C   LIG A   1      -8.200   2.512 126.518  0.00  0.00    +0.131 A 
BRANCH  14  18
ATOM     18  O   LIG A   1      -6.056   4.960 123.938  0.00  0.00    -0.503 OA
ATOM     19  H   LIG A   1      -6.363   4.851 123.024  0.00  0.00    +0.292 HD
ENDBRANCH  14  18
BRANCH  15  20
ATOM     20  O   LIG A   1      -7.518   2.577 122.961  0.00  0.00    -0.491 OA
ATOM     21  C   LIG A   1      -8.549   3.093 122.130  0.00  0.00    +0.277 C 
ENDBRANCH  15  20
BRANCH  17  22
ATOM     22  O   LIG A   1      -8.910   1.696 127.358  0.00  0.00    -0.506 OA
ATOM     23  H   LIG A   1      -8.656   1.906 128.272  0.00  0.00    +0.292 HD
ENDBRANCH  17  22
ENDBRANCH   2  12
BRANCH   1  25
ATOM     24  C   LIG A   1      -5.041   2.437 129.317  0.00  0.00    +0.277 C 
ATOM     25  O   LIG A   1      -5.420   3.762 128.948  0.00  0.00    -0.488 OA
ENDBRANCH   1  25
BRANCH   6  26
ATOM     26  O   LIG A   1      -7.888   5.890 133.217  0.00  0.00    -0.506 OA
ATOM     27  H   LIG A   1      -7.494   6.786 133.137  0.00  0.00    +0.292 HD
ENDBRANCH   6  26
BRANCH   8  28
ATOM     28  O   LIG A   1     -12.276   6.436 131.651  0.00  0.00    -0.495 OA
ATOM     29  C   LIG A   1     -12.895   7.240 130.652  0.00  0.00    +0.277 C 
ENDBRANCH   8  28
TORSDOF 7
ENDMDL
