MODEL 1
REMARK VINA RESULT:      -8.0      0.000      0.000
REMARK  Name = NuBBE_2076
REMARK  6 active torsions:
REMARK  status: ('A' for Active; 'I' for Inactive)
REMARK    1  A    between atoms: C_3  and  C_4
REMARK    2  A    between atoms: C_5  and  O_6
REMARK    3  A    between atoms: O_6  and  C_7
REMARK    4  A    between atoms: C_17  and  O_19
REMARK    5  A    between atoms: O_19  and  C_20
REMARK    6  A    between atoms: C_20  and  C_21
REMARK                            x       y       z     vdW  Elec       q    Type
REMARK                         _______ _______ _______ _____ _____    ______ ____
ROOT
ATOM      1  O   LIG A   1      -9.979  -2.741 125.756  0.00  0.00    -0.250 OA
ATOM      2  C   LIG A   1      -9.159  -1.919 125.412  0.00  0.00    +0.319 C 
ATOM      3  C   LIG A   1      -7.763  -1.685 125.935  0.00  0.00    +0.125 C 
ATOM      4  C   LIG A   1      -6.920  -2.487 124.888  0.00  0.00    +0.029 C 
ATOM      5  C   LIG A   1      -7.195  -1.810 127.387  0.00  0.00    +0.185 C 
ATOM      6  C   LIG A   1      -7.505  -0.600 128.357  0.00  0.00    +0.067 C 
ATOM      7  C   LIG A   1      -6.929   0.746 127.782  0.00  0.00    +0.015 C 
ATOM      8  C   LIG A   1      -6.555   0.481 126.296  0.00  0.00    +0.005 C 
ATOM      9  C   LIG A   1      -5.377  -0.544 126.462  0.00  0.00    +0.170 C 
ATOM     10  O   LIG A   1      -5.749  -1.701 127.239  0.00  0.00    -0.347 OA
ATOM     11  C   LIG A   1      -6.082   1.642 125.381  0.00  0.00    +0.005 C 
ATOM     12  C   LIG A   1      -5.604   2.876 126.154  0.00  0.00    +0.005 C 
ATOM     13  C   LIG A   1      -4.995   3.916 125.218  0.00  0.00    +0.004 C 
ATOM     14  C   LIG A   1      -5.945   4.299 124.087  0.00  0.00    +0.045 C 
ATOM     15  C   LIG A   1      -6.436   3.072 123.302  0.00  0.00    +0.180 C 
ATOM     16  C   LIG A   1      -7.089   2.053 124.263  0.00  0.00    +0.037 C 
ATOM     17  C   LIG A   1      -7.673   0.805 123.531  0.00  0.00    +0.052 C 
ATOM     18  C   LIG A   1      -8.580   0.126 124.537  0.00  0.00    +0.182 C 
ATOM     19  O   LIG A   1      -9.282  -1.092 124.273  0.00  0.00    -0.461 OA
ATOM     20  C   LIG A   1      -7.843  -0.181 125.793  0.00  0.00    +0.060 C 
ENDROOT
BRANCH   5  21
ATOM     21  O   LIG A   1      -7.559  -3.075 127.920  0.00  0.00    -0.351 OA
ATOM     22  C   LIG A   1      -8.226  -3.036 129.174  0.00  0.00    +0.197 C 
ENDBRANCH   5  21
BRANCH  15  23
ATOM     23  O   LIG A   1      -7.417   3.465 122.322  0.00  0.00    -0.461 OA
BRANCH  23  24
ATOM     24  C   LIG A   1      -6.949   3.631 121.052  0.00  0.00    +0.304 C 
ATOM     25  C   LIG A   1      -5.528   3.165 120.954  0.00  0.00    +0.136 C 
ATOM     26  O   LIG A   1      -7.560   4.161 120.134  0.00  0.00    -0.251 OA
ENDBRANCH  23  24
ENDBRANCH  15  23
TORSDOF 3
ENDMDL
MODEL 2
REMARK VINA RESULT:      -7.7      1.913      6.914
REMARK  Name = NuBBE_2076
REMARK  6 active torsions:
REMARK  status: ('A' for Active; 'I' for Inactive)
REMARK    1  A    between atoms: C_3  and  C_4
REMARK    2  A    between atoms: C_5  and  O_6
REMARK    3  A    between atoms: O_6  and  C_7
REMARK    4  A    between atoms: C_17  and  O_19
REMARK    5  A    between atoms: O_19  and  C_20
REMARK    6  A    between atoms: C_20  and  C_21
REMARK                            x       y       z     vdW  Elec       q    Type
REMARK                         _______ _______ _______ _____ _____    ______ ____
ROOT
ATOM      1  O   LIG A   1      -8.717   4.527 125.473  0.00  0.00    -0.250 OA
ATOM      2  C   LIG A   1      -8.393   3.364 125.576  0.00  0.00    +0.319 C 
ATOM      3  C   LIG A   1      -7.866   2.421 124.523  0.00  0.00    +0.125 C 
ATOM      4  C   LIG A   1      -6.326   2.537 124.770  0.00  0.00    +0.029 C 
ATOM      5  C   LIG A   1      -8.224   2.304 123.004  0.00  0.00    +0.185 C 
ATOM      6  C   LIG A   1      -9.572   1.548 122.668  0.00  0.00    +0.067 C 
ATOM      7  C   LIG A   1      -9.547   0.075 123.221  0.00  0.00    +0.015 C 
ATOM      8  C   LIG A   1      -8.346  -0.018 124.206  0.00  0.00    +0.005 C 
ATOM      9  C   LIG A   1      -7.137   0.174 123.223  0.00  0.00    +0.170 C 
ATOM     10  O   LIG A   1      -7.233   1.390 122.451  0.00  0.00    -0.347 OA
ATOM     11  C   LIG A   1      -8.108  -1.303 125.043  0.00  0.00    +0.005 C 
ATOM     12  C   LIG A   1      -8.834  -2.536 124.493  0.00  0.00    +0.005 C 
ATOM     13  C   LIG A   1      -8.434  -3.800 125.250  0.00  0.00    +0.004 C 
ATOM     14  C   LIG A   1      -8.637  -3.657 126.756  0.00  0.00    +0.045 C 
ATOM     15  C   LIG A   1      -7.918  -2.423 127.324  0.00  0.00    +0.180 C 
ATOM     16  C   LIG A   1      -8.371  -1.151 126.573  0.00  0.00    +0.037 C 
ATOM     17  C   LIG A   1      -7.733   0.156 127.137  0.00  0.00    +0.052 C 
ATOM     18  C   LIG A   1      -8.551   1.294 126.563  0.00  0.00    +0.182 C 
ATOM     19  O   LIG A   1      -8.263   2.674 126.802  0.00  0.00    -0.461 OA
ATOM     20  C   LIG A   1      -8.596   1.218 125.077  0.00  0.00    +0.060 C 
ENDROOT
BRANCH   5  21
ATOM     21  O   LIG A   1      -8.126   3.586 122.403  0.00  0.00    -0.351 OA
ATOM     22  C   LIG A   1      -8.583   3.665 121.060  0.00  0.00    +0.197 C 
ENDBRANCH   5  21
BRANCH  15  23
ATOM     23  O   LIG A   1      -8.230  -2.262 128.722  0.00  0.00    -0.461 OA
BRANCH  23  24
ATOM     24  C   LIG A   1      -7.294  -2.733 129.594  0.00  0.00    +0.304 C 
ATOM     25  C   LIG A   1      -5.919  -2.573 129.021  0.00  0.00    +0.136 C 
ATOM     26  O   LIG A   1      -7.531  -3.287 130.658  0.00  0.00    -0.251 OA
ENDBRANCH  23  24
ENDBRANCH  15  23
TORSDOF 3
ENDMDL
MODEL 3
REMARK VINA RESULT:      -7.3      2.543      5.736
REMARK  Name = NuBBE_2076
REMARK  6 active torsions:
REMARK  status: ('A' for Active; 'I' for Inactive)
REMARK    1  A    between atoms: C_3  and  C_4
REMARK    2  A    between atoms: C_5  and  O_6
REMARK    3  A    between atoms: O_6  and  C_7
REMARK    4  A    between atoms: C_17  and  O_19
REMARK    5  A    between atoms: O_19  and  C_20
REMARK    6  A    between atoms: C_20  and  C_21
REMARK                            x       y       z     vdW  Elec       q    Type
REMARK                         _______ _______ _______ _____ _____    ______ ____
ROOT
ATOM      1  O   LIG A   1      -6.262   6.096 124.954  0.00  0.00    -0.250 OA
ATOM      2  C   LIG A   1      -6.511   4.925 125.142  0.00  0.00    +0.319 C 
ATOM      3  C   LIG A   1      -6.325   4.097 126.390  0.00  0.00    +0.125 C 
ATOM      4  C   LIG A   1      -7.763   4.168 127.005  0.00  0.00    +0.029 C 
ATOM      5  C   LIG A   1      -5.203   4.150 127.478  0.00  0.00    +0.185 C 
ATOM      6  C   LIG A   1      -3.837   3.450 127.096  0.00  0.00    +0.067 C 
ATOM      7  C   LIG A   1      -4.055   1.925 126.773  0.00  0.00    +0.015 C 
ATOM      8  C   LIG A   1      -5.587   1.712 126.605  0.00  0.00    +0.005 C 
ATOM      9  C   LIG A   1      -6.090   1.997 128.065  0.00  0.00    +0.170 C 
ATOM     10  O   LIG A   1      -5.678   3.291 128.555  0.00  0.00    -0.347 OA
ATOM     11  C   LIG A   1      -6.148   0.341 126.143  0.00  0.00    +0.005 C 
ATOM     12  C   LIG A   1      -5.158  -0.817 126.317  0.00  0.00    +0.005 C 
ATOM     13  C   LIG A   1      -5.815  -2.159 126.008  0.00  0.00    +0.004 C 
ATOM     14  C   LIG A   1      -6.461  -2.179 124.626  0.00  0.00    +0.045 C 
ATOM     15  C   LIG A   1      -7.454  -1.023 124.433  0.00  0.00    +0.180 C 
ATOM     16  C   LIG A   1      -6.757   0.329 124.707  0.00  0.00    +0.037 C 
ATOM     17  C   LIG A   1      -7.685   1.560 124.468  0.00  0.00    +0.052 C 
ATOM     18  C   LIG A   1      -6.766   2.762 124.408  0.00  0.00    +0.182 C 
ATOM     19  O   LIG A   1      -7.230   4.105 124.245  0.00  0.00    -0.461 OA
ATOM     20  C   LIG A   1      -5.927   2.849 125.634  0.00  0.00    +0.060 C 
ENDROOT
BRANCH   5  21
ATOM     21  O   LIG A   1      -5.050   5.489 127.924  0.00  0.00    -0.351 OA
ATOM     22  C   LIG A   1      -3.716   5.889 128.203  0.00  0.00    +0.197 C 
ENDBRANCH   5  21
BRANCH  15  23
ATOM     23  O   LIG A   1      -7.951  -1.011 123.080  0.00  0.00    -0.461 OA
BRANCH  23  24
ATOM     24  C   LIG A   1      -9.245  -1.413 122.923  0.00  0.00    +0.304 C 
ATOM     25  C   LIG A   1      -9.382  -2.871 123.239  0.00  0.00    +0.136 C 
ATOM     26  O   LIG A   1     -10.159  -0.716 122.504  0.00  0.00    -0.251 OA
ENDBRANCH  23  24
ENDBRANCH  15  23
TORSDOF 3
ENDMDL
MODEL 4
REMARK VINA RESULT:      -7.2      2.904      4.958
REMARK  Name = NuBBE_2076
REMARK  6 active torsions:
REMARK  status: ('A' for Active; 'I' for Inactive)
REMARK    1  A    between atoms: C_3  and  C_4
REMARK    2  A    between atoms: C_5  and  O_6
REMARK    3  A    between atoms: O_6  and  C_7
REMARK    4  A    between atoms: C_17  and  O_19
REMARK    5  A    between atoms: O_19  and  C_20
REMARK    6  A    between atoms: C_20  and  C_21
REMARK                            x       y       z     vdW  Elec       q    Type
REMARK                         _______ _______ _______ _____ _____    ______ ____
ROOT
ATOM      1  O   LIG A   1      -9.373  -1.030 123.186  0.00  0.00    -0.250 OA
ATOM      2  C   LIG A   1      -8.921  -0.555 124.205  0.00  0.00    +0.319 C 
ATOM      3  C   LIG A   1      -7.805  -1.063 125.083  0.00  0.00    +0.125 C 
ATOM      4  C   LIG A   1      -6.601  -0.222 124.541  0.00  0.00    +0.029 C 
ATOM      5  C   LIG A   1      -7.396  -2.527 125.451  0.00  0.00    +0.185 C 
ATOM      6  C   LIG A   1      -8.272  -3.228 126.566  0.00  0.00    +0.067 C 
ATOM      7  C   LIG A   1      -8.229  -2.416 127.913  0.00  0.00    +0.015 C 
ATOM      8  C   LIG A   1      -7.620  -1.023 127.582  0.00  0.00    +0.005 C 
ATOM      9  C   LIG A   1      -6.154  -1.424 127.185  0.00  0.00    +0.170 C 
ATOM     10  O   LIG A   1      -6.111  -2.405 126.127  0.00  0.00    -0.347 OA
ATOM     11  C   LIG A   1      -7.557   0.089 128.662  0.00  0.00    +0.005 C 
ATOM     12  C   LIG A   1      -7.705  -0.439 130.094  0.00  0.00    +0.005 C 
ATOM     13  C   LIG A   1      -7.468   0.667 131.120  0.00  0.00    +0.004 C 
ATOM     14  C   LIG A   1      -8.362   1.879 130.876  0.00  0.00    +0.045 C 
ATOM     15  C   LIG A   1      -8.228   2.419 129.443  0.00  0.00    +0.180 C 
ATOM     16  C   LIG A   1      -8.516   1.295 128.422  0.00  0.00    +0.037 C 
ATOM     17  C   LIG A   1      -8.464   1.782 126.941  0.00  0.00    +0.052 C 
ATOM     18  C   LIG A   1      -9.124   0.690 126.126  0.00  0.00    +0.182 C 
ATOM     19  O   LIG A   1      -9.242   0.728 124.701  0.00  0.00    -0.461 OA
ATOM     20  C   LIG A   1      -8.468  -0.623 126.369  0.00  0.00    +0.060 C 
ENDROOT
BRANCH   5  21
ATOM     21  O   LIG A   1      -7.276  -3.290 124.260  0.00  0.00    -0.351 OA
ATOM     22  C   LIG A   1      -5.963  -3.742 123.958  0.00  0.00    +0.197 C 
ENDBRANCH   5  21
BRANCH  15  23
ATOM     23  O   LIG A   1      -9.171   3.487 129.221  0.00  0.00    -0.461 OA
BRANCH  23  24
ATOM     24  C   LIG A   1      -8.652   4.748 129.249  0.00  0.00    +0.304 C 
ATOM     25  C   LIG A   1      -9.646   5.710 129.824  0.00  0.00    +0.136 C 
ATOM     26  O   LIG A   1      -7.565   5.077 128.795  0.00  0.00    -0.251 OA
ENDBRANCH  23  24
ENDBRANCH  15  23
TORSDOF 3
ENDMDL
MODEL 5
REMARK VINA RESULT:      -7.1      2.187      7.174
REMARK  Name = NuBBE_2076
REMARK  6 active torsions:
REMARK  status: ('A' for Active; 'I' for Inactive)
REMARK    1  A    between atoms: C_3  and  C_4
REMARK    2  A    between atoms: C_5  and  O_6
REMARK    3  A    between atoms: O_6  and  C_7
REMARK    4  A    between atoms: C_17  and  O_19
REMARK    5  A    between atoms: O_19  and  C_20
REMARK    6  A    between atoms: C_20  and  C_21
REMARK                            x       y       z     vdW  Elec       q    Type
REMARK                         _______ _______ _______ _____ _____    ______ ____
ROOT
ATOM      1  O   LIG A   1      -7.023   4.447 127.507  0.00  0.00    -0.250 OA
ATOM      2  C   LIG A   1      -6.978   3.236 127.489  0.00  0.00    +0.319 C 
ATOM      3  C   LIG A   1      -6.874   2.301 126.310  0.00  0.00    +0.125 C 
ATOM      4  C   LIG A   1      -5.332   2.036 126.282  0.00  0.00    +0.029 C 
ATOM      5  C   LIG A   1      -7.491   2.412 124.877  0.00  0.00    +0.185 C 
ATOM      6  C   LIG A   1      -9.018   2.020 124.750  0.00  0.00    +0.067 C 
ATOM      7  C   LIG A   1      -9.261   0.535 125.211  0.00  0.00    +0.015 C 
ATOM      8  C   LIG A   1      -7.975   0.077 125.957  0.00  0.00    +0.005 C 
ATOM      9  C   LIG A   1      -6.931   0.079 124.783  0.00  0.00    +0.170 C 
ATOM     10  O   LIG A   1      -6.855   1.351 124.107  0.00  0.00    -0.347 OA
ATOM     11  C   LIG A   1      -7.923  -1.301 126.669  0.00  0.00    +0.005 C 
ATOM     12  C   LIG A   1      -9.005  -2.277 126.195  0.00  0.00    +0.005 C 
ATOM     13  C   LIG A   1      -8.805  -3.664 126.800  0.00  0.00    +0.004 C 
ATOM     14  C   LIG A   1      -8.720  -3.620 128.323  0.00  0.00    +0.045 C 
ATOM     15  C   LIG A   1      -7.641  -2.643 128.816  0.00  0.00    +0.180 C 
ATOM     16  C   LIG A   1      -7.889  -1.236 128.227  0.00  0.00    +0.037 C 
ATOM     17  C   LIG A   1      -6.870  -0.170 128.734  0.00  0.00    +0.052 C 
ATOM     18  C   LIG A   1      -7.470   1.175 128.378  0.00  0.00    +0.182 C 
ATOM     19  O   LIG A   1      -6.822   2.423 128.634  0.00  0.00    -0.461 OA
ATOM     20  C   LIG A   1      -7.773   1.251 126.923  0.00  0.00    +0.060 C 
ENDROOT
BRANCH   5  21
ATOM     21  O   LIG A   1      -7.185   3.688 124.336  0.00  0.00    -0.351 OA
ATOM     22  C   LIG A   1      -6.408   3.675 123.147  0.00  0.00    +0.197 C 
ENDBRANCH   5  21
BRANCH  15  23
ATOM     23  O   LIG A   1      -7.674  -2.547 130.254  0.00  0.00    -0.461 OA
BRANCH  23  24
ATOM     24  C   LIG A   1      -6.700  -3.237 130.914  0.00  0.00    +0.304 C 
ATOM     25  C   LIG A   1      -5.596  -3.613 129.973  0.00  0.00    +0.136 C 
ATOM     26  O   LIG A   1      -6.747  -3.582 132.087  0.00  0.00    -0.251 OA
ENDBRANCH  23  24
ENDBRANCH  15  23
TORSDOF 3
ENDMDL
MODEL 6
REMARK VINA RESULT:      -7.1      3.571      5.396
REMARK  Name = NuBBE_2076
REMARK  6 active torsions:
REMARK  status: ('A' for Active; 'I' for Inactive)
REMARK    1  A    between atoms: C_3  and  C_4
REMARK    2  A    between atoms: C_5  and  O_6
REMARK    3  A    between atoms: O_6  and  C_7
REMARK    4  A    between atoms: C_17  and  O_19
REMARK    5  A    between atoms: O_19  and  C_20
REMARK    6  A    between atoms: C_20  and  C_21
REMARK                            x       y       z     vdW  Elec       q    Type
REMARK                         _______ _______ _______ _____ _____    ______ ____
ROOT
ATOM      1  O   LIG A   1      -6.131  -4.184 131.798  0.00  0.00    -0.250 OA
ATOM      2  C   LIG A   1      -6.322  -3.556 130.780  0.00  0.00    +0.319 C 
ATOM      3  C   LIG A   1      -5.782  -2.207 130.374  0.00  0.00    +0.125 C 
ATOM      4  C   LIG A   1      -4.559  -2.635 129.495  0.00  0.00    +0.029 C 
ATOM      5  C   LIG A   1      -5.486  -0.936 131.237  0.00  0.00    +0.185 C 
ATOM      6  C   LIG A   1      -6.742  -0.054 131.618  0.00  0.00    +0.067 C 
ATOM      7  C   LIG A   1      -7.483   0.462 130.330  0.00  0.00    +0.015 C 
ATOM      8  C   LIG A   1      -6.927  -0.358 129.130  0.00  0.00    +0.005 C 
ATOM      9  C   LIG A   1      -5.438   0.140 129.091  0.00  0.00    +0.170 C 
ATOM     10  O   LIG A   1      -4.758  -0.037 130.351  0.00  0.00    -0.347 OA
ATOM     11  C   LIG A   1      -7.543  -0.201 127.714  0.00  0.00    +0.005 C 
ATOM     12  C   LIG A   1      -8.362   1.083 127.539  0.00  0.00    +0.005 C 
ATOM     13  C   LIG A   1      -8.800   1.269 126.089  0.00  0.00    +0.004 C 
ATOM     14  C   LIG A   1      -9.548   0.052 125.554  0.00  0.00    +0.045 C 
ATOM     15  C   LIG A   1      -8.742  -1.245 125.723  0.00  0.00    +0.180 C 
ATOM     16  C   LIG A   1      -8.347  -1.436 127.205  0.00  0.00    +0.037 C 
ATOM     17  C   LIG A   1      -7.580  -2.769 127.470  0.00  0.00    +0.052 C 
ATOM     18  C   LIG A   1      -7.612  -2.970 128.971  0.00  0.00    +0.182 C 
ATOM     19  O   LIG A   1      -6.976  -4.064 129.636  0.00  0.00    -0.461 OA
ATOM     20  C   LIG A   1      -7.055  -1.784 129.677  0.00  0.00    +0.060 C 
ENDROOT
BRANCH   5  21
ATOM     21  O   LIG A   1      -4.691  -1.307 132.353  0.00  0.00    -0.351 OA
ATOM     22  C   LIG A   1      -3.535  -0.510 132.568  0.00  0.00    +0.197 C 
ENDBRANCH   5  21
BRANCH  15  23
ATOM     23  O   LIG A   1      -9.529  -2.381 125.312  0.00  0.00    -0.461 OA
BRANCH  23  24
ATOM     24  C   LIG A   1      -9.230  -2.894 124.085  0.00  0.00    +0.304 C 
ATOM     25  C   LIG A   1      -7.759  -2.789 123.819  0.00  0.00    +0.136 C 
ATOM     26  O   LIG A   1     -10.044  -3.306 123.271  0.00  0.00    -0.251 OA
ENDBRANCH  23  24
ENDBRANCH  15  23
TORSDOF 3
ENDMDL
MODEL 7
REMARK VINA RESULT:      -7.0      2.767      6.832
REMARK  Name = NuBBE_2076
REMARK  6 active torsions:
REMARK  status: ('A' for Active; 'I' for Inactive)
REMARK    1  A    between atoms: C_3  and  C_4
REMARK    2  A    between atoms: C_5  and  O_6
REMARK    3  A    between atoms: O_6  and  C_7
REMARK    4  A    between atoms: C_17  and  O_19
REMARK    5  A    between atoms: O_19  and  C_20
REMARK    6  A    between atoms: C_20  and  C_21
REMARK                            x       y       z     vdW  Elec       q    Type
REMARK                         _______ _______ _______ _____ _____    ______ ____
ROOT
ATOM      1  O   LIG A   1      -9.125   1.936 124.780  0.00  0.00    -0.250 OA
ATOM      2  C   LIG A   1      -8.553   1.333 125.662  0.00  0.00    +0.319 C 
ATOM      3  C   LIG A   1      -7.737   0.068 125.579  0.00  0.00    +0.125 C 
ATOM      4  C   LIG A   1      -6.290   0.657 125.487  0.00  0.00    +0.029 C 
ATOM      5  C   LIG A   1      -7.927  -1.200 124.682  0.00  0.00    +0.185 C 
ATOM      6  C   LIG A   1      -9.032  -2.225 125.160  0.00  0.00    +0.067 C 
ATOM      7  C   LIG A   1      -8.717  -2.762 126.605  0.00  0.00    +0.015 C 
ATOM      8  C   LIG A   1      -7.615  -1.840 127.200  0.00  0.00    +0.005 C 
ATOM      9  C   LIG A   1      -6.403  -2.176 126.260  0.00  0.00    +0.170 C 
ATOM     10  O   LIG A   1      -6.710  -1.980 124.863  0.00  0.00    -0.347 OA
ATOM     11  C   LIG A   1      -7.161  -2.002 128.676  0.00  0.00    +0.005 C 
ATOM     12  C   LIG A   1      -7.535  -3.357 129.287  0.00  0.00    +0.005 C 
ATOM     13  C   LIG A   1      -6.921  -3.528 130.674  0.00  0.00    +0.004 C 
ATOM     14  C   LIG A   1      -7.279  -2.376 131.608  0.00  0.00    +0.045 C 
ATOM     15  C   LIG A   1      -6.913  -1.009 131.009  0.00  0.00    +0.180 C 
ATOM     16  C   LIG A   1      -7.581  -0.838 129.626  0.00  0.00    +0.037 C 
ATOM     17  C   LIG A   1      -7.309   0.555 128.979  0.00  0.00    +0.052 C 
ATOM     18  C   LIG A   1      -8.315   0.690 127.855  0.00  0.00    +0.182 C 
ATOM     19  O   LIG A   1      -8.373   1.817 126.976  0.00  0.00    -0.461 OA
ATOM     20  C   LIG A   1      -8.215  -0.458 126.914  0.00  0.00    +0.060 C 
ENDROOT
BRANCH   5  21
ATOM     21  O   LIG A   1      -8.076  -0.793 123.329  0.00  0.00    -0.351 OA
ATOM     22  C   LIG A   1      -9.354  -1.036 122.758  0.00  0.00    +0.197 C 
ENDBRANCH   5  21
BRANCH  15  23
ATOM     23  O   LIG A   1      -7.371   0.053 131.869  0.00  0.00    -0.461 OA
BRANCH  23  24
ATOM     24  C   LIG A   1      -6.490   0.458 132.828  0.00  0.00    +0.304 C 
ATOM     25  C   LIG A   1      -5.145   0.724 132.224  0.00  0.00    +0.136 C 
ATOM     26  O   LIG A   1      -6.725   0.518 134.027  0.00  0.00    -0.251 OA
ENDBRANCH  23  24
ENDBRANCH  15  23
TORSDOF 3
ENDMDL
MODEL 8
REMARK VINA RESULT:      -6.9      3.516      6.645
REMARK  Name = NuBBE_2076
REMARK  6 active torsions:
REMARK  status: ('A' for Active; 'I' for Inactive)
REMARK    1  A    between atoms: C_3  and  C_4
REMARK    2  A    between atoms: C_5  and  O_6
REMARK    3  A    between atoms: O_6  and  C_7
REMARK    4  A    between atoms: C_17  and  O_19
REMARK    5  A    between atoms: O_19  and  C_20
REMARK    6  A    between atoms: C_20  and  C_21
REMARK                            x       y       z     vdW  Elec       q    Type
REMARK                         _______ _______ _______ _____ _____    ______ ____
ROOT
ATOM      1  O   LIG A   1      -2.433  -1.711 131.790  0.00  0.00    -0.250 OA
ATOM      2  C   LIG A   1      -3.492  -1.676 131.201  0.00  0.00    +0.319 C 
ATOM      3  C   LIG A   1      -4.829  -2.246 131.604  0.00  0.00    +0.125 C 
ATOM      4  C   LIG A   1      -5.507  -0.984 132.235  0.00  0.00    +0.029 C 
ATOM      5  C   LIG A   1      -5.174  -3.562 132.376  0.00  0.00    +0.185 C 
ATOM      6  C   LIG A   1      -5.130  -4.894 131.524  0.00  0.00    +0.067 C 
ATOM      7  C   LIG A   1      -6.135  -4.826 130.316  0.00  0.00    +0.015 C 
ATOM      8  C   LIG A   1      -6.573  -3.340 130.176  0.00  0.00    +0.005 C 
ATOM      9  C   LIG A   1      -7.373  -3.136 131.512  0.00  0.00    +0.170 C 
ATOM     10  O   LIG A   1      -6.595  -3.461 132.683  0.00  0.00    -0.347 OA
ATOM     11  C   LIG A   1      -7.464  -2.888 128.987  0.00  0.00    +0.005 C 
ATOM     12  C   LIG A   1      -8.196  -4.044 128.296  0.00  0.00    +0.005 C 
ATOM     13  C   LIG A   1      -9.183  -3.529 127.251  0.00  0.00    +0.004 C 
ATOM     14  C   LIG A   1      -8.515  -2.604 126.237  0.00  0.00    +0.045 C 
ATOM     15  C   LIG A   1      -7.773  -1.441 126.914  0.00  0.00    +0.180 C 
ATOM     16  C   LIG A   1      -6.750  -1.986 127.935  0.00  0.00    +0.037 C 
ATOM     17  C   LIG A   1      -5.907  -0.864 128.619  0.00  0.00    +0.052 C 
ATOM     18  C   LIG A   1      -4.737  -1.570 129.272  0.00  0.00    +0.182 C 
ATOM     19  O   LIG A   1      -3.741  -0.898 130.048  0.00  0.00    -0.461 OA
ATOM     20  C   LIG A   1      -5.210  -2.638 130.194  0.00  0.00    +0.060 C 
ENDROOT
BRANCH   5  21
ATOM     21  O   LIG A   1      -4.398  -3.621 133.564  0.00  0.00    -0.351 OA
ATOM     22  C   LIG A   1      -3.425  -4.655 133.605  0.00  0.00    +0.197 C 
ENDBRANCH   5  21
BRANCH  15  23
ATOM     23  O   LIG A   1      -7.064  -0.661 125.931  0.00  0.00    -0.461 OA
BRANCH  23  24
ATOM     24  C   LIG A   1      -7.727   0.431 125.453  0.00  0.00    +0.304 C 
ATOM     25  C   LIG A   1      -8.537   1.068 126.541  0.00  0.00    +0.136 C 
ATOM     26  O   LIG A   1      -7.736   0.802 124.288  0.00  0.00    -0.251 OA
ENDBRANCH  23  24
ENDBRANCH  15  23
TORSDOF 3
ENDMDL
MODEL 9
REMARK VINA RESULT:      -6.8      4.552      7.005
REMARK  Name = NuBBE_2076
REMARK  6 active torsions:
REMARK  status: ('A' for Active; 'I' for Inactive)
REMARK    1  A    between atoms: C_3  and  C_4
REMARK    2  A    between atoms: C_5  and  O_6
REMARK    3  A    between atoms: O_6  and  C_7
REMARK    4  A    between atoms: C_17  and  O_19
REMARK    5  A    between atoms: O_19  and  C_20
REMARK    6  A    between atoms: C_20  and  C_21
REMARK                            x       y       z     vdW  Elec       q    Type
REMARK                         _______ _______ _______ _____ _____    ______ ____
ROOT
ATOM      1  O   LIG A   1      -8.608   6.024 129.905  0.00  0.00    -0.250 OA
ATOM      2  C   LIG A   1      -8.697   4.827 129.742  0.00  0.00    +0.319 C 
ATOM      3  C   LIG A   1      -9.093   3.755 130.727  0.00  0.00    +0.125 C 
ATOM      4  C   LIG A   1     -10.611   3.588 130.382  0.00  0.00    +0.029 C 
ATOM      5  C   LIG A   1      -8.809   3.639 132.261  0.00  0.00    +0.185 C 
ATOM      6  C   LIG A   1      -7.363   3.138 132.659  0.00  0.00    +0.067 C 
ATOM      7  C   LIG A   1      -7.073   1.714 132.058  0.00  0.00    +0.015 C 
ATOM      8  C   LIG A   1      -8.174   1.439 130.994  0.00  0.00    +0.005 C 
ATOM      9  C   LIG A   1      -9.453   1.354 131.901  0.00  0.00    +0.170 C 
ATOM     10  O   LIG A   1      -9.637   2.530 132.717  0.00  0.00    -0.347 OA
ATOM     11  C   LIG A   1      -8.111   0.171 130.101  0.00  0.00    +0.005 C 
ATOM     12  C   LIG A   1      -7.196  -0.925 130.657  0.00  0.00    +0.005 C 
ATOM     13  C   LIG A   1      -7.302  -2.206 129.833  0.00  0.00    +0.004 C 
ATOM     14  C   LIG A   1      -7.042  -1.960 128.350  0.00  0.00    +0.045 C 
ATOM     15  C   LIG A   1      -7.950  -0.861 127.777  0.00  0.00    +0.180 C 
ATOM     16  C   LIG A   1      -7.794   0.439 128.598  0.00  0.00    +0.037 C 
ATOM     17  C   LIG A   1      -8.637   1.626 128.036  0.00  0.00    +0.052 C 
ATOM     18  C   LIG A   1      -8.087   2.871 128.700  0.00  0.00    +0.182 C 
ATOM     19  O   LIG A   1      -8.620   4.181 128.488  0.00  0.00    -0.461 OA
ATOM     20  C   LIG A   1      -8.115   2.739 130.182  0.00  0.00    +0.060 C 
ENDROOT
BRANCH   5  21
ATOM     21  O   LIG A   1      -9.186   4.852 132.896  0.00  0.00    -0.351 OA
ATOM     22  C   LIG A   1      -8.113   5.631 133.405  0.00  0.00    +0.197 C 
ENDBRANCH   5  21
BRANCH  15  23
ATOM     23  O   LIG A   1      -7.593  -0.580 126.409  0.00  0.00    -0.461 OA
BRANCH  23  24
ATOM     24  C   LIG A   1      -8.254  -1.310 125.465  0.00  0.00    +0.304 C 
ATOM     25  C   LIG A   1      -7.288  -1.878 124.471  0.00  0.00    +0.136 C 
ATOM     26  O   LIG A   1      -9.469  -1.424 125.380  0.00  0.00    -0.251 OA
ENDBRANCH  23  24
ENDBRANCH  15  23
TORSDOF 3
ENDMDL
