MODEL 1
REMARK VINA RESULT:      -8.2      0.000      0.000
REMARK  Name = NuBBE_449
REMARK  9 active torsions:
REMARK  status: ('A' for Active; 'I' for Inactive)
REMARK    1  A    between atoms: O_1  and  C_2
REMARK    2  A    between atoms: C_6  and  C_8
REMARK    3  A    between atoms: C_13  and  C_14
REMARK    4  A    between atoms: C_14  and  O_15
REMARK    5  A    between atoms: O_15  and  C_16
REMARK    6  A    between atoms: C_16  and  C_17
REMARK    7  A    between atoms: C_18  and  C_19
REMARK    8  A    between atoms: C_22  and  O_23
REMARK    9  A    between atoms: C_24  and  O_25
REMARK                            x       y       z     vdW  Elec       q    Type
REMARK                         _______ _______ _______ _____ _____    ______ ____
ROOT
ATOM      1  O   LIG A   1      -8.594   1.158 126.169  0.00  0.00    -0.457 OA
ENDROOT
BRANCH   1   2
ATOM      2  C   LIG A   1      -7.799   2.243 125.987  0.00  0.00    +0.332 C 
ATOM      3  O   LIG A   1      -7.108   2.801 126.817  0.00  0.00    -0.246 OA
BRANCH   2   4
ATOM      4  C   LIG A   1      -7.928   2.643 124.574  0.00  0.00    +0.092 C 
ATOM      5  C   LIG A   1      -6.850   3.006 123.861  0.00  0.00    +0.015 C 
BRANCH   5   6
ATOM      6  C   LIG A   1      -6.930   3.423 122.455  0.00  0.00    -0.021 A 
ATOM      7  C   LIG A   1      -5.779   3.773 121.726  0.00  0.00    +0.012 A 
ATOM      8  C   LIG A   1      -5.862   4.168 120.389  0.00  0.00    +0.050 A 
ATOM      9  C   LIG A   1      -7.104   4.193 119.771  0.00  0.00    +0.158 A 
ATOM     10  C   LIG A   1      -8.246   3.825 120.475  0.00  0.00    +0.159 A 
ATOM     11  C   LIG A   1      -8.173   3.434 121.807  0.00  0.00    +0.057 A 
BRANCH   9  12
ATOM     12  O   LIG A   1      -7.247   4.571 118.466  0.00  0.00    -0.503 OA
ATOM     13  H   LIG A   1      -7.552   5.494 118.452  0.00  0.00    +0.292 HD
ENDBRANCH   9  12
BRANCH  10  14
ATOM     14  O   LIG A   1      -9.463   3.849 119.853  0.00  0.00    -0.503 OA
ATOM     15  H   LIG A   1      -9.904   4.645 120.208  0.00  0.00    +0.292 HD
ENDBRANCH  10  14
ENDBRANCH   5   6
ENDBRANCH   2   4
ENDBRANCH   1   2
BRANCH   1  16
ATOM     16  C   LIG A   1      -9.310   0.710 125.012  0.00  0.00    +0.267 C 
BRANCH  16  24
ATOM     17  C   LIG A   1      -8.941  -3.506 124.341  0.00  0.00    +0.308 C 
ATOM     18  C   LIG A   1      -7.853  -2.671 123.669  0.00  0.00    +0.068 C 
ATOM     19  C   LIG A   1      -6.523  -2.660 124.463  0.00  0.00    -0.004 C 
ATOM     20  C   LIG A   1      -5.559  -3.737 123.982  0.00  0.00    +0.008 C 
ATOM     21  C   LIG A   1      -5.951  -1.243 124.297  0.00  0.00    +0.004 C 
ATOM     22  C   LIG A   1      -6.903  -0.525 123.349  0.00  0.00    +0.009 C 
ATOM     23  C   LIG A   1      -8.264  -1.192 123.576  0.00  0.00    +0.030 C 
ATOM     24  C   LIG A   1      -9.011  -0.753 124.820  0.00  0.00    +0.005 C 
ATOM     25  C   LIG A   1      -9.434  -1.653 125.724  0.00  0.00    +0.193 C 
ATOM     26  O   LIG A   1      -9.320  -3.014 125.628  0.00  0.00    -0.471 OA
BRANCH  17  27
ATOM     27  O   LIG A   1     -10.086  -3.612 123.500  0.00  0.00    -0.357 OA
ATOM     28  H   LIG A   1      -9.748  -3.927 122.645  0.00  0.00    +0.213 HD
ENDBRANCH  17  27
ENDBRANCH  16  24
ENDBRANCH   1  16
TORSDOF 8
ENDMDL
MODEL 2
REMARK VINA RESULT:      -7.8      2.045      2.957
REMARK  Name = NuBBE_449
REMARK  9 active torsions:
REMARK  status: ('A' for Active; 'I' for Inactive)
REMARK    1  A    between atoms: O_1  and  C_2
REMARK    2  A    between atoms: C_6  and  C_8
REMARK    3  A    between atoms: C_13  and  C_14
REMARK    4  A    between atoms: C_14  and  O_15
REMARK    5  A    between atoms: O_15  and  C_16
REMARK    6  A    between atoms: C_16  and  C_17
REMARK    7  A    between atoms: C_18  and  C_19
REMARK    8  A    between atoms: C_22  and  O_23
REMARK    9  A    between atoms: C_24  and  O_25
REMARK                            x       y       z     vdW  Elec       q    Type
REMARK                         _______ _______ _______ _____ _____    ______ ____
ROOT
ATOM      1  O   LIG A   1      -9.341   1.313 124.707  0.00  0.00    -0.457 OA
ENDROOT
BRANCH   1   2
ATOM      2  C   LIG A   1     -10.066   1.316 123.560  0.00  0.00    +0.332 C 
ATOM      3  O   LIG A   1     -11.163   0.824 123.377  0.00  0.00    -0.246 OA
BRANCH   2   4
ATOM      4  C   LIG A   1      -9.269   2.028 122.545  0.00  0.00    +0.092 C 
ATOM      5  C   LIG A   1      -8.138   2.667 122.883  0.00  0.00    +0.015 C 
BRANCH   5   6
ATOM      6  C   LIG A   1      -7.316   3.399 121.909  0.00  0.00    -0.021 A 
ATOM      7  C   LIG A   1      -7.801   3.710 120.626  0.00  0.00    +0.012 A 
ATOM      8  C   LIG A   1      -7.015   4.405 119.705  0.00  0.00    +0.050 A 
ATOM      9  C   LIG A   1      -5.742   4.809 120.078  0.00  0.00    +0.158 A 
ATOM     10  C   LIG A   1      -5.261   4.528 121.353  0.00  0.00    +0.159 A 
ATOM     11  C   LIG A   1      -6.036   3.834 122.274  0.00  0.00    +0.057 A 
BRANCH   9  12
ATOM     12  O   LIG A   1      -4.926   5.492 119.220  0.00  0.00    -0.503 OA
ATOM     13  H   LIG A   1      -4.198   5.875 119.739  0.00  0.00    +0.292 HD
ENDBRANCH   9  12
BRANCH  10  14
ATOM     14  O   LIG A   1      -4.006   4.936 121.710  0.00  0.00    -0.503 OA
ATOM     15  H   LIG A   1      -3.752   4.339 122.441  0.00  0.00    +0.292 HD
ENDBRANCH  10  14
ENDBRANCH   5   6
ENDBRANCH   2   4
ENDBRANCH   1   2
BRANCH   1  16
ATOM     16  C   LIG A   1      -9.541   0.185 125.567  0.00  0.00    +0.267 C 
BRANCH  16  24
ATOM     17  C   LIG A   1      -5.903  -1.908 126.429  0.00  0.00    +0.308 C 
ATOM     18  C   LIG A   1      -6.670  -2.461 125.229  0.00  0.00    +0.068 C 
ATOM     19  C   LIG A   1      -6.097  -1.981 123.872  0.00  0.00    -0.004 C 
ATOM     20  C   LIG A   1      -5.093  -2.970 123.292  0.00  0.00    +0.008 C 
ATOM     21  C   LIG A   1      -7.313  -1.774 122.957  0.00  0.00    +0.004 C 
ATOM     22  C   LIG A   1      -8.521  -2.226 123.770  0.00  0.00    +0.009 C 
ATOM     23  C   LIG A   1      -8.129  -1.975 125.230  0.00  0.00    +0.030 C 
ATOM     24  C   LIG A   1      -8.227  -0.537 125.698  0.00  0.00    +0.005 C 
ATOM     25  C   LIG A   1      -7.170   0.080 126.256  0.00  0.00    +0.193 C 
ATOM     26  O   LIG A   1      -5.952  -0.484 126.526  0.00  0.00    -0.471 OA
BRANCH  17  27
ATOM     27  O   LIG A   1      -6.368  -2.498 127.639  0.00  0.00    -0.357 OA
ATOM     28  H   LIG A   1      -5.746  -3.222 127.828  0.00  0.00    +0.213 HD
ENDBRANCH  17  27
ENDBRANCH  16  24
ENDBRANCH   1  16
TORSDOF 8
ENDMDL
MODEL 3
REMARK VINA RESULT:      -7.8      8.675     10.556
REMARK  Name = NuBBE_449
REMARK  9 active torsions:
REMARK  status: ('A' for Active; 'I' for Inactive)
REMARK    1  A    between atoms: O_1  and  C_2
REMARK    2  A    between atoms: C_6  and  C_8
REMARK    3  A    between atoms: C_13  and  C_14
REMARK    4  A    between atoms: C_14  and  O_15
REMARK    5  A    between atoms: O_15  and  C_16
REMARK    6  A    between atoms: C_16  and  C_17
REMARK    7  A    between atoms: C_18  and  C_19
REMARK    8  A    between atoms: C_22  and  O_23
REMARK    9  A    between atoms: C_24  and  O_25
REMARK                            x       y       z     vdW  Elec       q    Type
REMARK                         _______ _______ _______ _____ _____    ______ ____
ROOT
ATOM      1  O   LIG A   1      -9.552   6.645 131.605  0.00  0.00    -0.457 OA
ENDROOT
BRANCH   1   2
ATOM      2  C   LIG A   1      -8.621   6.080 132.414  0.00  0.00    +0.332 C 
ATOM      3  O   LIG A   1      -8.743   5.782 133.586  0.00  0.00    -0.246 OA
BRANCH   2   4
ATOM      4  C   LIG A   1      -7.401   5.894 131.608  0.00  0.00    +0.092 C 
ATOM      5  C   LIG A   1      -6.643   6.944 131.256  0.00  0.00    +0.015 C 
BRANCH   5   6
ATOM      6  C   LIG A   1      -5.424   6.810 130.446  0.00  0.00    -0.021 A 
ATOM      7  C   LIG A   1      -4.658   7.931 130.080  0.00  0.00    +0.012 A 
ATOM      8  C   LIG A   1      -3.502   7.797 129.310  0.00  0.00    +0.050 A 
ATOM      9  C   LIG A   1      -3.097   6.529 128.921  0.00  0.00    +0.158 A 
ATOM     10  C   LIG A   1      -3.833   5.410 129.298  0.00  0.00    +0.159 A 
ATOM     11  C   LIG A   1      -4.987   5.535 130.061  0.00  0.00    +0.057 A 
BRANCH   9  12
ATOM     12  O   LIG A   1      -1.974   6.335 128.167  0.00  0.00    -0.503 OA
ATOM     13  H   LIG A   1      -1.557   5.505 128.456  0.00  0.00    +0.292 HD
ENDBRANCH   9  12
BRANCH  10  14
ATOM     14  O   LIG A   1      -3.420   4.165 128.912  0.00  0.00    -0.503 OA
ATOM     15  H   LIG A   1      -3.815   3.561 129.569  0.00  0.00    +0.292 HD
ENDBRANCH  10  14
ENDBRANCH   5   6
ENDBRANCH   2   4
ENDBRANCH   1   2
BRANCH   1  16
ATOM     16  C   LIG A   1     -10.161   5.770 130.649  0.00  0.00    +0.267 C 
BRANCH  16  24
ATOM     17  C   LIG A   1     -11.605   7.811 127.169  0.00  0.00    +0.308 C 
ATOM     18  C   LIG A   1     -12.602   7.772 128.326  0.00  0.00    +0.068 C 
ATOM     19  C   LIG A   1     -12.637   9.089 129.139  0.00  0.00    -0.004 C 
ATOM     20  C   LIG A   1     -13.721  10.039 128.645  0.00  0.00    +0.008 C 
ATOM     21  C   LIG A   1     -12.844   8.670 130.602  0.00  0.00    +0.004 C 
ATOM     22  C   LIG A   1     -13.017   7.156 130.575  0.00  0.00    +0.009 C 
ATOM     23  C   LIG A   1     -12.221   6.691 129.352  0.00  0.00    +0.030 C 
ATOM     24  C   LIG A   1     -10.718   6.616 129.535  0.00  0.00    +0.005 C 
ATOM     25  C   LIG A   1      -9.888   7.264 128.699  0.00  0.00    +0.193 C 
ATOM     26  O   LIG A   1     -10.251   7.982 127.592  0.00  0.00    -0.471 OA
BRANCH  17  27
ATOM     27  O   LIG A   1     -11.723   6.642 126.363  0.00  0.00    -0.357 OA
ATOM     28  H   LIG A   1     -11.594   5.896 126.973  0.00  0.00    +0.213 HD
ENDBRANCH  17  27
ENDBRANCH  16  24
ENDBRANCH   1  16
TORSDOF 8
ENDMDL
MODEL 4
REMARK VINA RESULT:      -7.8      8.936     11.339
REMARK  Name = NuBBE_449
REMARK  9 active torsions:
REMARK  status: ('A' for Active; 'I' for Inactive)
REMARK    1  A    between atoms: O_1  and  C_2
REMARK    2  A    between atoms: C_6  and  C_8
REMARK    3  A    between atoms: C_13  and  C_14
REMARK    4  A    between atoms: C_14  and  O_15
REMARK    5  A    between atoms: O_15  and  C_16
REMARK    6  A    between atoms: C_16  and  C_17
REMARK    7  A    between atoms: C_18  and  C_19
REMARK    8  A    between atoms: C_22  and  O_23
REMARK    9  A    between atoms: C_24  and  O_25
REMARK                            x       y       z     vdW  Elec       q    Type
REMARK                         _______ _______ _______ _____ _____    ______ ____
ROOT
ATOM      1  O   LIG A   1      -9.315   5.663 130.739  0.00  0.00    -0.457 OA
ENDROOT
BRANCH   1   2
ATOM      2  C   LIG A   1      -9.079   6.119 131.995  0.00  0.00    +0.332 C 
ATOM      3  O   LIG A   1      -9.901   6.435 132.833  0.00  0.00    -0.246 OA
BRANCH   2   4
ATOM      4  C   LIG A   1      -7.617   6.176 132.168  0.00  0.00    +0.092 C 
ATOM      5  C   LIG A   1      -6.839   6.772 131.251  0.00  0.00    +0.015 C 
BRANCH   5   6
ATOM      6  C   LIG A   1      -5.377   6.846 131.375  0.00  0.00    -0.021 A 
ATOM      7  C   LIG A   1      -4.590   7.502 130.411  0.00  0.00    +0.012 A 
ATOM      8  C   LIG A   1      -3.201   7.569 130.534  0.00  0.00    +0.050 A 
ATOM      9  C   LIG A   1      -2.596   6.992 131.641  0.00  0.00    +0.158 A 
ATOM     10  C   LIG A   1      -3.367   6.361 132.613  0.00  0.00    +0.159 A 
ATOM     11  C   LIG A   1      -4.749   6.287 132.496  0.00  0.00    +0.057 A 
BRANCH   9  12
ATOM     12  O   LIG A   1      -1.242   7.025 131.816  0.00  0.00    -0.503 OA
ATOM     13  H   LIG A   1      -0.959   6.151 132.136  0.00  0.00    +0.292 HD
ENDBRANCH   9  12
BRANCH  10  14
ATOM     14  O   LIG A   1      -2.758   5.800 133.702  0.00  0.00    -0.503 OA
ATOM     15  H   LIG A   1      -3.244   4.966 133.851  0.00  0.00    +0.292 HD
ENDBRANCH  10  14
ENDBRANCH   5   6
ENDBRANCH   2   4
ENDBRANCH   1   2
BRANCH   1  16
ATOM     16  C   LIG A   1     -10.679   5.342 130.438  0.00  0.00    +0.267 C 
BRANCH  16  24
ATOM     17  C   LIG A   1     -11.995   7.711 127.119  0.00  0.00    +0.308 C 
ATOM     18  C   LIG A   1     -12.899   7.803 128.347  0.00  0.00    +0.068 C 
ATOM     19  C   LIG A   1     -12.650   9.081 129.187  0.00  0.00    -0.004 C 
ATOM     20  C   LIG A   1     -13.588  10.216 128.795  0.00  0.00    +0.008 C 
ATOM     21  C   LIG A   1     -12.821   8.656 130.653  0.00  0.00    +0.004 C 
ATOM     22  C   LIG A   1     -13.253   7.194 130.609  0.00  0.00    +0.009 C 
ATOM     23  C   LIG A   1     -12.637   6.641 129.319  0.00  0.00    +0.030 C 
ATOM     24  C   LIG A   1     -11.160   6.306 129.387  0.00  0.00    +0.005 C 
ATOM     25  C   LIG A   1     -10.293   6.831 128.504  0.00  0.00    +0.193 C 
ATOM     26  O   LIG A   1     -10.606   7.636 127.442  0.00  0.00    -0.471 OA
BRANCH  17  27
ATOM     27  O   LIG A   1     -12.368   6.605 126.301  0.00  0.00    -0.357 OA
ATOM     28  H   LIG A   1     -12.547   6.984 125.424  0.00  0.00    +0.213 HD
ENDBRANCH  17  27
ENDBRANCH  16  24
ENDBRANCH   1  16
TORSDOF 8
ENDMDL
MODEL 5
REMARK VINA RESULT:      -7.4      1.915      2.892
REMARK  Name = NuBBE_449
REMARK  9 active torsions:
REMARK  status: ('A' for Active; 'I' for Inactive)
REMARK    1  A    between atoms: O_1  and  C_2
REMARK    2  A    between atoms: C_6  and  C_8
REMARK    3  A    between atoms: C_13  and  C_14
REMARK    4  A    between atoms: C_14  and  O_15
REMARK    5  A    between atoms: O_15  and  C_16
REMARK    6  A    between atoms: C_16  and  C_17
REMARK    7  A    between atoms: C_18  and  C_19
REMARK    8  A    between atoms: C_22  and  O_23
REMARK    9  A    between atoms: C_24  and  O_25
REMARK                            x       y       z     vdW  Elec       q    Type
REMARK                         _______ _______ _______ _____ _____    ______ ____
ROOT
ATOM      1  O   LIG A   1      -6.818   2.398 126.459  0.00  0.00    -0.457 OA
ENDROOT
BRANCH   1   2
ATOM      2  C   LIG A   1      -5.557   2.898 126.417  0.00  0.00    +0.332 C 
ATOM      3  O   LIG A   1      -4.708   2.835 127.285  0.00  0.00    -0.246 OA
BRANCH   2   4
ATOM      4  C   LIG A   1      -5.394   3.556 125.108  0.00  0.00    +0.092 C 
ATOM      5  C   LIG A   1      -5.992   3.064 124.012  0.00  0.00    +0.015 C 
BRANCH   5   6
ATOM      6  C   LIG A   1      -5.852   3.679 122.685  0.00  0.00    -0.021 A 
ATOM      7  C   LIG A   1      -6.666   3.290 121.606  0.00  0.00    +0.012 A 
ATOM      8  C   LIG A   1      -6.528   3.879 120.347  0.00  0.00    +0.050 A 
ATOM      9  C   LIG A   1      -5.581   4.877 120.173  0.00  0.00    +0.158 A 
ATOM     10  C   LIG A   1      -4.786   5.286 121.239  0.00  0.00    +0.159 A 
ATOM     11  C   LIG A   1      -4.916   4.703 122.494  0.00  0.00    +0.057 A 
BRANCH   9  12
ATOM     12  O   LIG A   1      -5.399   5.489 118.965  0.00  0.00    -0.503 OA
ATOM     13  H   LIG A   1      -6.001   5.074 118.324  0.00  0.00    +0.292 HD
ENDBRANCH   9  12
BRANCH  10  14
ATOM     14  O   LIG A   1      -3.860   6.275 121.055  0.00  0.00    -0.503 OA
ATOM     15  H   LIG A   1      -3.641   6.577 121.958  0.00  0.00    +0.292 HD
ENDBRANCH  10  14
ENDBRANCH   5   6
ENDBRANCH   2   4
ENDBRANCH   1   2
BRANCH   1  16
ATOM     16  C   LIG A   1      -6.920   0.973 126.557  0.00  0.00    +0.267 C 
BRANCH  16  24
ATOM     17  C   LIG A   1      -9.734   0.116 123.441  0.00  0.00    +0.308 C 
ATOM     18  C   LIG A   1      -8.584  -0.884 123.533  0.00  0.00    +0.068 C 
ATOM     19  C   LIG A   1      -8.974  -2.188 124.272  0.00  0.00    -0.004 C 
ATOM     20  C   LIG A   1      -9.434  -3.277 123.311  0.00  0.00    +0.008 C 
ATOM     21  C   LIG A   1      -7.731  -2.600 125.075  0.00  0.00    +0.004 C 
ATOM     22  C   LIG A   1      -6.650  -1.592 124.703  0.00  0.00    +0.009 C 
ATOM     23  C   LIG A   1      -7.411  -0.311 124.347  0.00  0.00    +0.030 C 
ATOM     24  C   LIG A   1      -7.909   0.506 125.522  0.00  0.00    +0.005 C 
ATOM     25  C   LIG A   1      -9.206   0.844 125.628  0.00  0.00    +0.193 C 
ATOM     26  O   LIG A   1     -10.190   0.575 124.714  0.00  0.00    -0.471 OA
BRANCH  17  27
ATOM     27  O   LIG A   1      -9.373   1.225 122.622  0.00  0.00    -0.357 OA
ATOM     28  H   LIG A   1      -9.009   1.888 123.233  0.00  0.00    +0.213 HD
ENDBRANCH  17  27
ENDBRANCH  16  24
ENDBRANCH   1  16
TORSDOF 8
ENDMDL
MODEL 6
REMARK VINA RESULT:      -7.3      6.959      9.731
REMARK  Name = NuBBE_449
REMARK  9 active torsions:
REMARK  status: ('A' for Active; 'I' for Inactive)
REMARK    1  A    between atoms: O_1  and  C_2
REMARK    2  A    between atoms: C_6  and  C_8
REMARK    3  A    between atoms: C_13  and  C_14
REMARK    4  A    between atoms: C_14  and  O_15
REMARK    5  A    between atoms: O_15  and  C_16
REMARK    6  A    between atoms: C_16  and  C_17
REMARK    7  A    between atoms: C_18  and  C_19
REMARK    8  A    between atoms: C_22  and  O_23
REMARK    9  A    between atoms: C_24  and  O_25
REMARK                            x       y       z     vdW  Elec       q    Type
REMARK                         _______ _______ _______ _____ _____    ______ ____
ROOT
ATOM      1  O   LIG A   1      -9.476   4.351 129.703  0.00  0.00    -0.457 OA
ENDROOT
BRANCH   1   2
ATOM      2  C   LIG A   1      -8.575   3.729 130.504  0.00  0.00    +0.332 C 
ATOM      3  O   LIG A   1      -8.714   3.418 131.671  0.00  0.00    -0.246 OA
BRANCH   2   4
ATOM      4  C   LIG A   1      -7.363   3.499 129.697  0.00  0.00    +0.092 C 
ATOM      5  C   LIG A   1      -6.352   4.382 129.707  0.00  0.00    +0.015 C 
BRANCH   5   6
ATOM      6  C   LIG A   1      -5.130   4.201 128.912  0.00  0.00    -0.021 A 
ATOM      7  C   LIG A   1      -4.918   3.041 128.144  0.00  0.00    +0.012 A 
ATOM      8  C   LIG A   1      -3.754   2.875 127.392  0.00  0.00    +0.050 A 
ATOM      9  C   LIG A   1      -2.804   3.886 127.391  0.00  0.00    +0.158 A 
ATOM     10  C   LIG A   1      -3.014   5.047 128.127  0.00  0.00    +0.159 A 
ATOM     11  C   LIG A   1      -4.168   5.219 128.882  0.00  0.00    +0.057 A 
BRANCH   9  12
ATOM     12  O   LIG A   1      -1.645   3.780 126.674  0.00  0.00    -0.503 OA
ATOM     13  H   LIG A   1      -1.044   3.189 127.160  0.00  0.00    +0.292 HD
ENDBRANCH   9  12
BRANCH  10  14
ATOM     14  O   LIG A   1      -2.072   6.038 128.114  0.00  0.00    -0.503 OA
ATOM     15  H   LIG A   1      -1.239   5.588 128.356  0.00  0.00    +0.292 HD
ENDBRANCH  10  14
ENDBRANCH   5   6
ENDBRANCH   2   4
ENDBRANCH   1   2
BRANCH   1  16
ATOM     16  C   LIG A   1     -10.360   5.270 130.356  0.00  0.00    +0.267 C 
BRANCH  16  24
ATOM     17  C   LIG A   1     -11.717   7.669 127.075  0.00  0.00    +0.308 C 
ATOM     18  C   LIG A   1     -12.663   7.663 128.275  0.00  0.00    +0.068 C 
ATOM     19  C   LIG A   1     -12.519   8.923 129.164  0.00  0.00    -0.004 C 
ATOM     20  C   LIG A   1     -13.513  10.012 128.780  0.00  0.00    +0.008 C 
ATOM     21  C   LIG A   1     -12.709   8.437 130.609  0.00  0.00    +0.004 C 
ATOM     22  C   LIG A   1     -13.048   6.955 130.502  0.00  0.00    +0.009 C 
ATOM     23  C   LIG A   1     -12.360   6.485 129.217  0.00  0.00    +0.030 C 
ATOM     24  C   LIG A   1     -10.867   6.239 129.322  0.00  0.00    +0.005 C 
ATOM     25  C   LIG A   1     -10.007   6.846 128.486  0.00  0.00    +0.193 C 
ATOM     26  O   LIG A   1     -10.336   7.668 127.441  0.00  0.00    -0.471 OA
BRANCH  17  27
ATOM     27  O   LIG A   1     -11.995   6.572 126.209  0.00  0.00    -0.357 OA
ATOM     28  H   LIG A   1     -12.959   6.583 126.083  0.00  0.00    +0.213 HD
ENDBRANCH  17  27
ENDBRANCH  16  24
ENDBRANCH   1  16
TORSDOF 8
ENDMDL
MODEL 7
REMARK VINA RESULT:      -7.2      2.910      7.710
REMARK  Name = NuBBE_449
REMARK  9 active torsions:
REMARK  status: ('A' for Active; 'I' for Inactive)
REMARK    1  A    between atoms: O_1  and  C_2
REMARK    2  A    between atoms: C_6  and  C_8
REMARK    3  A    between atoms: C_13  and  C_14
REMARK    4  A    between atoms: C_14  and  O_15
REMARK    5  A    between atoms: O_15  and  C_16
REMARK    6  A    between atoms: C_16  and  C_17
REMARK    7  A    between atoms: C_18  and  C_19
REMARK    8  A    between atoms: C_22  and  O_23
REMARK    9  A    between atoms: C_24  and  O_25
REMARK                            x       y       z     vdW  Elec       q    Type
REMARK                         _______ _______ _______ _____ _____    ______ ____
ROOT
ATOM      1  O   LIG A   1      -8.584  -1.747 122.936  0.00  0.00    -0.457 OA
ENDROOT
BRANCH   1   2
ATOM      2  C   LIG A   1      -9.037  -2.791 123.675  0.00  0.00    +0.332 C 
ATOM      3  O   LIG A   1      -9.974  -3.525 123.421  0.00  0.00    -0.246 OA
BRANCH   2   4
ATOM      4  C   LIG A   1      -8.184  -2.878 124.873  0.00  0.00    +0.092 C 
ATOM      5  C   LIG A   1      -8.708  -2.738 126.101  0.00  0.00    +0.015 C 
BRANCH   5   6
ATOM      6  C   LIG A   1      -7.897  -2.807 127.324  0.00  0.00    -0.021 A 
ATOM      7  C   LIG A   1      -8.372  -3.443 128.486  0.00  0.00    +0.012 A 
ATOM      8  C   LIG A   1      -7.596  -3.505 129.645  0.00  0.00    +0.050 A 
ATOM      9  C   LIG A   1      -6.328  -2.945 129.636  0.00  0.00    +0.158 A 
ATOM     10  C   LIG A   1      -5.838  -2.335 128.485  0.00  0.00    +0.159 A 
ATOM     11  C   LIG A   1      -6.604  -2.266 127.328  0.00  0.00    +0.057 A 
BRANCH   9  12
ATOM     12  O   LIG A   1      -5.523  -2.975 130.739  0.00  0.00    -0.503 OA
ATOM     13  H   LIG A   1      -5.371  -2.058 131.026  0.00  0.00    +0.292 HD
ENDBRANCH   9  12
BRANCH  10  14
ATOM     14  O   LIG A   1      -4.583  -1.791 128.487  0.00  0.00    -0.503 OA
ATOM     15  H   LIG A   1      -4.731  -0.833 128.369  0.00  0.00    +0.292 HD
ENDBRANCH  10  14
ENDBRANCH   5   6
ENDBRANCH   2   4
ENDBRANCH   1   2
BRANCH   1  16
ATOM     16  C   LIG A   1      -9.480  -0.636 122.813  0.00  0.00    +0.267 C 
BRANCH  16  24
ATOM     17  C   LIG A   1      -7.573   3.039 123.919  0.00  0.00    +0.308 C 
ATOM     18  C   LIG A   1      -8.600   2.541 124.934  0.00  0.00    +0.068 C 
ATOM     19  C   LIG A   1      -7.954   1.817 126.142  0.00  0.00    -0.004 C 
ATOM     20  C   LIG A   1      -7.714   2.762 127.314  0.00  0.00    +0.008 C 
ATOM     21  C   LIG A   1      -8.909   0.669 126.499  0.00  0.00    +0.004 C 
ATOM     22  C   LIG A   1     -10.103   0.822 125.565  0.00  0.00    +0.009 C 
ATOM     23  C   LIG A   1      -9.537   1.493 124.309  0.00  0.00    +0.030 C 
ATOM     24  C   LIG A   1      -8.784   0.582 123.360  0.00  0.00    +0.005 C 
ATOM     25  C   LIG A   1      -7.527   0.870 122.979  0.00  0.00    +0.193 C 
ATOM     26  O   LIG A   1      -6.814   1.989 123.317  0.00  0.00    -0.471 OA
BRANCH  17  27
ATOM     27  O   LIG A   1      -8.202   3.828 122.913  0.00  0.00    -0.357 OA
ATOM     28  H   LIG A   1      -7.483   4.117 122.327  0.00  0.00    +0.213 HD
ENDBRANCH  17  27
ENDBRANCH  16  24
ENDBRANCH   1  16
TORSDOF 8
ENDMDL
MODEL 8
REMARK VINA RESULT:      -7.1      5.661      9.539
REMARK  Name = NuBBE_449
REMARK  9 active torsions:
REMARK  status: ('A' for Active; 'I' for Inactive)
REMARK    1  A    between atoms: O_1  and  C_2
REMARK    2  A    between atoms: C_6  and  C_8
REMARK    3  A    between atoms: C_13  and  C_14
REMARK    4  A    between atoms: C_14  and  O_15
REMARK    5  A    between atoms: O_15  and  C_16
REMARK    6  A    between atoms: C_16  and  C_17
REMARK    7  A    between atoms: C_18  and  C_19
REMARK    8  A    between atoms: C_22  and  O_23
REMARK    9  A    between atoms: C_24  and  O_25
REMARK                            x       y       z     vdW  Elec       q    Type
REMARK                         _______ _______ _______ _____ _____    ______ ____
ROOT
ATOM      1  O   LIG A   1      -9.720   4.428 129.372  0.00  0.00    -0.457 OA
ENDROOT
BRANCH   1   2
ATOM      2  C   LIG A   1      -8.997   3.558 130.121  0.00  0.00    +0.332 C 
ATOM      3  O   LIG A   1      -8.412   3.787 131.162  0.00  0.00    -0.246 OA
BRANCH   2   4
ATOM      4  C   LIG A   1      -9.033   2.257 129.430  0.00  0.00    +0.092 C 
ATOM      5  C   LIG A   1      -8.104   1.938 128.515  0.00  0.00    +0.015 C 
BRANCH   5   6
ATOM      6  C   LIG A   1      -8.105   0.658 127.794  0.00  0.00    -0.021 A 
ATOM      7  C   LIG A   1      -7.446  -0.474 128.307  0.00  0.00    +0.012 A 
ATOM      8  C   LIG A   1      -7.450  -1.688 127.617  0.00  0.00    +0.050 A 
ATOM      9  C   LIG A   1      -8.135  -1.775 126.414  0.00  0.00    +0.158 A 
ATOM     10  C   LIG A   1      -8.810  -0.668 125.909  0.00  0.00    +0.159 A 
ATOM     11  C   LIG A   1      -8.809   0.544 126.588  0.00  0.00    +0.057 A 
BRANCH   9  12
ATOM     12  O   LIG A   1      -8.174  -2.935 125.694  0.00  0.00    -0.503 OA
ATOM     13  H   LIG A   1      -8.064  -3.677 126.313  0.00  0.00    +0.292 HD
ENDBRANCH   9  12
BRANCH  10  14
ATOM     14  O   LIG A   1      -9.486  -0.768 124.724  0.00  0.00    -0.503 OA
ATOM     15  H   LIG A   1     -10.150  -1.468 124.879  0.00  0.00    +0.292 HD
ENDBRANCH  10  14
ENDBRANCH   5   6
ENDBRANCH   2   4
ENDBRANCH   1   2
BRANCH   1  16
ATOM     16  C   LIG A   1     -10.246   5.563 130.070  0.00  0.00    +0.267 C 
BRANCH  16  24
ATOM     17  C   LIG A   1     -12.084   7.741 126.870  0.00  0.00    +0.308 C 
ATOM     18  C   LIG A   1     -12.880   7.761 128.173  0.00  0.00    +0.068 C 
ATOM     19  C   LIG A   1     -12.686   9.068 128.980  0.00  0.00    -0.004 C 
ATOM     20  C   LIG A   1     -13.764  10.099 128.669  0.00  0.00    +0.008 C 
ATOM     21  C   LIG A   1     -12.683   8.650 130.458  0.00  0.00    +0.004 C 
ATOM     22  C   LIG A   1     -12.968   7.152 130.461  0.00  0.00    +0.009 C 
ATOM     23  C   LIG A   1     -12.417   6.644 129.125  0.00  0.00    +0.030 C 
ATOM     24  C   LIG A   1     -10.914   6.459 129.061  0.00  0.00    +0.005 C 
ATOM     25  C   LIG A   1     -10.186   7.054 128.101  0.00  0.00    +0.193 C 
ATOM     26  O   LIG A   1     -10.671   7.809 127.066  0.00  0.00    -0.471 OA
BRANCH  17  27
ATOM     27  O   LIG A   1     -12.416   6.592 126.095  0.00  0.00    -0.357 OA
ATOM     28  H   LIG A   1     -13.009   6.916 125.396  0.00  0.00    +0.213 HD
ENDBRANCH  17  27
ENDBRANCH  16  24
ENDBRANCH   1  16
TORSDOF 8
ENDMDL
MODEL 9
REMARK VINA RESULT:      -7.1      3.618      7.283
REMARK  Name = NuBBE_449
REMARK  9 active torsions:
REMARK  status: ('A' for Active; 'I' for Inactive)
REMARK    1  A    between atoms: O_1  and  C_2
REMARK    2  A    between atoms: C_6  and  C_8
REMARK    3  A    between atoms: C_13  and  C_14
REMARK    4  A    between atoms: C_14  and  O_15
REMARK    5  A    between atoms: O_15  and  C_16
REMARK    6  A    between atoms: C_16  and  C_17
REMARK    7  A    between atoms: C_18  and  C_19
REMARK    8  A    between atoms: C_22  and  O_23
REMARK    9  A    between atoms: C_24  and  O_25
REMARK                            x       y       z     vdW  Elec       q    Type
REMARK                         _______ _______ _______ _____ _____    ______ ____
ROOT
ATOM      1  O   LIG A   1      -8.641   0.820 126.696  0.00  0.00    -0.457 OA
ENDROOT
BRANCH   1   2
ATOM      2  C   LIG A   1      -7.313   0.926 126.954  0.00  0.00    +0.332 C 
ATOM      3  O   LIG A   1      -6.513   1.670 126.421  0.00  0.00    -0.246 OA
BRANCH   2   4
ATOM      4  C   LIG A   1      -6.998  -0.051 128.011  0.00  0.00    +0.092 C 
ATOM      5  C   LIG A   1      -6.292  -1.159 127.735  0.00  0.00    +0.015 C 
BRANCH   5   6
ATOM      6  C   LIG A   1      -5.961  -2.166 128.753  0.00  0.00    -0.021 A 
ATOM      7  C   LIG A   1      -6.962  -2.923 129.389  0.00  0.00    +0.012 A 
ATOM      8  C   LIG A   1      -6.641  -3.878 130.355  0.00  0.00    +0.050 A 
ATOM      9  C   LIG A   1      -5.308  -4.092 130.673  0.00  0.00    +0.158 A 
ATOM     10  C   LIG A   1      -4.308  -3.366 130.032  0.00  0.00    +0.159 A 
ATOM     11  C   LIG A   1      -4.619  -2.411 129.072  0.00  0.00    +0.057 A 
BRANCH   9  12
ATOM     12  O   LIG A   1      -4.933  -5.013 131.610  0.00  0.00    -0.503 OA
ATOM     13  H   LIG A   1      -5.462  -4.859 132.411  0.00  0.00    +0.292 HD
ENDBRANCH   9  12
BRANCH  10  14
ATOM     14  O   LIG A   1      -2.997  -3.590 130.351  0.00  0.00    -0.503 OA
ATOM     15  H   LIG A   1      -2.533  -3.590 129.492  0.00  0.00    +0.292 HD
ENDBRANCH  10  14
ENDBRANCH   5   6
ENDBRANCH   2   4
ENDBRANCH   1   2
BRANCH   1  16
ATOM     16  C   LIG A   1      -8.995   0.622 125.322  0.00  0.00    +0.267 C 
BRANCH  16  24
ATOM     17  C   LIG A   1      -8.914  -3.532 124.272  0.00  0.00    +0.308 C 
ATOM     18  C   LIG A   1      -7.767  -2.718 123.678  0.00  0.00    +0.068 C 
ATOM     19  C   LIG A   1      -6.444  -2.870 124.469  0.00  0.00    -0.004 C 
ATOM     20  C   LIG A   1      -5.554  -3.964 123.893  0.00  0.00    +0.008 C 
ATOM     21  C   LIG A   1      -5.774  -1.488 124.432  0.00  0.00    +0.004 C 
ATOM     22  C   LIG A   1      -6.669  -0.622 123.553  0.00  0.00    +0.009 C 
ATOM     23  C   LIG A   1      -8.073  -1.211 123.719  0.00  0.00    +0.030 C 
ATOM     24  C   LIG A   1      -8.796  -0.835 124.998  0.00  0.00    +0.005 C 
ATOM     25  C   LIG A   1      -9.286  -1.781 125.817  0.00  0.00    +0.193 C 
ATOM     26  O   LIG A   1      -9.266  -3.133 125.598  0.00  0.00    -0.471 OA
BRANCH  17  27
ATOM     27  O   LIG A   1     -10.059  -3.481 123.425  0.00  0.00    -0.357 OA
ATOM     28  H   LIG A   1      -9.930  -2.696 122.866  0.00  0.00    +0.213 HD
ENDBRANCH  17  27
ENDBRANCH  16  24
ENDBRANCH   1  16
TORSDOF 8
ENDMDL
