MODEL 1
REMARK VINA RESULT:      -8.2      0.000      0.000
REMARK  Name = NuBBE_434
REMARK  13 active torsions:
REMARK  status: ('A' for Active; 'I' for Inactive)
REMARK    1  A    between atoms: C_1  and  C_2
REMARK    2  A    between atoms: C_2  and  C_3
REMARK    3  A    between atoms: C_7  and  C_8
REMARK    4  A    between atoms: C_11  and  C_12
REMARK    5  A    between atoms: C_13  and  C_37
REMARK    6  A    between atoms: C_16  and  C_26
REMARK    7  A    between atoms: C_18  and  C_19
REMARK    8  A    between atoms: C_18  and  C_20
REMARK    9  A    between atoms: C_20  and  C_21
REMARK   10  A    between atoms: C_21  and  C_22
REMARK   11  A    between atoms: C_22  and  O_23
REMARK   12  A    between atoms: O_23  and  C_24
REMARK   13  A    between atoms: C_26  and  C_27
REMARK                            x       y       z     vdW  Elec       q    Type
REMARK                         _______ _______ _______ _____ _____    ______ ____
ROOT
ATOM      1  C   LIG A   1      -7.578  -3.251 125.531  0.00  0.00    +0.018 C 
ATOM      2  C   LIG A   1      -7.968  -3.978 124.238  0.00  0.00    +0.009 C 
ATOM      3  C   LIG A   1      -8.423  -2.868 123.291  0.00  0.00    +0.007 C 
ATOM      4  C   LIG A   1      -7.447  -1.691 123.541  0.00  0.00    -0.028 C 
ATOM      5  C   LIG A   1      -6.291  -1.809 122.515  0.00  0.00    +0.011 C 
ATOM      6  C   LIG A   1      -8.117  -0.323 123.307  0.00  0.00    +0.007 C 
ATOM      7  C   LIG A   1      -7.590   0.815 124.196  0.00  0.00    +0.008 C 
ATOM      8  C   LIG A   1      -7.665   0.487 125.719  0.00  0.00    -0.023 C 
ATOM      9  C   LIG A   1      -9.156   0.152 126.025  0.00  0.00    +0.012 C 
ATOM     10  C   LIG A   1      -7.225   1.710 126.722  0.00  0.00    -0.023 C 
ATOM     11  C   LIG A   1      -7.986   3.016 126.342  0.00  0.00    +0.008 C 
ATOM     12  C   LIG A   1      -7.352   4.345 126.765  0.00  0.00    +0.009 C 
ATOM     13  C   LIG A   1      -6.385   4.277 127.961  0.00  0.00    +0.020 C 
ATOM     14  C   LIG A   1      -5.186   3.263 127.594  0.00  0.00    -0.022 C 
ATOM     15  C   LIG A   1      -4.409   2.769 128.839  0.00  0.00    +0.012 C 
ATOM     16  C   LIG A   1      -5.693   2.024 126.672  0.00  0.00    +0.002 C 
ATOM     17  C   LIG A   1      -4.877   0.741 126.899  0.00  0.00    +0.005 C 
ATOM     18  C   LIG A   1      -5.238  -0.352 125.914  0.00  0.00    +0.005 C 
ATOM     19  C   LIG A   1      -6.733  -0.755 125.951  0.00  0.00    -0.000 C 
ATOM     20  C   LIG A   1      -6.905  -1.952 124.979  0.00  0.00    +0.006 C 
ATOM     21  C   LIG A   1      -7.608   1.273 128.174  0.00  0.00    +0.012 C 
ENDROOT
BRANCH   1  23
ATOM     22  C   LIG A   1     -10.119  -3.237 126.234  0.00  0.00    +0.038 C 
ATOM     23  C   LIG A   1      -8.663  -3.163 126.602  0.00  0.00    -0.076 C 
ATOM     24  C   LIG A   1      -8.335  -3.129 127.908  0.00  0.00    +0.007 C 
ENDBRANCH   1  23
BRANCH  13  25
ATOM     25  C   LIG A   1      -7.134   4.212 129.324  0.00  0.00    -0.076 C 
ATOM     26  C   LIG A   1      -8.595   4.605 129.401  0.00  0.00    +0.038 C 
ATOM     27  C   LIG A   1      -6.546   3.945 130.506  0.00  0.00    +0.007 C 
ENDBRANCH  13  25
BRANCH  14  28
ATOM     28  C   LIG A   1      -4.088   4.032 126.729  0.00  0.00    +0.018 C 
BRANCH  28  29
ATOM     29  C   LIG A   1      -2.853   4.550 127.496  0.00  0.00    +0.121 C 
BRANCH  29  30
ATOM     30  C   LIG A   1      -3.031   5.972 127.966  0.00  0.00    +0.307 C 
ATOM     31  O   LIG A   1      -4.001   6.656 127.714  0.00  0.00    -0.251 OA
BRANCH  30  32
ATOM     32  O   LIG A   1      -1.941   6.366 128.682  0.00  0.00    -0.468 OA
ATOM     33  C   LIG A   1      -2.201   6.537 130.073  0.00  0.00    +0.280 C 
ENDBRANCH  30  32
ENDBRANCH  29  30
ENDBRANCH  28  29
ENDBRANCH  14  28
TORSDOF 6
ENDMDL
MODEL 2
REMARK VINA RESULT:      -8.2      4.097      7.740
REMARK  Name = NuBBE_434
REMARK  13 active torsions:
REMARK  status: ('A' for Active; 'I' for Inactive)
REMARK    1  A    between atoms: C_1  and  C_2
REMARK    2  A    between atoms: C_2  and  C_3
REMARK    3  A    between atoms: C_7  and  C_8
REMARK    4  A    between atoms: C_11  and  C_12
REMARK    5  A    between atoms: C_13  and  C_37
REMARK    6  A    between atoms: C_16  and  C_26
REMARK    7  A    between atoms: C_18  and  C_19
REMARK    8  A    between atoms: C_18  and  C_20
REMARK    9  A    between atoms: C_20  and  C_21
REMARK   10  A    between atoms: C_21  and  C_22
REMARK   11  A    between atoms: C_22  and  O_23
REMARK   12  A    between atoms: O_23  and  C_24
REMARK   13  A    between atoms: C_26  and  C_27
REMARK                            x       y       z     vdW  Elec       q    Type
REMARK                         _______ _______ _______ _____ _____    ______ ____
ROOT
ATOM      1  C   LIG A   1      -6.725  -2.827 132.133  0.00  0.00    +0.018 C 
ATOM      2  C   LIG A   1      -6.899  -1.887 133.333  0.00  0.00    +0.009 C 
ATOM      3  C   LIG A   1      -6.780  -0.482 132.745  0.00  0.00    +0.007 C 
ATOM      4  C   LIG A   1      -7.519  -0.542 131.385  0.00  0.00    -0.028 C 
ATOM      5  C   LIG A   1      -8.984  -0.094 131.623  0.00  0.00    +0.011 C 
ATOM      6  C   LIG A   1      -6.916   0.429 130.353  0.00  0.00    +0.007 C 
ATOM      7  C   LIG A   1      -7.000  -0.045 128.893  0.00  0.00    +0.008 C 
ATOM      8  C   LIG A   1      -6.367  -1.453 128.669  0.00  0.00    -0.023 C 
ATOM      9  C   LIG A   1      -4.893  -1.358 129.166  0.00  0.00    +0.012 C 
ATOM     10  C   LIG A   1      -6.323  -1.961 127.109  0.00  0.00    -0.023 C 
ATOM     11  C   LIG A   1      -5.693  -0.860 126.203  0.00  0.00    +0.008 C 
ATOM     12  C   LIG A   1      -6.044  -0.895 124.712  0.00  0.00    +0.009 C 
ATOM     13  C   LIG A   1      -6.483  -2.262 124.156  0.00  0.00    +0.020 C 
ATOM     14  C   LIG A   1      -7.786  -2.751 124.972  0.00  0.00    -0.022 C 
ATOM     15  C   LIG A   1      -8.055  -4.270 124.827  0.00  0.00    +0.012 C 
ATOM     16  C   LIG A   1      -7.738  -2.297 126.532  0.00  0.00    +0.002 C 
ATOM     17  C   LIG A   1      -8.475  -3.276 127.460  0.00  0.00    +0.005 C 
ATOM     18  C   LIG A   1      -8.579  -2.757 128.879  0.00  0.00    +0.005 C 
ATOM     19  C   LIG A   1      -7.207  -2.459 129.535  0.00  0.00    -0.000 C 
ATOM     20  C   LIG A   1      -7.486  -2.054 131.006  0.00  0.00    +0.006 C 
ATOM     21  C   LIG A   1      -5.439  -3.252 127.072  0.00  0.00    +0.012 C 
ENDROOT
BRANCH   1  23
ATOM     22  C   LIG A   1      -4.118  -2.646 132.478  0.00  0.00    +0.038 C 
ATOM     23  C   LIG A   1      -5.311  -3.349 131.892  0.00  0.00    -0.076 C 
ATOM     24  C   LIG A   1      -5.111  -4.513 131.242  0.00  0.00    +0.007 C 
ENDBRANCH   1  23
BRANCH  13  25
ATOM     25  C   LIG A   1      -5.276  -3.205 123.885  0.00  0.00    -0.076 C 
ATOM     26  C   LIG A   1      -3.993  -2.642 123.308  0.00  0.00    +0.038 C 
ATOM     27  C   LIG A   1      -5.312  -4.547 124.006  0.00  0.00    +0.007 C 
ENDBRANCH  13  25
BRANCH  14  28
ATOM     28  C   LIG A   1      -9.087  -2.064 124.355  0.00  0.00    +0.018 C 
BRANCH  28  29
ATOM     29  C   LIG A   1      -8.930  -1.439 122.952  0.00  0.00    +0.121 C 
BRANCH  29  30
ATOM     30  C   LIG A   1      -9.586  -0.085 122.857  0.00  0.00    +0.307 C 
ATOM     31  O   LIG A   1     -10.720   0.098 122.466  0.00  0.00    -0.251 OA
BRANCH  30  32
ATOM     32  O   LIG A   1      -8.711   0.885 123.247  0.00  0.00    -0.468 OA
ATOM     33  C   LIG A   1      -9.063   2.189 122.791  0.00  0.00    +0.280 C 
ENDBRANCH  30  32
ENDBRANCH  29  30
ENDBRANCH  28  29
ENDBRANCH  14  28
TORSDOF 6
ENDMDL
MODEL 3
REMARK VINA RESULT:      -8.1      3.701      5.664
REMARK  Name = NuBBE_434
REMARK  13 active torsions:
REMARK  status: ('A' for Active; 'I' for Inactive)
REMARK    1  A    between atoms: C_1  and  C_2
REMARK    2  A    between atoms: C_2  and  C_3
REMARK    3  A    between atoms: C_7  and  C_8
REMARK    4  A    between atoms: C_11  and  C_12
REMARK    5  A    between atoms: C_13  and  C_37
REMARK    6  A    between atoms: C_16  and  C_26
REMARK    7  A    between atoms: C_18  and  C_19
REMARK    8  A    between atoms: C_18  and  C_20
REMARK    9  A    between atoms: C_20  and  C_21
REMARK   10  A    between atoms: C_21  and  C_22
REMARK   11  A    between atoms: C_22  and  O_23
REMARK   12  A    between atoms: O_23  and  C_24
REMARK   13  A    between atoms: C_26  and  C_27
REMARK                            x       y       z     vdW  Elec       q    Type
REMARK                         _______ _______ _______ _____ _____    ______ ____
ROOT
ATOM      1  C   LIG A   1      -8.988  -1.262 124.331  0.00  0.00    +0.018 C 
ATOM      2  C   LIG A   1      -8.539  -1.740 122.945  0.00  0.00    +0.009 C 
ATOM      3  C   LIG A   1      -7.017  -1.840 123.045  0.00  0.00    +0.007 C 
ATOM      4  C   LIG A   1      -6.735  -2.409 124.457  0.00  0.00    -0.028 C 
ATOM      5  C   LIG A   1      -6.621  -3.950 124.332  0.00  0.00    +0.011 C 
ATOM      6  C   LIG A   1      -5.395  -1.905 125.028  0.00  0.00    +0.007 C 
ATOM      7  C   LIG A   1      -5.364  -1.743 126.557  0.00  0.00    +0.008 C 
ATOM      8  C   LIG A   1      -6.505  -0.826 127.098  0.00  0.00    -0.023 C 
ATOM      9  C   LIG A   1      -6.356   0.541 126.365  0.00  0.00    +0.012 C 
ATOM     10  C   LIG A   1      -6.453  -0.521 128.710  0.00  0.00    -0.023 C 
ATOM     11  C   LIG A   1      -5.031  -0.031 129.119  0.00  0.00    +0.008 C 
ATOM     12  C   LIG A   1      -4.621  -0.212 130.584  0.00  0.00    +0.009 C 
ATOM     13  C   LIG A   1      -5.777  -0.314 131.597  0.00  0.00    +0.020 C 
ATOM     14  C   LIG A   1      -6.702  -1.571 131.194  0.00  0.00    -0.022 C 
ATOM     15  C   LIG A   1      -8.108  -1.520 131.840  0.00  0.00    +0.012 C 
ATOM     16  C   LIG A   1      -6.790  -1.776 129.583  0.00  0.00    +0.002 C 
ATOM     17  C   LIG A   1      -8.122  -2.397 129.134  0.00  0.00    +0.005 C 
ATOM     18  C   LIG A   1      -8.126  -2.747 127.660  0.00  0.00    +0.005 C 
ATOM     19  C   LIG A   1      -7.856  -1.536 126.732  0.00  0.00    -0.000 C 
ATOM     20  C   LIG A   1      -8.011  -2.039 125.273  0.00  0.00    +0.006 C 
ATOM     21  C   LIG A   1      -7.506   0.598 129.000  0.00  0.00    +0.012 C 
ENDROOT
BRANCH   1  23
ATOM     22  C   LIG A   1      -8.659   1.202 123.453  0.00  0.00    +0.038 C 
ATOM     23  C   LIG A   1      -9.178   0.245 124.490  0.00  0.00    -0.076 C 
ATOM     24  C   LIG A   1      -9.912   0.740 125.506  0.00  0.00    +0.007 C 
ENDBRANCH   1  23
BRANCH  13  25
ATOM     25  C   LIG A   1      -6.380   1.077 131.947  0.00  0.00    -0.076 C 
ATOM     26  C   LIG A   1      -5.603   2.338 131.629  0.00  0.00    +0.038 C 
ATOM     27  C   LIG A   1      -7.518   1.262 132.645  0.00  0.00    +0.007 C 
ENDBRANCH  13  25
BRANCH  14  28
ATOM     28  C   LIG A   1      -6.056  -2.912 131.770  0.00  0.00    +0.018 C 
BRANCH  28  29
ATOM     29  C   LIG A   1      -5.147  -3.703 130.806  0.00  0.00    +0.121 C 
BRANCH  29  30
ATOM     30  C   LIG A   1      -3.707  -3.699 131.251  0.00  0.00    +0.307 C 
ATOM     31  O   LIG A   1      -3.335  -4.026 132.359  0.00  0.00    -0.251 OA
BRANCH  30  32
ATOM     32  O   LIG A   1      -2.907  -3.253 130.241  0.00  0.00    -0.468 OA
ATOM     33  C   LIG A   1      -3.303  -3.716 128.952  0.00  0.00    +0.280 C 
ENDBRANCH  30  32
ENDBRANCH  29  30
ENDBRANCH  28  29
ENDBRANCH  14  28
TORSDOF 6
ENDMDL
MODEL 4
REMARK VINA RESULT:      -8.0      4.982      7.152
REMARK  Name = NuBBE_434
REMARK  13 active torsions:
REMARK  status: ('A' for Active; 'I' for Inactive)
REMARK    1  A    between atoms: C_1  and  C_2
REMARK    2  A    between atoms: C_2  and  C_3
REMARK    3  A    between atoms: C_7  and  C_8
REMARK    4  A    between atoms: C_11  and  C_12
REMARK    5  A    between atoms: C_13  and  C_37
REMARK    6  A    between atoms: C_16  and  C_26
REMARK    7  A    between atoms: C_18  and  C_19
REMARK    8  A    between atoms: C_18  and  C_20
REMARK    9  A    between atoms: C_20  and  C_21
REMARK   10  A    between atoms: C_21  and  C_22
REMARK   11  A    between atoms: C_22  and  O_23
REMARK   12  A    between atoms: O_23  and  C_24
REMARK   13  A    between atoms: C_26  and  C_27
REMARK                            x       y       z     vdW  Elec       q    Type
REMARK                         _______ _______ _______ _____ _____    ______ ____
ROOT
ATOM      1  C   LIG A   1      -8.949  -0.657 125.301  0.00  0.00    +0.018 C 
ATOM      2  C   LIG A   1      -8.840  -0.918 123.793  0.00  0.00    +0.009 C 
ATOM      3  C   LIG A   1      -7.431  -1.476 123.597  0.00  0.00    +0.007 C 
ATOM      4  C   LIG A   1      -7.186  -2.407 124.810  0.00  0.00    -0.028 C 
ATOM      5  C   LIG A   1      -7.590  -3.844 124.392  0.00  0.00    +0.011 C 
ATOM      6  C   LIG A   1      -5.700  -2.458 125.211  0.00  0.00    +0.007 C 
ATOM      7  C   LIG A   1      -5.442  -2.663 126.713  0.00  0.00    +0.008 C 
ATOM      8  C   LIG A   1      -6.156  -1.602 127.607  0.00  0.00    -0.023 C 
ATOM      9  C   LIG A   1      -5.660  -0.208 127.117  0.00  0.00    +0.012 C 
ATOM     10  C   LIG A   1      -5.824  -1.700 129.212  0.00  0.00    -0.023 C 
ATOM     11  C   LIG A   1      -4.282  -1.750 129.439  0.00  0.00    +0.008 C 
ATOM     12  C   LIG A   1      -3.787  -2.370 130.749  0.00  0.00    +0.009 C 
ATOM     13  C   LIG A   1      -4.789  -2.358 131.919  0.00  0.00    +0.020 C 
ATOM     14  C   LIG A   1      -6.110  -3.167 131.470  0.00  0.00    -0.022 C 
ATOM     15  C   LIG A   1      -7.341  -2.857 132.357  0.00  0.00    +0.012 C 
ATOM     16  C   LIG A   1      -6.444  -2.966 129.891  0.00  0.00    +0.002 C 
ATOM     17  C   LIG A   1      -7.947  -3.054 129.585  0.00  0.00    +0.005 C 
ATOM     18  C   LIG A   1      -8.234  -3.043 128.097  0.00  0.00    +0.005 C 
ATOM     19  C   LIG A   1      -7.697  -1.786 127.369  0.00  0.00    -0.000 C 
ATOM     20  C   LIG A   1      -8.172  -1.878 125.895  0.00  0.00    +0.006 C 
ATOM     21  C   LIG A   1      -6.419  -0.418 129.883  0.00  0.00    +0.012 C 
ENDROOT
BRANCH   1  23
ATOM     22  C   LIG A   1      -7.958   1.741 124.831  0.00  0.00    +0.038 C 
ATOM     23  C   LIG A   1      -8.624   0.763 125.759  0.00  0.00    -0.076 C 
ATOM     24  C   LIG A   1      -9.027   1.202 126.967  0.00  0.00    +0.007 C 
ENDBRANCH   1  23
BRANCH  13  25
ATOM     25  C   LIG A   1      -4.867  -0.970 132.616  0.00  0.00    -0.076 C 
ATOM     26  C   LIG A   1      -3.776   0.055 132.382  0.00  0.00    +0.038 C 
ATOM     27  C   LIG A   1      -5.788  -0.629 133.539  0.00  0.00    +0.007 C 
ENDBRANCH  13  25
BRANCH  14  28
ATOM     28  C   LIG A   1      -5.868  -4.731 131.670  0.00  0.00    +0.018 C 
BRANCH  28  29
ATOM     29  C   LIG A   1      -4.742  -5.129 132.648  0.00  0.00    +0.121 C 
BRANCH  29  30
ATOM     30  C   LIG A   1      -5.280  -5.572 133.985  0.00  0.00    +0.307 C 
ATOM     31  O   LIG A   1      -6.461  -5.620 134.262  0.00  0.00    -0.251 OA
BRANCH  30  32
ATOM     32  O   LIG A   1      -4.251  -5.877 134.825  0.00  0.00    -0.468 OA
ATOM     33  C   LIG A   1      -3.209  -6.626 134.203  0.00  0.00    +0.280 C 
ENDBRANCH  30  32
ENDBRANCH  29  30
ENDBRANCH  28  29
ENDBRANCH  14  28
TORSDOF 6
ENDMDL
MODEL 5
REMARK VINA RESULT:      -7.8      1.821      2.945
REMARK  Name = NuBBE_434
REMARK  13 active torsions:
REMARK  status: ('A' for Active; 'I' for Inactive)
REMARK    1  A    between atoms: C_1  and  C_2
REMARK    2  A    between atoms: C_2  and  C_3
REMARK    3  A    between atoms: C_7  and  C_8
REMARK    4  A    between atoms: C_11  and  C_12
REMARK    5  A    between atoms: C_13  and  C_37
REMARK    6  A    between atoms: C_16  and  C_26
REMARK    7  A    between atoms: C_18  and  C_19
REMARK    8  A    between atoms: C_18  and  C_20
REMARK    9  A    between atoms: C_20  and  C_21
REMARK   10  A    between atoms: C_21  and  C_22
REMARK   11  A    between atoms: C_22  and  O_23
REMARK   12  A    between atoms: O_23  and  C_24
REMARK   13  A    between atoms: C_26  and  C_27
REMARK                            x       y       z     vdW  Elec       q    Type
REMARK                         _______ _______ _______ _____ _____    ______ ____
ROOT
ATOM      1  C   LIG A   1      -6.832  -1.622 123.466  0.00  0.00    +0.018 C 
ATOM      2  C   LIG A   1      -7.907  -1.699 122.374  0.00  0.00    +0.009 C 
ATOM      3  C   LIG A   1      -9.168  -1.143 123.032  0.00  0.00    +0.007 C 
ATOM      4  C   LIG A   1      -8.688   0.045 123.903  0.00  0.00    -0.028 C 
ATOM      5  C   LIG A   1      -8.812   1.335 123.053  0.00  0.00    +0.011 C 
ATOM      6  C   LIG A   1      -9.569   0.243 125.150  0.00  0.00    +0.007 C 
ATOM      7  C   LIG A   1      -8.831   0.788 126.384  0.00  0.00    +0.008 C 
ATOM      8  C   LIG A   1      -7.595  -0.075 126.788  0.00  0.00    -0.023 C 
ATOM      9  C   LIG A   1      -8.126  -1.522 127.020  0.00  0.00    +0.012 C 
ATOM     10  C   LIG A   1      -6.836   0.391 128.167  0.00  0.00    -0.023 C 
ATOM     11  C   LIG A   1      -7.870   0.552 129.322  0.00  0.00    +0.008 C 
ATOM     12  C   LIG A   1      -7.482   1.468 130.487  0.00  0.00    +0.009 C 
ATOM     13  C   LIG A   1      -5.972   1.677 130.703  0.00  0.00    +0.020 C 
ATOM     14  C   LIG A   1      -5.346   2.311 129.360  0.00  0.00    -0.022 C 
ATOM     15  C   LIG A   1      -3.806   2.158 129.278  0.00  0.00    +0.012 C 
ATOM     16  C   LIG A   1      -6.075   1.750 128.019  0.00  0.00    +0.002 C 
ATOM     17  C   LIG A   1      -5.136   1.708 126.804  0.00  0.00    +0.005 C 
ATOM     18  C   LIG A   1      -5.866   1.355 125.524  0.00  0.00    +0.005 C 
ATOM     19  C   LIG A   1      -6.595  -0.011 125.580  0.00  0.00    -0.000 C 
ATOM     20  C   LIG A   1      -7.184  -0.269 124.168  0.00  0.00    +0.006 C 
ATOM     21  C   LIG A   1      -5.807  -0.731 128.526  0.00  0.00    +0.012 C 
ENDROOT
BRANCH   1  23
ATOM     22  C   LIG A   1      -7.759  -3.845 124.537  0.00  0.00    +0.038 C 
ATOM     23  C   LIG A   1      -6.624  -2.889 124.291  0.00  0.00    -0.076 C 
ATOM     24  C   LIG A   1      -5.395  -3.233 124.722  0.00  0.00    +0.007 C 
ENDBRANCH   1  23
BRANCH  13  25
ATOM     25  C   LIG A   1      -5.308   0.477 131.437  0.00  0.00    -0.076 C 
ATOM     26  C   LIG A   1      -6.171  -0.526 132.176  0.00  0.00    +0.038 C 
ATOM     27  C   LIG A   1      -3.979   0.311 131.584  0.00  0.00    +0.007 C 
ENDBRANCH  13  25
BRANCH  14  28
ATOM     28  C   LIG A   1      -5.581   3.889 129.358  0.00  0.00    +0.018 C 
BRANCH  28  29
ATOM     29  C   LIG A   1      -4.335   4.766 129.109  0.00  0.00    +0.121 C 
BRANCH  29  30
ATOM     30  C   LIG A   1      -4.488   5.635 127.886  0.00  0.00    +0.307 C 
ATOM     31  O   LIG A   1      -4.992   5.265 126.845  0.00  0.00    -0.251 OA
BRANCH  30  32
ATOM     32  O   LIG A   1      -3.957   6.869 128.120  0.00  0.00    -0.468 OA
ATOM     33  C   LIG A   1      -2.533   6.875 128.185  0.00  0.00    +0.280 C 
ENDBRANCH  30  32
ENDBRANCH  29  30
ENDBRANCH  28  29
ENDBRANCH  14  28
TORSDOF 6
ENDMDL
MODEL 6
REMARK VINA RESULT:      -7.8      2.249      3.832
REMARK  Name = NuBBE_434
REMARK  13 active torsions:
REMARK  status: ('A' for Active; 'I' for Inactive)
REMARK    1  A    between atoms: C_1  and  C_2
REMARK    2  A    between atoms: C_2  and  C_3
REMARK    3  A    between atoms: C_7  and  C_8
REMARK    4  A    between atoms: C_11  and  C_12
REMARK    5  A    between atoms: C_13  and  C_37
REMARK    6  A    between atoms: C_16  and  C_26
REMARK    7  A    between atoms: C_18  and  C_19
REMARK    8  A    between atoms: C_18  and  C_20
REMARK    9  A    between atoms: C_20  and  C_21
REMARK   10  A    between atoms: C_21  and  C_22
REMARK   11  A    between atoms: C_22  and  O_23
REMARK   12  A    between atoms: O_23  and  C_24
REMARK   13  A    between atoms: C_26  and  C_27
REMARK                            x       y       z     vdW  Elec       q    Type
REMARK                         _______ _______ _______ _____ _____    ______ ____
ROOT
ATOM      1  C   LIG A   1      -6.834  -1.655 123.373  0.00  0.00    +0.018 C 
ATOM      2  C   LIG A   1      -7.919  -1.765 122.294  0.00  0.00    +0.009 C 
ATOM      3  C   LIG A   1      -9.204  -1.319 122.990  0.00  0.00    +0.007 C 
ATOM      4  C   LIG A   1      -8.789  -0.134 123.897  0.00  0.00    -0.028 C 
ATOM      5  C   LIG A   1      -9.013   1.175 123.097  0.00  0.00    +0.011 C 
ATOM      6  C   LIG A   1      -9.661  -0.040 125.163  0.00  0.00    +0.007 C 
ATOM      7  C   LIG A   1      -8.940   0.509 126.406  0.00  0.00    +0.008 C 
ATOM      8  C   LIG A   1      -7.643  -0.283 126.760  0.00  0.00    -0.023 C 
ATOM      9  C   LIG A   1      -8.073  -1.770 126.946  0.00  0.00    +0.012 C 
ATOM     10  C   LIG A   1      -6.894   0.183 128.144  0.00  0.00    -0.023 C 
ATOM     11  C   LIG A   1      -7.917   0.234 129.319  0.00  0.00    +0.008 C 
ATOM     12  C   LIG A   1      -7.572   1.131 130.511  0.00  0.00    +0.009 C 
ATOM     13  C   LIG A   1      -6.076   1.433 130.714  0.00  0.00    +0.020 C 
ATOM     14  C   LIG A   1      -5.515   2.156 129.386  0.00  0.00    -0.022 C 
ATOM     15  C   LIG A   1      -3.971   2.109 129.277  0.00  0.00    +0.012 C 
ATOM     16  C   LIG A   1      -6.228   1.595 128.036  0.00  0.00    +0.002 C 
ATOM     17  C   LIG A   1      -5.308   1.659 126.806  0.00  0.00    +0.005 C 
ATOM     18  C   LIG A   1      -6.034   1.304 125.525  0.00  0.00    +0.005 C 
ATOM     19  C   LIG A   1      -6.670  -0.109 125.541  0.00  0.00    -0.000 C 
ATOM     20  C   LIG A   1      -7.264  -0.355 124.129  0.00  0.00    +0.006 C 
ATOM     21  C   LIG A   1      -5.787  -0.880 128.447  0.00  0.00    +0.012 C 
ENDROOT
BRANCH   1  23
ATOM     22  C   LIG A   1      -7.617  -3.922 124.468  0.00  0.00    +0.038 C 
ATOM     23  C   LIG A   1      -6.529  -2.935 124.148  0.00  0.00    -0.076 C 
ATOM     24  C   LIG A   1      -5.260  -3.258 124.464  0.00  0.00    +0.007 C 
ENDBRANCH   1  23
BRANCH  13  25
ATOM     25  C   LIG A   1      -5.321   0.255 131.394  0.00  0.00    -0.076 C 
ATOM     26  C   LIG A   1      -6.105  -0.848 132.077  0.00  0.00    +0.038 C 
ATOM     27  C   LIG A   1      -3.984   0.187 131.542  0.00  0.00    +0.007 C 
ENDBRANCH  13  25
BRANCH  14  28
ATOM     28  C   LIG A   1      -5.855   3.713 129.446  0.00  0.00    +0.018 C 
BRANCH  28  29
ATOM     29  C   LIG A   1      -7.002   4.199 128.534  0.00  0.00    +0.121 C 
BRANCH  29  30
ATOM     30  C   LIG A   1      -8.150   4.775 129.324  0.00  0.00    +0.307 C 
ATOM     31  O   LIG A   1      -8.092   5.810 129.955  0.00  0.00    -0.251 OA
BRANCH  30  32
ATOM     32  O   LIG A   1      -9.234   3.952 129.240  0.00  0.00    -0.468 OA
ATOM     33  C   LIG A   1     -10.042   3.950 130.414  0.00  0.00    +0.280 C 
ENDBRANCH  30  32
ENDBRANCH  29  30
ENDBRANCH  28  29
ENDBRANCH  14  28
TORSDOF 6
ENDMDL
MODEL 7
REMARK VINA RESULT:      -7.7      3.020      5.356
REMARK  Name = NuBBE_434
REMARK  13 active torsions:
REMARK  status: ('A' for Active; 'I' for Inactive)
REMARK    1  A    between atoms: C_1  and  C_2
REMARK    2  A    between atoms: C_2  and  C_3
REMARK    3  A    between atoms: C_7  and  C_8
REMARK    4  A    between atoms: C_11  and  C_12
REMARK    5  A    between atoms: C_13  and  C_37
REMARK    6  A    between atoms: C_16  and  C_26
REMARK    7  A    between atoms: C_18  and  C_19
REMARK    8  A    between atoms: C_18  and  C_20
REMARK    9  A    between atoms: C_20  and  C_21
REMARK   10  A    between atoms: C_21  and  C_22
REMARK   11  A    between atoms: C_22  and  O_23
REMARK   12  A    between atoms: O_23  and  C_24
REMARK   13  A    between atoms: C_26  and  C_27
REMARK                            x       y       z     vdW  Elec       q    Type
REMARK                         _______ _______ _______ _____ _____    ______ ____
ROOT
ATOM      1  C   LIG A   1      -4.966  -3.265 129.646  0.00  0.00    +0.018 C 
ATOM      2  C   LIG A   1      -5.918  -4.341 130.184  0.00  0.00    +0.009 C 
ATOM      3  C   LIG A   1      -7.125  -3.563 130.706  0.00  0.00    +0.007 C 
ATOM      4  C   LIG A   1      -7.354  -2.425 129.682  0.00  0.00    -0.028 C 
ATOM      5  C   LIG A   1      -8.388  -2.926 128.641  0.00  0.00    +0.011 C 
ATOM      6  C   LIG A   1      -7.953  -1.167 130.338  0.00  0.00    +0.007 C 
ATOM      7  C   LIG A   1      -7.527   0.163 129.694  0.00  0.00    +0.008 C 
ATOM      8  C   LIG A   1      -5.978   0.338 129.619  0.00  0.00    -0.023 C 
ATOM      9  C   LIG A   1      -5.449   0.203 131.079  0.00  0.00    +0.012 C 
ATOM     10  C   LIG A   1      -5.464   1.789 129.049  0.00  0.00    -0.023 C 
ATOM     11  C   LIG A   1      -6.172   2.949 129.812  0.00  0.00    +0.008 C 
ATOM     12  C   LIG A   1      -6.256   4.305 129.105  0.00  0.00    +0.009 C 
ATOM     13  C   LIG A   1      -5.193   4.565 128.022  0.00  0.00    +0.020 C 
ATOM     14  C   LIG A   1      -5.322   3.421 126.893  0.00  0.00    -0.022 C 
ATOM     15  C   LIG A   1      -4.060   3.303 126.004  0.00  0.00    +0.012 C 
ATOM     16  C   LIG A   1      -5.749   1.984 127.523  0.00  0.00    +0.002 C 
ATOM     17  C   LIG A   1      -5.197   0.795 126.720  0.00  0.00    +0.005 C 
ATOM     18  C   LIG A   1      -5.743  -0.531 127.207  0.00  0.00    +0.005 C 
ATOM     19  C   LIG A   1      -5.445  -0.817 128.700  0.00  0.00    -0.000 C 
ATOM     20  C   LIG A   1      -5.964  -2.248 129.000  0.00  0.00    +0.006 C 
ATOM     21  C   LIG A   1      -3.920   1.856 129.291  0.00  0.00    +0.012 C 
ENDROOT
BRANCH   1  23
ATOM     22  C   LIG A   1      -3.971  -3.090 132.081  0.00  0.00    +0.038 C 
ATOM     23  C   LIG A   1      -3.887  -2.782 130.612  0.00  0.00    -0.076 C 
ATOM     24  C   LIG A   1      -2.781  -2.165 130.151  0.00  0.00    +0.007 C 
ENDBRANCH   1  23
BRANCH  13  25
ATOM     25  C   LIG A   1      -3.820   4.976 128.628  0.00  0.00    -0.076 C 
ATOM     26  C   LIG A   1      -3.746   5.482 130.054  0.00  0.00    +0.038 C 
ATOM     27  C   LIG A   1      -2.668   5.042 127.934  0.00  0.00    +0.007 C 
ENDBRANCH  13  25
BRANCH  14  28
ATOM     28  C   LIG A   1      -6.483   3.814 125.871  0.00  0.00    +0.018 C 
BRANCH  28  29
ATOM     29  C   LIG A   1      -7.861   3.164 126.120  0.00  0.00    +0.121 C 
BRANCH  29  30
ATOM     30  C   LIG A   1      -8.425   2.533 124.871  0.00  0.00    +0.307 C 
ATOM     31  O   LIG A   1      -9.605   2.305 124.696  0.00  0.00    -0.251 OA
BRANCH  30  32
ATOM     32  O   LIG A   1      -7.419   2.242 124.000  0.00  0.00    -0.468 OA
ATOM     33  C   LIG A   1      -7.325   0.856 123.678  0.00  0.00    +0.280 C 
ENDBRANCH  30  32
ENDBRANCH  29  30
ENDBRANCH  28  29
ENDBRANCH  14  28
TORSDOF 6
ENDMDL
MODEL 8
REMARK VINA RESULT:      -7.7      4.564      6.623
REMARK  Name = NuBBE_434
REMARK  13 active torsions:
REMARK  status: ('A' for Active; 'I' for Inactive)
REMARK    1  A    between atoms: C_1  and  C_2
REMARK    2  A    between atoms: C_2  and  C_3
REMARK    3  A    between atoms: C_7  and  C_8
REMARK    4  A    between atoms: C_11  and  C_12
REMARK    5  A    between atoms: C_13  and  C_37
REMARK    6  A    between atoms: C_16  and  C_26
REMARK    7  A    between atoms: C_18  and  C_19
REMARK    8  A    between atoms: C_18  and  C_20
REMARK    9  A    between atoms: C_20  and  C_21
REMARK   10  A    between atoms: C_21  and  C_22
REMARK   11  A    between atoms: C_22  and  O_23
REMARK   12  A    between atoms: O_23  and  C_24
REMARK   13  A    between atoms: C_26  and  C_27
REMARK                            x       y       z     vdW  Elec       q    Type
REMARK                         _______ _______ _______ _____ _____    ______ ____
ROOT
ATOM      1  C   LIG A   1      -5.151  -1.661 129.427  0.00  0.00    +0.018 C 
ATOM      2  C   LIG A   1      -5.270  -3.188 129.514  0.00  0.00    +0.009 C 
ATOM      3  C   LIG A   1      -6.301  -3.434 130.615  0.00  0.00    +0.007 C 
ATOM      4  C   LIG A   1      -7.380  -2.341 130.419  0.00  0.00    -0.028 C 
ATOM      5  C   LIG A   1      -8.498  -2.936 129.525  0.00  0.00    +0.011 C 
ATOM      6  C   LIG A   1      -8.039  -1.932 131.750  0.00  0.00    +0.007 C 
ATOM      7  C   LIG A   1      -8.488  -0.463 131.824  0.00  0.00    +0.008 C 
ATOM      8  C   LIG A   1      -7.338   0.545 131.516  0.00  0.00    -0.023 C 
ATOM      9  C   LIG A   1      -6.197   0.233 132.530  0.00  0.00    +0.012 C 
ATOM     10  C   LIG A   1      -7.728   2.129 131.694  0.00  0.00    -0.023 C 
ATOM     11  C   LIG A   1      -8.390   2.367 133.086  0.00  0.00    +0.008 C 
ATOM     12  C   LIG A   1      -9.290   3.597 133.233  0.00  0.00    +0.009 C 
ATOM     13  C   LIG A   1      -9.021   4.748 132.245  0.00  0.00    +0.020 C 
ATOM     14  C   LIG A   1      -9.208   4.188 130.745  0.00  0.00    -0.022 C 
ATOM     15  C   LIG A   1      -8.548   5.093 129.675  0.00  0.00    +0.012 C 
ATOM     16  C   LIG A   1      -8.725   2.642 130.603  0.00  0.00    +0.002 C 
ATOM     17  C   LIG A   1      -8.197   2.311 129.198  0.00  0.00    +0.005 C 
ATOM     18  C   LIG A   1      -7.917   0.832 129.023  0.00  0.00    +0.005 C 
ATOM     19  C   LIG A   1      -6.890   0.268 130.037  0.00  0.00    -0.000 C 
ATOM     20  C   LIG A   1      -6.633  -1.211 129.647  0.00  0.00    +0.006 C 
ATOM     21  C   LIG A   1      -6.397   2.944 131.591  0.00  0.00    +0.012 C 
ENDROOT
BRANCH   1  23
ATOM     22  C   LIG A   1      -3.742   0.445 130.154  0.00  0.00    +0.038 C 
ATOM     23  C   LIG A   1      -4.024  -1.030 130.239  0.00  0.00    -0.076 C 
ATOM     24  C   LIG A   1      -3.330  -1.762 131.133  0.00  0.00    +0.007 C 
ENDBRANCH   1  23
BRANCH  13  25
ATOM     25  C   LIG A   1      -7.793   5.608 132.659  0.00  0.00    -0.076 C 
ATOM     26  C   LIG A   1      -7.335   5.622 134.104  0.00  0.00    +0.038 C 
ATOM     27  C   LIG A   1      -7.152   6.467 131.844  0.00  0.00    +0.007 C 
ENDBRANCH  13  25
BRANCH  14  28
ATOM     28  C   LIG A   1     -10.757   4.200 130.363  0.00  0.00    +0.018 C 
BRANCH  28  29
ATOM     29  C   LIG A   1     -11.575   5.411 130.861  0.00  0.00    +0.121 C 
BRANCH  29  30
ATOM     30  C   LIG A   1     -11.878   6.386 129.751  0.00  0.00    +0.307 C 
ATOM     31  O   LIG A   1     -12.126   6.062 128.608  0.00  0.00    -0.251 OA
BRANCH  30  32
ATOM     32  O   LIG A   1     -11.805   7.664 130.220  0.00  0.00    -0.468 OA
ATOM     33  C   LIG A   1     -12.312   8.637 129.310  0.00  0.00    +0.280 C 
ENDBRANCH  30  32
ENDBRANCH  29  30
ENDBRANCH  28  29
ENDBRANCH  14  28
TORSDOF 6
ENDMDL
MODEL 9
REMARK VINA RESULT:      -7.7      2.684      4.849
REMARK  Name = NuBBE_434
REMARK  13 active torsions:
REMARK  status: ('A' for Active; 'I' for Inactive)
REMARK    1  A    between atoms: C_1  and  C_2
REMARK    2  A    between atoms: C_2  and  C_3
REMARK    3  A    between atoms: C_7  and  C_8
REMARK    4  A    between atoms: C_11  and  C_12
REMARK    5  A    between atoms: C_13  and  C_37
REMARK    6  A    between atoms: C_16  and  C_26
REMARK    7  A    between atoms: C_18  and  C_19
REMARK    8  A    between atoms: C_18  and  C_20
REMARK    9  A    between atoms: C_20  and  C_21
REMARK   10  A    between atoms: C_21  and  C_22
REMARK   11  A    between atoms: C_22  and  O_23
REMARK   12  A    between atoms: O_23  and  C_24
REMARK   13  A    between atoms: C_26  and  C_27
REMARK                            x       y       z     vdW  Elec       q    Type
REMARK                         _______ _______ _______ _____ _____    ______ ____
ROOT
ATOM      1  C   LIG A   1      -8.397  -1.570 123.634  0.00  0.00    +0.018 C 
ATOM      2  C   LIG A   1      -8.781  -3.037 123.402  0.00  0.00    +0.009 C 
ATOM      3  C   LIG A   1      -8.260  -3.773 124.635  0.00  0.00    +0.007 C 
ATOM      4  C   LIG A   1      -8.541  -2.826 125.828  0.00  0.00    -0.028 C 
ATOM      5  C   LIG A   1      -9.915  -3.217 126.429  0.00  0.00    +0.011 C 
ATOM      6  C   LIG A   1      -7.498  -2.983 126.951  0.00  0.00    +0.007 C 
ATOM      7  C   LIG A   1      -7.200  -1.698 127.741  0.00  0.00    +0.008 C 
ATOM      8  C   LIG A   1      -6.765  -0.507 126.830  0.00  0.00    -0.023 C 
ATOM      9  C   LIG A   1      -5.523  -0.998 126.027  0.00  0.00    +0.012 C 
ATOM     10  C   LIG A   1      -6.321   0.857 127.627  0.00  0.00    -0.023 C 
ATOM     11  C   LIG A   1      -5.272   0.519 128.730  0.00  0.00    +0.008 C 
ATOM     12  C   LIG A   1      -5.143   1.500 129.899  0.00  0.00    +0.009 C 
ATOM     13  C   LIG A   1      -5.603   2.943 129.619  0.00  0.00    +0.020 C 
ATOM     14  C   LIG A   1      -7.154   2.910 129.183  0.00  0.00    -0.022 C 
ATOM     15  C   LIG A   1      -7.607   4.202 128.458  0.00  0.00    +0.012 C 
ATOM     16  C   LIG A   1      -7.521   1.581 128.322  0.00  0.00    +0.002 C 
ATOM     17  C   LIG A   1      -8.658   1.819 127.315  0.00  0.00    +0.005 C 
ATOM     18  C   LIG A   1      -9.112   0.537 126.646  0.00  0.00    +0.005 C 
ATOM     19  C   LIG A   1      -7.982  -0.203 125.887  0.00  0.00    -0.000 C 
ATOM     20  C   LIG A   1      -8.635  -1.415 125.172  0.00  0.00    +0.006 C 
ATOM     21  C   LIG A   1      -5.689   1.821 126.569  0.00  0.00    +0.012 C 
ENDROOT
BRANCH   1  23
ATOM     22  C   LIG A   1      -6.104  -2.115 122.453  0.00  0.00    +0.038 C 
ATOM     23  C   LIG A   1      -7.081  -1.115 123.006  0.00  0.00    -0.076 C 
ATOM     24  C   LIG A   1      -6.820   0.195 122.836  0.00  0.00    +0.007 C 
ENDBRANCH   1  23
BRANCH  13  25
ATOM     25  C   LIG A   1      -4.540   3.759 128.829  0.00  0.00    -0.076 C 
ATOM     26  C   LIG A   1      -3.155   3.182 128.611  0.00  0.00    +0.038 C 
ATOM     27  C   LIG A   1      -4.706   5.029 128.413  0.00  0.00    +0.007 C 
ENDBRANCH  13  25
BRANCH  14  28
ATOM     28  C   LIG A   1      -8.071   2.854 130.488  0.00  0.00    +0.018 C 
BRANCH  28  29
ATOM     29  C   LIG A   1      -8.581   1.458 130.905  0.00  0.00    +0.121 C 
BRANCH  29  30
ATOM     30  C   LIG A   1      -8.403   1.207 132.381  0.00  0.00    +0.307 C 
ATOM     31  O   LIG A   1      -8.504   2.063 133.236  0.00  0.00    -0.251 OA
BRANCH  30  32
ATOM     32  O   LIG A   1      -8.091  -0.103 132.597  0.00  0.00    -0.468 OA
ATOM     33  C   LIG A   1      -7.832  -0.833 131.401  0.00  0.00    +0.280 C 
ENDBRANCH  30  32
ENDBRANCH  29  30
ENDBRANCH  28  29
ENDBRANCH  14  28
TORSDOF 6
ENDMDL
