MODEL 1
REMARK VINA RESULT:      -7.2      0.000      0.000
REMARK  Name = NuBBE_214
REMARK  12 active torsions:
REMARK  status: ('A' for Active; 'I' for Inactive)
REMARK    1  A    between atoms: C_1  and  O_2
REMARK    2  A    between atoms: O_2  and  C_3
REMARK    3  A    between atoms: C_4  and  O_5
REMARK    4  A    between atoms: C_6  and  O_7
REMARK    5  A    between atoms: O_7  and  C_8
REMARK    6  A    between atoms: C_10  and  C_11
REMARK    7  A    between atoms: C_21  and  C_23
REMARK    8  A    between atoms: C_25  and  O_26
REMARK    9  A    between atoms: O_26  and  C_27
REMARK   10  A    between atoms: C_28  and  O_29
REMARK   11  A    between atoms: C_30  and  O_31
REMARK   12  A    between atoms: O_31  and  C_32
REMARK                            x       y       z     vdW  Elec       q    Type
REMARK                         _______ _______ _______ _____ _____    ______ ____
ROOT
ATOM      1  C   LIG A   1      -8.151   0.671 124.242  0.00  0.00    +0.154 C 
ATOM      2  O   LIG A   1      -7.332   0.018 123.256  0.00  0.00    -0.371 OA
ATOM      3  C   LIG A   1      -6.685  -1.117 123.859  0.00  0.00    +0.167 C 
ATOM      4  C   LIG A   1      -6.805  -0.948 125.369  0.00  0.00    +0.056 C 
ATOM      5  C   LIG A   1      -8.118  -0.216 125.479  0.00  0.00    +0.056 C 
ATOM      6  C   LIG A   1      -9.104  -1.379 125.457  0.00  0.00    +0.167 C 
ATOM      7  O   LIG A   1      -8.455  -2.478 126.121  0.00  0.00    -0.371 OA
ATOM      8  C   LIG A   1      -7.029  -2.241 126.142  0.00  0.00    +0.154 C 
ENDROOT
BRANCH   1  13
ATOM      9  C   LIG A   1      -7.655   4.180 125.786  0.00  0.00    +0.165 A 
ATOM     10  C   LIG A   1      -6.747   4.725 124.882  0.00  0.00    +0.201 A 
ATOM     11  C   LIG A   1      -6.267   3.966 123.795  0.00  0.00    +0.165 A 
ATOM     12  C   LIG A   1      -6.707   2.649 123.625  0.00  0.00    +0.056 A 
ATOM     13  C   LIG A   1      -7.641   2.082 124.499  0.00  0.00    -0.011 A 
ATOM     14  C   LIG A   1      -8.093   2.859 125.573  0.00  0.00    +0.056 A 
BRANCH   9  16
ATOM     15  C   LIG A   1      -7.957   4.222 128.160  0.00  0.00    +0.277 C 
ATOM     16  O   LIG A   1      -8.226   4.780 126.880  0.00  0.00    -0.491 OA
ENDBRANCH   9  16
BRANCH  10  17
ATOM     17  O   LIG A   1      -6.314   6.026 124.987  0.00  0.00    -0.501 OA
ATOM     18  H   LIG A   1      -5.718   6.169 124.234  0.00  0.00    +0.292 HD
ENDBRANCH  10  17
BRANCH  11  19
ATOM     19  O   LIG A   1      -5.399   4.630 122.961  0.00  0.00    -0.491 OA
ATOM     20  C   LIG A   1      -5.385   4.202 121.602  0.00  0.00    +0.277 C 
ENDBRANCH  11  19
ENDBRANCH   1  13
BRANCH   8  21
ATOM     21  C   LIG A   1      -6.531  -2.143 127.577  0.00  0.00    -0.011 A 
ATOM     22  C   LIG A   1      -7.431  -1.933 128.635  0.00  0.00    +0.056 A 
ATOM     23  C   LIG A   1      -7.025  -1.914 129.978  0.00  0.00    +0.165 A 
ATOM     24  C   LIG A   1      -5.665  -2.123 130.261  0.00  0.00    +0.201 A 
ATOM     25  C   LIG A   1      -4.747  -2.297 129.219  0.00  0.00    +0.165 A 
ATOM     26  C   LIG A   1      -5.165  -2.314 127.893  0.00  0.00    +0.056 A 
BRANCH  23  27
ATOM     27  O   LIG A   1      -8.038  -1.697 130.871  0.00  0.00    -0.491 OA
ATOM     28  C   LIG A   1      -8.386  -0.348 131.162  0.00  0.00    +0.277 C 
ENDBRANCH  23  27
BRANCH  24  29
ATOM     29  O   LIG A   1      -5.181  -2.164 131.541  0.00  0.00    -0.501 OA
ATOM     30  H   LIG A   1      -5.937  -1.900 132.108  0.00  0.00    +0.292 HD
ENDBRANCH  24  29
BRANCH  25  31
ATOM     31  O   LIG A   1      -3.446  -2.513 129.628  0.00  0.00    -0.491 OA
ATOM     32  C   LIG A   1      -2.867  -3.720 129.139  0.00  0.00    +0.277 C 
ENDBRANCH  25  31
ENDBRANCH   8  21
TORSDOF 8
ENDMDL
MODEL 2
REMARK VINA RESULT:      -7.2      0.235      2.335
REMARK  Name = NuBBE_214
REMARK  12 active torsions:
REMARK  status: ('A' for Active; 'I' for Inactive)
REMARK    1  A    between atoms: C_1  and  O_2
REMARK    2  A    between atoms: O_2  and  C_3
REMARK    3  A    between atoms: C_4  and  O_5
REMARK    4  A    between atoms: C_6  and  O_7
REMARK    5  A    between atoms: O_7  and  C_8
REMARK    6  A    between atoms: C_10  and  C_11
REMARK    7  A    between atoms: C_21  and  C_23
REMARK    8  A    between atoms: C_25  and  O_26
REMARK    9  A    between atoms: O_26  and  C_27
REMARK   10  A    between atoms: C_28  and  O_29
REMARK   11  A    between atoms: C_30  and  O_31
REMARK   12  A    between atoms: O_31  and  C_32
REMARK                            x       y       z     vdW  Elec       q    Type
REMARK                         _______ _______ _______ _____ _____    ______ ____
ROOT
ATOM      1  C   LIG A   1      -8.000   0.587 124.142  0.00  0.00    +0.154 C 
ATOM      2  O   LIG A   1      -7.091  -0.053 123.229  0.00  0.00    -0.371 OA
ATOM      3  C   LIG A   1      -6.471  -1.172 123.890  0.00  0.00    +0.167 C 
ATOM      4  C   LIG A   1      -6.716  -0.997 125.385  0.00  0.00    +0.056 C 
ATOM      5  C   LIG A   1      -8.048  -0.292 125.384  0.00  0.00    +0.056 C 
ATOM      6  C   LIG A   1      -9.005  -1.475 125.290  0.00  0.00    +0.167 C 
ATOM      7  O   LIG A   1      -8.390  -2.558 126.012  0.00  0.00    -0.371 OA
ATOM      8  C   LIG A   1      -6.975  -2.291 126.146  0.00  0.00    +0.154 C 
ENDROOT
BRANCH   1  13
ATOM      9  C   LIG A   1      -7.637   4.081 125.757  0.00  0.00    +0.165 A 
ATOM     10  C   LIG A   1      -6.741   4.675 124.870  0.00  0.00    +0.201 A 
ATOM     11  C   LIG A   1      -6.228   3.954 123.773  0.00  0.00    +0.165 A 
ATOM     12  C   LIG A   1      -6.621   2.626 123.574  0.00  0.00    +0.056 A 
ATOM     13  C   LIG A   1      -7.540   2.010 124.430  0.00  0.00    -0.011 A 
ATOM     14  C   LIG A   1      -8.026   2.751 125.516  0.00  0.00    +0.056 A 
BRANCH   9  16
ATOM     15  C   LIG A   1      -7.843   4.166 128.140  0.00  0.00    +0.277 C 
ATOM     16  O   LIG A   1      -8.235   4.640 126.857  0.00  0.00    -0.491 OA
ENDBRANCH   9  16
BRANCH  10  17
ATOM     17  O   LIG A   1      -6.355   5.987 125.003  0.00  0.00    -0.501 OA
ATOM     18  H   LIG A   1      -6.972   6.502 124.458  0.00  0.00    +0.292 HD
ENDBRANCH  10  17
BRANCH  11  19
ATOM     19  O   LIG A   1      -5.378   4.662 122.958  0.00  0.00    -0.491 OA
ATOM     20  C   LIG A   1      -5.317   4.243 121.598  0.00  0.00    +0.277 C 
ENDBRANCH  11  19
ENDBRANCH   1  13
BRANCH   8  21
ATOM     21  C   LIG A   1      -6.596  -2.176 127.615  0.00  0.00    -0.011 A 
ATOM     22  C   LIG A   1      -5.264  -2.347 128.027  0.00  0.00    +0.056 A 
ATOM     23  C   LIG A   1      -4.858  -2.173 129.359  0.00  0.00    +0.165 A 
ATOM     24  C   LIG A   1      -5.830  -1.805 130.304  0.00  0.00    +0.201 A 
ATOM     25  C   LIG A   1      -7.169  -1.666 129.921  0.00  0.00    +0.165 A 
ATOM     26  C   LIG A   1      -7.556  -1.842 128.597  0.00  0.00    +0.056 A 
BRANCH  23  27
ATOM     27  O   LIG A   1      -3.523  -2.380 129.574  0.00  0.00    -0.491 OA
ATOM     28  C   LIG A   1      -2.977  -3.636 129.185  0.00  0.00    +0.277 C 
ENDBRANCH  23  27
BRANCH  24  29
ATOM     29  O   LIG A   1      -5.523  -1.572 131.618  0.00  0.00    -0.501 OA
ATOM     30  H   LIG A   1      -4.905  -2.293 131.867  0.00  0.00    +0.292 HD
ENDBRANCH  24  29
BRANCH  25  31
ATOM     31  O   LIG A   1      -8.021  -1.284 130.937  0.00  0.00    -0.491 OA
ATOM     32  C   LIG A   1      -8.414   0.086 130.891  0.00  0.00    +0.277 C 
ENDBRANCH  25  31
ENDBRANCH   8  21
TORSDOF 8
ENDMDL
MODEL 3
REMARK VINA RESULT:      -7.1      0.276      2.385
REMARK  Name = NuBBE_214
REMARK  12 active torsions:
REMARK  status: ('A' for Active; 'I' for Inactive)
REMARK    1  A    between atoms: C_1  and  O_2
REMARK    2  A    between atoms: O_2  and  C_3
REMARK    3  A    between atoms: C_4  and  O_5
REMARK    4  A    between atoms: C_6  and  O_7
REMARK    5  A    between atoms: O_7  and  C_8
REMARK    6  A    between atoms: C_10  and  C_11
REMARK    7  A    between atoms: C_21  and  C_23
REMARK    8  A    between atoms: C_25  and  O_26
REMARK    9  A    between atoms: O_26  and  C_27
REMARK   10  A    between atoms: C_28  and  O_29
REMARK   11  A    between atoms: C_30  and  O_31
REMARK   12  A    between atoms: O_31  and  C_32
REMARK                            x       y       z     vdW  Elec       q    Type
REMARK                         _______ _______ _______ _____ _____    ______ ____
ROOT
ATOM      1  C   LIG A   1      -8.112   0.576 123.909  0.00  0.00    +0.154 C 
ATOM      2  O   LIG A   1      -7.213  -0.058 122.981  0.00  0.00    -0.371 OA
ATOM      3  C   LIG A   1      -6.546  -1.148 123.643  0.00  0.00    +0.167 C 
ATOM      4  C   LIG A   1      -6.752  -0.952 125.141  0.00  0.00    +0.056 C 
ATOM      5  C   LIG A   1      -8.101  -0.281 125.167  0.00  0.00    +0.056 C 
ATOM      6  C   LIG A   1      -9.030  -1.489 125.123  0.00  0.00    +0.167 C 
ATOM      7  O   LIG A   1      -8.366  -2.543 125.845  0.00  0.00    -0.371 OA
ATOM      8  C   LIG A   1      -6.955  -2.238 125.932  0.00  0.00    +0.154 C 
ENDROOT
BRANCH   1  13
ATOM      9  C   LIG A   1      -6.320   3.988 123.598  0.00  0.00    +0.165 A 
ATOM     10  C   LIG A   1      -6.834   4.643 124.714  0.00  0.00    +0.201 A 
ATOM     11  C   LIG A   1      -7.775   4.011 125.552  0.00  0.00    +0.165 A 
ATOM     12  C   LIG A   1      -8.199   2.711 125.257  0.00  0.00    +0.056 A 
ATOM     13  C   LIG A   1      -7.681   2.015 124.159  0.00  0.00    -0.011 A 
ATOM     14  C   LIG A   1      -6.753   2.674 123.341  0.00  0.00    +0.056 A 
BRANCH   9  16
ATOM     15  C   LIG A   1      -5.485   3.980 121.355  0.00  0.00    +0.277 C 
ATOM     16  O   LIG A   1      -5.398   4.450 122.694  0.00  0.00    -0.491 OA
ENDBRANCH   9  16
BRANCH  10  17
ATOM     17  O   LIG A   1      -6.420   5.906 125.065  0.00  0.00    -0.501 OA
ATOM     18  H   LIG A   1      -6.680   6.484 124.329  0.00  0.00    +0.292 HD
ENDBRANCH  10  17
BRANCH  11  19
ATOM     19  O   LIG A   1      -8.180   4.753 126.636  0.00  0.00    -0.491 OA
ATOM     20  C   LIG A   1      -7.877   4.210 127.917  0.00  0.00    +0.277 C 
ENDBRANCH  11  19
ENDBRANCH   1  13
BRANCH   8  21
ATOM     21  C   LIG A   1      -6.537  -2.086 127.387  0.00  0.00    -0.011 A 
ATOM     22  C   LIG A   1      -7.495  -1.848 128.387  0.00  0.00    +0.056 A 
ATOM     23  C   LIG A   1      -7.162  -1.778 129.749  0.00  0.00    +0.165 A 
ATOM     24  C   LIG A   1      -5.819  -1.966 130.112  0.00  0.00    +0.201 A 
ATOM     25  C   LIG A   1      -4.844  -2.168 129.128  0.00  0.00    +0.165 A 
ATOM     26  C   LIG A   1      -5.189  -2.234 127.783  0.00  0.00    +0.056 A 
BRANCH  23  27
ATOM     27  O   LIG A   1      -8.224  -1.539 130.577  0.00  0.00    -0.491 OA
ATOM     28  C   LIG A   1      -8.397  -0.214 131.065  0.00  0.00    +0.277 C 
ENDBRANCH  23  27
BRANCH  24  29
ATOM     29  O   LIG A   1      -5.404  -1.958 131.417  0.00  0.00    -0.501 OA
ATOM     30  H   LIG A   1      -5.179  -1.022 131.607  0.00  0.00    +0.292 HD
ENDBRANCH  24  29
BRANCH  25  31
ATOM     31  O   LIG A   1      -3.566  -2.358 129.614  0.00  0.00    -0.491 OA
ATOM     32  C   LIG A   1      -2.977  -3.604 129.251  0.00  0.00    +0.277 C 
ENDBRANCH  25  31
ENDBRANCH   8  21
TORSDOF 8
ENDMDL
MODEL 4
REMARK VINA RESULT:      -7.0      0.362      7.363
REMARK  Name = NuBBE_214
REMARK  12 active torsions:
REMARK  status: ('A' for Active; 'I' for Inactive)
REMARK    1  A    between atoms: C_1  and  O_2
REMARK    2  A    between atoms: O_2  and  C_3
REMARK    3  A    between atoms: C_4  and  O_5
REMARK    4  A    between atoms: C_6  and  O_7
REMARK    5  A    between atoms: O_7  and  C_8
REMARK    6  A    between atoms: C_10  and  C_11
REMARK    7  A    between atoms: C_21  and  C_23
REMARK    8  A    between atoms: C_25  and  O_26
REMARK    9  A    between atoms: O_26  and  C_27
REMARK   10  A    between atoms: C_28  and  O_29
REMARK   11  A    between atoms: C_30  and  O_31
REMARK   12  A    between atoms: O_31  and  C_32
REMARK                            x       y       z     vdW  Elec       q    Type
REMARK                         _______ _______ _______ _____ _____    ______ ____
ROOT
ATOM      1  C   LIG A   1      -6.936  -2.268 126.070  0.00  0.00    +0.154 C 
ATOM      2  O   LIG A   1      -8.343  -2.512 125.898  0.00  0.00    -0.371 OA
ATOM      3  C   LIG A   1      -8.930  -1.402 125.193  0.00  0.00    +0.167 C 
ATOM      4  C   LIG A   1      -7.930  -0.253 125.262  0.00  0.00    +0.056 C 
ATOM      5  C   LIG A   1      -6.622  -1.002 125.285  0.00  0.00    +0.056 C 
ATOM      6  C   LIG A   1      -6.383  -1.218 123.795  0.00  0.00    +0.167 C 
ATOM      7  O   LIG A   1      -6.922  -0.066 123.122  0.00  0.00    -0.371 OA
ATOM      8  C   LIG A   1      -7.852   0.603 124.004  0.00  0.00    +0.154 C 
ENDROOT
BRANCH   1  13
ATOM      9  C   LIG A   1      -7.208  -1.572 129.864  0.00  0.00    +0.165 A 
ATOM     10  C   LIG A   1      -5.907  -1.865 130.266  0.00  0.00    +0.201 A 
ATOM     11  C   LIG A   1      -4.948  -2.314 129.335  0.00  0.00    +0.165 A 
ATOM     12  C   LIG A   1      -5.308  -2.469 127.992  0.00  0.00    +0.056 A 
ATOM     13  C   LIG A   1      -6.599  -2.156 127.551  0.00  0.00    -0.011 A 
ATOM     14  C   LIG A   1      -7.531  -1.719 128.502  0.00  0.00    +0.056 A 
BRANCH   9  16
ATOM     15  C   LIG A   1      -8.380   0.286 130.814  0.00  0.00    +0.277 C 
ATOM     16  O   LIG A   1      -8.249  -1.118 130.631  0.00  0.00    -0.491 OA
ENDBRANCH   9  16
BRANCH  10  17
ATOM     17  O   LIG A   1      -5.496  -1.694 131.566  0.00  0.00    -0.501 OA
ATOM     18  H   LIG A   1      -5.506  -2.579 131.966  0.00  0.00    +0.292 HD
ENDBRANCH  10  17
BRANCH  11  19
ATOM     19  O   LIG A   1      -3.695  -2.539 129.853  0.00  0.00    -0.491 OA
ATOM     20  C   LIG A   1      -2.929  -3.562 129.224  0.00  0.00    +0.277 C 
ENDBRANCH  11  19
ENDBRANCH   1  13
BRANCH   8  21
ATOM     21  C   LIG A   1      -7.373   2.016 124.303  0.00  0.00    -0.011 A 
ATOM     22  C   LIG A   1      -6.572   2.711 123.381  0.00  0.00    +0.056 A 
ATOM     23  C   LIG A   1      -6.173   4.042 123.581  0.00  0.00    +0.165 A 
ATOM     24  C   LIG A   1      -6.606   4.694 124.747  0.00  0.00    +0.201 A 
ATOM     25  C   LIG A   1      -7.373   4.007 125.695  0.00  0.00    +0.165 A 
ATOM     26  C   LIG A   1      -7.760   2.689 125.483  0.00  0.00    +0.056 A 
BRANCH  23  27
ATOM     27  O   LIG A   1      -5.397   4.555 122.578  0.00  0.00    -0.491 OA
ATOM     28  C   LIG A   1      -5.558   4.011 121.273  0.00  0.00    +0.277 C 
ENDBRANCH  23  27
BRANCH  24  29
ATOM     29  O   LIG A   1      -6.303   6.003 125.010  0.00  0.00    -0.501 OA
ATOM     30  H   LIG A   1      -5.769   5.981 125.833  0.00  0.00    +0.292 HD
ENDBRANCH  24  29
BRANCH  25  31
ATOM     31  O   LIG A   1      -7.751   4.763 126.787  0.00  0.00    -0.491 OA
ATOM     32  C   LIG A   1      -7.602   4.102 128.041  0.00  0.00    +0.277 C 
ENDBRANCH  25  31
ENDBRANCH   8  21
TORSDOF 8
ENDMDL
MODEL 5
REMARK VINA RESULT:      -7.0      0.363      7.054
REMARK  Name = NuBBE_214
REMARK  12 active torsions:
REMARK  status: ('A' for Active; 'I' for Inactive)
REMARK    1  A    between atoms: C_1  and  O_2
REMARK    2  A    between atoms: O_2  and  C_3
REMARK    3  A    between atoms: C_4  and  O_5
REMARK    4  A    between atoms: C_6  and  O_7
REMARK    5  A    between atoms: O_7  and  C_8
REMARK    6  A    between atoms: C_10  and  C_11
REMARK    7  A    between atoms: C_21  and  C_23
REMARK    8  A    between atoms: C_25  and  O_26
REMARK    9  A    between atoms: O_26  and  C_27
REMARK   10  A    between atoms: C_28  and  O_29
REMARK   11  A    between atoms: C_30  and  O_31
REMARK   12  A    between atoms: O_31  and  C_32
REMARK                            x       y       z     vdW  Elec       q    Type
REMARK                         _______ _______ _______ _____ _____    ______ ____
ROOT
ATOM      1  C   LIG A   1      -7.059  -2.117 126.024  0.00  0.00    +0.154 C 
ATOM      2  O   LIG A   1      -8.466  -2.398 125.925  0.00  0.00    -0.371 OA
ATOM      3  C   LIG A   1      -9.115  -1.315 125.233  0.00  0.00    +0.167 C 
ATOM      4  C   LIG A   1      -8.143  -0.141 125.235  0.00  0.00    +0.056 C 
ATOM      5  C   LIG A   1      -6.817  -0.857 125.205  0.00  0.00    +0.056 C 
ATOM      6  C   LIG A   1      -6.645  -1.092 123.709  0.00  0.00    +0.167 C 
ATOM      7  O   LIG A   1      -7.246   0.035 123.045  0.00  0.00    -0.371 OA
ATOM      8  C   LIG A   1      -8.148   0.695 123.961  0.00  0.00    +0.154 C 
ENDROOT
BRANCH   1  13
ATOM      9  C   LIG A   1      -7.172  -1.399 129.822  0.00  0.00    +0.165 A 
ATOM     10  C   LIG A   1      -5.838  -1.617 130.157  0.00  0.00    +0.201 A 
ATOM     11  C   LIG A   1      -4.905  -2.022 129.181  0.00  0.00    +0.165 A 
ATOM     12  C   LIG A   1      -5.326  -2.210 127.860  0.00  0.00    +0.056 A 
ATOM     13  C   LIG A   1      -6.653  -1.972 127.485  0.00  0.00    -0.011 A 
ATOM     14  C   LIG A   1      -7.557  -1.578 128.480  0.00  0.00    +0.056 A 
BRANCH   9  16
ATOM     15  C   LIG A   1      -8.394   0.402 130.817  0.00  0.00    +0.277 C 
ATOM     16  O   LIG A   1      -8.196  -0.995 130.639  0.00  0.00    -0.491 OA
ENDBRANCH   9  16
BRANCH  10  17
ATOM     17  O   LIG A   1      -5.371  -1.410 131.433  0.00  0.00    -0.501 OA
ATOM     18  H   LIG A   1      -5.545  -2.235 131.916  0.00  0.00    +0.292 HD
ENDBRANCH  10  17
BRANCH  11  19
ATOM     19  O   LIG A   1      -3.617  -2.173 129.635  0.00  0.00    -0.491 OA
ATOM     20  C   LIG A   1      -3.019  -3.447 129.415  0.00  0.00    +0.277 C 
ENDBRANCH  11  19
ENDBRANCH   1  13
BRANCH   8  21
ATOM     21  C   LIG A   1      -7.691   2.125 124.214  0.00  0.00    -0.011 A 
ATOM     22  C   LIG A   1      -8.177   2.848 125.316  0.00  0.00    +0.056 A 
ATOM     23  C   LIG A   1      -7.725   4.139 125.630  0.00  0.00    +0.165 A 
ATOM     24  C   LIG A   1      -6.741   4.713 124.808  0.00  0.00    +0.201 A 
ATOM     25  C   LIG A   1      -6.271   4.024 123.684  0.00  0.00    +0.165 A 
ATOM     26  C   LIG A   1      -6.730   2.746 123.386  0.00  0.00    +0.056 A 
BRANCH  23  27
ATOM     27  O   LIG A   1      -8.309   4.688 126.738  0.00  0.00    -0.491 OA
ATOM     28  C   LIG A   1      -7.864   4.238 128.013  0.00  0.00    +0.277 C 
ENDBRANCH  23  27
BRANCH  24  29
ATOM     29  O   LIG A   1      -6.208   5.950 125.058  0.00  0.00    -0.501 OA
ATOM     30  H   LIG A   1      -5.237   5.810 125.072  0.00  0.00    +0.292 HD
ENDBRANCH  24  29
BRANCH  25  31
ATOM     31  O   LIG A   1      -5.294   4.687 122.969  0.00  0.00    -0.491 OA
ATOM     32  C   LIG A   1      -5.226   4.328 121.592  0.00  0.00    +0.277 C 
ENDBRANCH  25  31
ENDBRANCH   8  21
TORSDOF 8
ENDMDL
MODEL 6
REMARK VINA RESULT:      -6.9      4.158      7.546
REMARK  Name = NuBBE_214
REMARK  12 active torsions:
REMARK  status: ('A' for Active; 'I' for Inactive)
REMARK    1  A    between atoms: C_1  and  O_2
REMARK    2  A    between atoms: O_2  and  C_3
REMARK    3  A    between atoms: C_4  and  O_5
REMARK    4  A    between atoms: C_6  and  O_7
REMARK    5  A    between atoms: O_7  and  C_8
REMARK    6  A    between atoms: C_10  and  C_11
REMARK    7  A    between atoms: C_21  and  C_23
REMARK    8  A    between atoms: C_25  and  O_26
REMARK    9  A    between atoms: O_26  and  C_27
REMARK   10  A    between atoms: C_28  and  O_29
REMARK   11  A    between atoms: C_30  and  O_31
REMARK   12  A    between atoms: O_31  and  C_32
REMARK                            x       y       z     vdW  Elec       q    Type
REMARK                         _______ _______ _______ _____ _____    ______ ____
ROOT
ATOM      1  C   LIG A   1      -4.225   3.810 127.798  0.00  0.00    +0.154 C 
ATOM      2  O   LIG A   1      -3.401   4.978 127.637  0.00  0.00    -0.371 OA
ATOM      3  C   LIG A   1      -3.587   5.844 128.772  0.00  0.00    +0.167 C 
ATOM      4  C   LIG A   1      -4.854   5.381 129.482  0.00  0.00    +0.056 C 
ATOM      5  C   LIG A   1      -4.831   3.903 129.191  0.00  0.00    +0.056 C 
ATOM      6  C   LIG A   1      -3.930   3.398 130.313  0.00  0.00    +0.167 C 
ATOM      7  O   LIG A   1      -4.183   4.241 131.452  0.00  0.00    -0.371 OA
ATOM      8  C   LIG A   1      -4.804   5.467 131.002  0.00  0.00    +0.154 C 
ENDROOT
BRANCH   1  13
ATOM      9  C   LIG A   1      -6.037   4.286 124.415  0.00  0.00    +0.165 A 
ATOM     10  C   LIG A   1      -7.265   3.697 124.704  0.00  0.00    +0.201 A 
ATOM     11  C   LIG A   1      -7.509   3.120 125.967  0.00  0.00    +0.165 A 
ATOM     12  C   LIG A   1      -6.504   3.137 126.940  0.00  0.00    +0.056 A 
ATOM     13  C   LIG A   1      -5.269   3.747 126.691  0.00  0.00    -0.011 A 
ATOM     14  C   LIG A   1      -5.055   4.304 125.424  0.00  0.00    +0.056 A 
BRANCH   9  16
ATOM     15  C   LIG A   1      -5.344   4.071 122.134  0.00  0.00    +0.277 C 
ATOM     16  O   LIG A   1      -5.643   4.897 123.253  0.00  0.00    -0.491 OA
ENDBRANCH   9  16
BRANCH  10  17
ATOM     17  O   LIG A   1      -8.295   3.689 123.794  0.00  0.00    -0.501 OA
ATOM     18  H   LIG A   1      -8.737   2.831 123.902  0.00  0.00    +0.292 HD
ENDBRANCH  10  17
BRANCH  11  19
ATOM     19  O   LIG A   1      -8.770   2.600 126.135  0.00  0.00    -0.491 OA
ATOM     20  C   LIG A   1      -8.838   1.238 126.545  0.00  0.00    +0.277 C 
ENDBRANCH  11  19
ENDBRANCH   1  13
BRANCH   8  21
ATOM     21  C   LIG A   1      -6.190   5.612 131.613  0.00  0.00    -0.011 A 
ATOM     22  C   LIG A   1      -6.455   5.136 132.908  0.00  0.00    +0.056 A 
ATOM     23  C   LIG A   1      -7.696   5.318 133.538  0.00  0.00    +0.165 A 
ATOM     24  C   LIG A   1      -8.698   6.012 132.840  0.00  0.00    +0.201 A 
ATOM     25  C   LIG A   1      -8.465   6.462 131.535  0.00  0.00    +0.165 A 
ATOM     26  C   LIG A   1      -7.231   6.274 130.924  0.00  0.00    +0.056 A 
BRANCH  23  27
ATOM     27  O   LIG A   1      -7.772   4.788 134.797  0.00  0.00    -0.491 OA
ATOM     28  C   LIG A   1      -7.469   5.642 135.894  0.00  0.00    +0.277 C 
ENDBRANCH  23  27
BRANCH  24  29
ATOM     29  O   LIG A   1      -9.925   6.275 133.388  0.00  0.00    -0.501 OA
ATOM     30  H   LIG A   1     -10.123   7.202 133.136  0.00  0.00    +0.292 HD
ENDBRANCH  24  29
BRANCH  25  31
ATOM     31  O   LIG A   1      -9.520   7.146 130.965  0.00  0.00    -0.491 OA
ATOM     32  C   LIG A   1      -9.814   6.762 129.625  0.00  0.00    +0.277 C 
ENDBRANCH  25  31
ENDBRANCH   8  21
TORSDOF 8
ENDMDL
MODEL 7
REMARK VINA RESULT:      -6.9      0.382      3.337
REMARK  Name = NuBBE_214
REMARK  12 active torsions:
REMARK  status: ('A' for Active; 'I' for Inactive)
REMARK    1  A    between atoms: C_1  and  O_2
REMARK    2  A    between atoms: O_2  and  C_3
REMARK    3  A    between atoms: C_4  and  O_5
REMARK    4  A    between atoms: C_6  and  O_7
REMARK    5  A    between atoms: O_7  and  C_8
REMARK    6  A    between atoms: C_10  and  C_11
REMARK    7  A    between atoms: C_21  and  C_23
REMARK    8  A    between atoms: C_25  and  O_26
REMARK    9  A    between atoms: O_26  and  C_27
REMARK   10  A    between atoms: C_28  and  O_29
REMARK   11  A    between atoms: C_30  and  O_31
REMARK   12  A    between atoms: O_31  and  C_32
REMARK                            x       y       z     vdW  Elec       q    Type
REMARK                         _______ _______ _______ _____ _____    ______ ____
ROOT
ATOM      1  C   LIG A   1      -8.056   0.456 124.052  0.00  0.00    +0.154 C 
ATOM      2  O   LIG A   1      -7.129  -0.197 123.167  0.00  0.00    -0.371 OA
ATOM      3  C   LIG A   1      -6.474  -1.265 123.877  0.00  0.00    +0.167 C 
ATOM      4  C   LIG A   1      -6.723  -1.030 125.362  0.00  0.00    +0.056 C 
ATOM      5  C   LIG A   1      -8.076  -0.366 125.333  0.00  0.00    +0.056 C 
ATOM      6  C   LIG A   1      -8.997  -1.581 125.295  0.00  0.00    +0.167 C 
ATOM      7  O   LIG A   1      -8.348  -2.611 126.064  0.00  0.00    -0.371 OA
ATOM      8  C   LIG A   1      -6.942  -2.295 126.182  0.00  0.00    +0.154 C 
ENDROOT
BRANCH   1  13
ATOM      9  C   LIG A   1      -6.278   3.871 123.694  0.00  0.00    +0.165 A 
ATOM     10  C   LIG A   1      -6.822   4.551 124.781  0.00  0.00    +0.201 A 
ATOM     11  C   LIG A   1      -7.778   3.935 125.613  0.00  0.00    +0.165 A 
ATOM     12  C   LIG A   1      -8.188   2.625 125.342  0.00  0.00    +0.056 A 
ATOM     13  C   LIG A   1      -7.640   1.904 124.274  0.00  0.00    -0.011 A 
ATOM     14  C   LIG A   1      -6.697   2.548 123.462  0.00  0.00    +0.056 A 
BRANCH   9  16
ATOM     15  C   LIG A   1      -5.583   4.104 121.416  0.00  0.00    +0.277 C 
ATOM     16  O   LIG A   1      -5.338   4.316 122.800  0.00  0.00    -0.491 OA
ENDBRANCH   9  16
BRANCH  10  17
ATOM     17  O   LIG A   1      -6.424   5.826 125.109  0.00  0.00    -0.501 OA
ATOM     18  H   LIG A   1      -6.465   6.336 124.283  0.00  0.00    +0.292 HD
ENDBRANCH  10  17
BRANCH  11  19
ATOM     19  O   LIG A   1      -8.213   4.702 126.667  0.00  0.00    -0.491 OA
ATOM     20  C   LIG A   1      -7.874   4.231 127.968  0.00  0.00    +0.277 C 
ENDBRANCH  11  19
ENDBRANCH   1  13
BRANCH   8  21
ATOM     21  C   LIG A   1      -6.565  -2.101 127.644  0.00  0.00    -0.011 A 
ATOM     22  C   LIG A   1      -5.245  -2.309 128.077  0.00  0.00    +0.056 A 
ATOM     23  C   LIG A   1      -4.838  -2.067 129.398  0.00  0.00    +0.165 A 
ATOM     24  C   LIG A   1      -5.795  -1.591 130.309  0.00  0.00    +0.201 A 
ATOM     25  C   LIG A   1      -7.124  -1.414 129.906  0.00  0.00    +0.165 A 
ATOM     26  C   LIG A   1      -7.512  -1.658 128.594  0.00  0.00    +0.056 A 
BRANCH  23  27
ATOM     27  O   LIG A   1      -3.515  -2.324 129.637  0.00  0.00    -0.491 OA
ATOM     28  C   LIG A   1      -2.990  -3.565 129.182  0.00  0.00    +0.277 C 
ENDBRANCH  23  27
BRANCH  24  29
ATOM     29  O   LIG A   1      -5.484  -1.287 131.607  0.00  0.00    -0.501 OA
ATOM     30  H   LIG A   1      -5.517  -0.308 131.654  0.00  0.00    +0.292 HD
ENDBRANCH  24  29
BRANCH  25  31
ATOM     31  O   LIG A   1      -7.962  -0.924 130.888  0.00  0.00    -0.491 OA
ATOM     32  C   LIG A   1      -8.380   0.423 130.687  0.00  0.00    +0.277 C 
ENDBRANCH  25  31
ENDBRANCH   8  21
TORSDOF 8
ENDMDL
MODEL 8
REMARK VINA RESULT:      -6.8      3.209      7.486
REMARK  Name = NuBBE_214
REMARK  12 active torsions:
REMARK  status: ('A' for Active; 'I' for Inactive)
REMARK    1  A    between atoms: C_1  and  O_2
REMARK    2  A    between atoms: O_2  and  C_3
REMARK    3  A    between atoms: C_4  and  O_5
REMARK    4  A    between atoms: C_6  and  O_7
REMARK    5  A    between atoms: O_7  and  C_8
REMARK    6  A    between atoms: C_10  and  C_11
REMARK    7  A    between atoms: C_21  and  C_23
REMARK    8  A    between atoms: C_25  and  O_26
REMARK    9  A    between atoms: O_26  and  C_27
REMARK   10  A    between atoms: C_28  and  O_29
REMARK   11  A    between atoms: C_30  and  O_31
REMARK   12  A    between atoms: O_31  and  C_32
REMARK                            x       y       z     vdW  Elec       q    Type
REMARK                         _______ _______ _______ _____ _____    ______ ____
ROOT
ATOM      1  C   LIG A   1      -6.106   3.428 128.948  0.00  0.00    +0.154 C 
ATOM      2  O   LIG A   1      -5.063   2.449 129.099  0.00  0.00    -0.371 OA
ATOM      3  C   LIG A   1      -4.904   1.735 127.860  0.00  0.00    +0.167 C 
ATOM      4  C   LIG A   1      -6.146   2.018 127.022  0.00  0.00    +0.056 C 
ATOM      5  C   LIG A   1      -6.498   3.410 127.477  0.00  0.00    +0.056 C 
ATOM      6  C   LIG A   1      -5.605   4.249 126.569  0.00  0.00    +0.167 C 
ATOM      7  O   LIG A   1      -5.515   3.544 125.318  0.00  0.00    -0.371 OA
ATOM      8  C   LIG A   1      -5.889   2.163 125.527  0.00  0.00    +0.154 C 
ENDROOT
BRANCH   1  13
ATOM      9  C   LIG A   1      -9.652   3.226 130.477  0.00  0.00    +0.165 A 
ATOM     10  C   LIG A   1      -9.367   2.594 131.685  0.00  0.00    +0.201 A 
ATOM     11  C   LIG A   1      -8.050   2.203 132.003  0.00  0.00    +0.165 A 
ATOM     12  C   LIG A   1      -7.018   2.452 131.092  0.00  0.00    +0.056 A 
ATOM     13  C   LIG A   1      -7.266   3.110 129.882  0.00  0.00    -0.011 A 
ATOM     14  C   LIG A   1      -8.586   3.479 129.593  0.00  0.00    +0.056 A 
BRANCH   9  16
ATOM     15  C   LIG A   1     -11.257   4.998 130.373  0.00  0.00    +0.277 C 
ATOM     16  O   LIG A   1     -10.864   3.677 130.022  0.00  0.00    -0.491 OA
ENDBRANCH   9  16
BRANCH  10  17
ATOM     17  O   LIG A   1     -10.342   2.362 132.626  0.00  0.00    -0.501 OA
ATOM     18  H   LIG A   1     -10.180   3.002 133.339  0.00  0.00    +0.292 HD
ENDBRANCH  10  17
BRANCH  11  19
ATOM     19  O   LIG A   1      -7.899   1.617 133.237  0.00  0.00    -0.491 OA
ATOM     20  C   LIG A   1      -6.578   1.605 133.768  0.00  0.00    +0.277 C 
ENDBRANCH  11  19
ENDBRANCH   1  13
BRANCH   8  21
ATOM     21  C   LIG A   1      -7.119   1.818 124.699  0.00  0.00    -0.011 A 
ATOM     22  C   LIG A   1      -7.606   2.714 123.733  0.00  0.00    +0.056 A 
ATOM     23  C   LIG A   1      -8.689   2.404 122.896  0.00  0.00    +0.165 A 
ATOM     24  C   LIG A   1      -9.292   1.143 123.034  0.00  0.00    +0.201 A 
ATOM     25  C   LIG A   1      -8.845   0.251 124.015  0.00  0.00    +0.165 A 
ATOM     26  C   LIG A   1      -7.772   0.573 124.838  0.00  0.00    +0.056 A 
BRANCH  23  27
ATOM     27  O   LIG A   1      -9.024   3.396 122.016  0.00  0.00    -0.491 OA
ATOM     28  C   LIG A   1      -8.163   3.614 120.904  0.00  0.00    +0.277 C 
ENDBRANCH  23  27
BRANCH  24  29
ATOM     29  O   LIG A   1     -10.327   0.734 122.234  0.00  0.00    -0.501 OA
ATOM     30  H   LIG A   1      -9.956   0.006 121.691  0.00  0.00    +0.292 HD
ENDBRANCH  24  29
BRANCH  25  31
ATOM     31  O   LIG A   1      -9.507  -0.960 124.037  0.00  0.00    -0.491 OA
ATOM     32  C   LIG A   1      -8.662  -2.088 124.253  0.00  0.00    +0.277 C 
ENDBRANCH  25  31
ENDBRANCH   8  21
TORSDOF 8
ENDMDL
MODEL 9
REMARK VINA RESULT:      -6.8      3.365      7.494
REMARK  Name = NuBBE_214
REMARK  12 active torsions:
REMARK  status: ('A' for Active; 'I' for Inactive)
REMARK    1  A    between atoms: C_1  and  O_2
REMARK    2  A    between atoms: O_2  and  C_3
REMARK    3  A    between atoms: C_4  and  O_5
REMARK    4  A    between atoms: C_6  and  O_7
REMARK    5  A    between atoms: O_7  and  C_8
REMARK    6  A    between atoms: C_10  and  C_11
REMARK    7  A    between atoms: C_21  and  C_23
REMARK    8  A    between atoms: C_25  and  O_26
REMARK    9  A    between atoms: O_26  and  C_27
REMARK   10  A    between atoms: C_28  and  O_29
REMARK   11  A    between atoms: C_30  and  O_31
REMARK   12  A    between atoms: O_31  and  C_32
REMARK                            x       y       z     vdW  Elec       q    Type
REMARK                         _______ _______ _______ _____ _____    ______ ____
ROOT
ATOM      1  C   LIG A   1      -5.966   3.988 128.567  0.00  0.00    +0.154 C 
ATOM      2  O   LIG A   1      -4.865   3.069 128.678  0.00  0.00    -0.371 OA
ATOM      3  C   LIG A   1      -4.728   2.348 127.440  0.00  0.00    +0.167 C 
ATOM      4  C   LIG A   1      -6.022   2.552 126.661  0.00  0.00    +0.056 C 
ATOM      5  C   LIG A   1      -6.427   3.930 127.118  0.00  0.00    +0.056 C 
ATOM      6  C   LIG A   1      -5.626   4.803 126.159  0.00  0.00    +0.167 C 
ATOM      7  O   LIG A   1      -5.559   4.087 124.912  0.00  0.00    -0.371 OA
ATOM      8  C   LIG A   1      -5.847   2.691 125.154  0.00  0.00    +0.154 C 
ENDROOT
BRANCH   1  13
ATOM      9  C   LIG A   1      -7.821   2.494 131.613  0.00  0.00    +0.165 A 
ATOM     10  C   LIG A   1      -9.128   2.877 131.322  0.00  0.00    +0.201 A 
ATOM     11  C   LIG A   1      -9.418   3.638 130.171  0.00  0.00    +0.165 A 
ATOM     12  C   LIG A   1      -8.380   4.015 129.312  0.00  0.00    +0.056 A 
ATOM     13  C   LIG A   1      -7.060   3.621 129.561  0.00  0.00    -0.011 A 
ATOM     14  C   LIG A   1      -6.804   2.872 130.717  0.00  0.00    +0.056 A 
BRANCH   9  16
ATOM     15  C   LIG A   1      -7.004   2.439 133.861  0.00  0.00    +0.277 C 
ATOM     16  O   LIG A   1      -7.373   1.750 132.673  0.00  0.00    -0.491 OA
ENDBRANCH   9  16
BRANCH  10  17
ATOM     17  O   LIG A   1     -10.185   2.500 132.115  0.00  0.00    -0.501 OA
ATOM     18  H   LIG A   1     -10.882   3.158 131.959  0.00  0.00    +0.292 HD
ENDBRANCH  10  17
BRANCH  11  19
ATOM     19  O   LIG A   1     -10.749   3.924 129.983  0.00  0.00    -0.491 OA
ATOM     20  C   LIG A   1     -11.149   5.262 130.264  0.00  0.00    +0.277 C 
ENDBRANCH  11  19
ENDBRANCH   1  13
BRANCH   8  21
ATOM     21  C   LIG A   1      -7.095   2.270 124.391  0.00  0.00    -0.011 A 
ATOM     22  C   LIG A   1      -7.564   3.032 123.308  0.00  0.00    +0.056 A 
ATOM     23  C   LIG A   1      -8.664   2.638 122.530  0.00  0.00    +0.165 A 
ATOM     24  C   LIG A   1      -9.304   1.431 122.853  0.00  0.00    +0.201 A 
ATOM     25  C   LIG A   1      -8.875   0.676 123.951  0.00  0.00    +0.165 A 
ATOM     26  C   LIG A   1      -7.784   1.079 124.712  0.00  0.00    +0.056 A 
BRANCH  23  27
ATOM     27  O   LIG A   1      -8.977   3.504 121.518  0.00  0.00    -0.491 OA
ATOM     28  C   LIG A   1      -7.956   3.820 120.578  0.00  0.00    +0.277 C 
ENDBRANCH  23  27
BRANCH  24  29
ATOM     29  O   LIG A   1     -10.358   0.944 122.126  0.00  0.00    -0.501 OA
ATOM     30  H   LIG A   1     -10.570   0.077 122.535  0.00  0.00    +0.292 HD
ENDBRANCH  24  29
BRANCH  25  31
ATOM     31  O   LIG A   1      -9.573  -0.498 124.150  0.00  0.00    -0.491 OA
ATOM     32  C   LIG A   1      -8.778  -1.678 124.064  0.00  0.00    +0.277 C 
ENDBRANCH  25  31
ENDBRANCH   8  21
TORSDOF 8
ENDMDL
