MODEL 1
REMARK VINA RESULT:      -7.0      0.000      0.000
REMARK  Name = NuBBE_2422
REMARK  9 active torsions:
REMARK  status: ('A' for Active; 'I' for Inactive)
REMARK    1  A    between atoms: O_1  and  C_2
REMARK    2  A    between atoms: O_1  and  C_3
REMARK    3  A    between atoms: C_12  and  O_17
REMARK    4  A    between atoms: C_13  and  O_15
REMARK    5  A    between atoms: O_15  and  C_16
REMARK    6  A    between atoms: O_17  and  C_18
REMARK    7  A    between atoms: N_19  and  C_20
REMARK    8  A    between atoms: C_25  and  O_26
REMARK    9  A    between atoms: O_26  and  C_27
REMARK                            x       y       z     vdW  Elec       q    Type
REMARK                         _______ _______ _______ _____ _____    ______ ____
ROOT
ATOM      1  C   LIG A   1      -7.433   1.758 123.518  0.00  0.00    +0.170 A 
ATOM      2  C   LIG A   1      -6.971   1.266 124.775  0.00  0.00    +0.033 A 
ATOM      3  C   LIG A   1      -6.027   2.047 125.503  0.00  0.00    -0.015 A 
ATOM      4  C   LIG A   1      -5.567   1.559 126.886  0.00  0.00    +0.092 C 
ATOM      5  C   LIG A   1      -6.827   1.031 127.622  0.00  0.00    +0.059 C 
ATOM      6  C   LIG A   1      -7.418  -0.110 126.818  0.00  0.00    -0.034 A 
ATOM      7  C   LIG A   1      -7.438  -0.000 125.412  0.00  0.00    -0.007 A 
ATOM      8  C   LIG A   1      -7.831  -1.138 124.685  0.00  0.00    +0.058 A 
ATOM      9  C   LIG A   1      -8.255  -2.320 125.317  0.00  0.00    +0.162 A 
ATOM     10  C   LIG A   1      -8.265  -2.385 126.720  0.00  0.00    +0.162 A 
ATOM     11  C   LIG A   1      -7.875  -1.273 127.461  0.00  0.00    +0.053 A 
ATOM     12  N   LIG A   1      -4.844   2.596 127.676  0.00  0.00    -0.298 NA
ATOM     13  C   LIG A   1      -4.170   2.013 128.841  0.00  0.00    +0.105 C 
ATOM     14  C   LIG A   1      -3.835   3.256 126.828  0.00  0.00    +0.089 C 
ATOM     15  C   LIG A   1      -4.512   4.057 125.719  0.00  0.00    +0.051 C 
ATOM     16  C   LIG A   1      -5.509   3.227 124.957  0.00  0.00    -0.037 A 
ATOM     17  C   LIG A   1      -5.976   3.689 123.727  0.00  0.00    +0.053 A 
ATOM     18  C   LIG A   1      -6.954   2.991 123.016  0.00  0.00    +0.162 A 
ENDROOT
BRANCH   1  19
ATOM     19  O   LIG A   1      -8.437   1.034 122.913  0.00  0.00    -0.491 OA
ATOM     20  C   LIG A   1      -9.774   1.488 123.092  0.00  0.00    +0.277 C 
ENDBRANCH   1  19
BRANCH  10  21
ATOM     21  O   LIG A   1      -8.647  -3.462 127.486  0.00  0.00    -0.491 OA
ATOM     22  C   LIG A   1      -8.399  -3.368 128.886  0.00  0.00    +0.277 C 
ENDBRANCH  10  21
BRANCH   9  23
ATOM     23  O   LIG A   1      -8.616  -3.435 124.613  0.00  0.00    -0.491 OA
ATOM     24  C   LIG A   1      -9.487  -3.269 123.502  0.00  0.00    +0.277 C 
ENDBRANCH   9  23
BRANCH  18  25
ATOM     25  O   LIG A   1      -7.445   3.465 121.825  0.00  0.00    -0.491 OA
ATOM     26  C   LIG A   1      -6.482   3.831 120.839  0.00  0.00    +0.277 C 
ENDBRANCH  18  25
TORSDOF 4
ENDMDL
MODEL 2
REMARK VINA RESULT:      -6.8      2.913      7.300
REMARK  Name = NuBBE_2422
REMARK  9 active torsions:
REMARK  status: ('A' for Active; 'I' for Inactive)
REMARK    1  A    between atoms: O_1  and  C_2
REMARK    2  A    between atoms: O_1  and  C_3
REMARK    3  A    between atoms: C_12  and  O_17
REMARK    4  A    between atoms: C_13  and  O_15
REMARK    5  A    between atoms: O_15  and  C_16
REMARK    6  A    between atoms: O_17  and  C_18
REMARK    7  A    between atoms: N_19  and  C_20
REMARK    8  A    between atoms: C_25  and  O_26
REMARK    9  A    between atoms: O_26  and  C_27
REMARK                            x       y       z     vdW  Elec       q    Type
REMARK                         _______ _______ _______ _____ _____    ______ ____
ROOT
ATOM      1  C   LIG A   1      -7.579  -1.235 128.778  0.00  0.00    +0.170 A 
ATOM      2  C   LIG A   1      -7.766  -0.565 127.532  0.00  0.00    +0.033 A 
ATOM      3  C   LIG A   1      -8.306  -1.303 126.441  0.00  0.00    -0.015 A 
ATOM      4  C   LIG A   1      -8.571  -0.578 125.110  0.00  0.00    +0.092 C 
ATOM      5  C   LIG A   1      -9.192   0.800 125.462  0.00  0.00    +0.059 C 
ATOM      6  C   LIG A   1      -8.205   1.576 126.312  0.00  0.00    -0.034 A 
ATOM      7  C   LIG A   1      -7.474   0.880 127.296  0.00  0.00    -0.007 A 
ATOM      8  C   LIG A   1      -6.446   1.583 127.951  0.00  0.00    +0.058 A 
ATOM      9  C   LIG A   1      -6.190   2.942 127.695  0.00  0.00    +0.162 A 
ATOM     10  C   LIG A   1      -6.963   3.620 126.740  0.00  0.00    +0.162 A 
ATOM     11  C   LIG A   1      -7.983   2.943 126.074  0.00  0.00    +0.053 A 
ATOM     12  N   LIG A   1      -9.420  -1.356 124.164  0.00  0.00    -0.298 NA
ATOM     13  C   LIG A   1      -9.397  -0.773 122.818  0.00  0.00    +0.105 C 
ATOM     14  C   LIG A   1      -8.935  -2.745 124.085  0.00  0.00    +0.089 C 
ATOM     15  C   LIG A   1      -9.140  -3.459 125.420  0.00  0.00    +0.051 C 
ATOM     16  C   LIG A   1      -8.570  -2.672 126.568  0.00  0.00    -0.037 A 
ATOM     17  C   LIG A   1      -8.380  -3.305 127.795  0.00  0.00    +0.053 A 
ATOM     18  C   LIG A   1      -7.921  -2.601 128.910  0.00  0.00    +0.162 A 
ENDROOT
BRANCH   1  19
ATOM     19  O   LIG A   1      -7.175  -0.451 129.837  0.00  0.00    -0.491 OA
ATOM     20  C   LIG A   1      -8.173  -0.030 130.760  0.00  0.00    +0.277 C 
ENDBRANCH   1  19
BRANCH  10  21
ATOM     21  O   LIG A   1      -6.838   4.941 126.374  0.00  0.00    -0.491 OA
ATOM     22  C   LIG A   1      -6.191   5.200 125.132  0.00  0.00    +0.277 C 
ENDBRANCH  10  21
BRANCH   9  23
ATOM     23  O   LIG A   1      -5.178   3.622 128.313  0.00  0.00    -0.491 OA
ATOM     24  C   LIG A   1      -3.847   3.370 127.884  0.00  0.00    +0.277 C 
ENDBRANCH   9  23
BRANCH  18  25
ATOM     25  O   LIG A   1      -7.773  -3.214 130.129  0.00  0.00    -0.491 OA
ATOM     26  C   LIG A   1      -6.524  -3.858 130.371  0.00  0.00    +0.277 C 
ENDBRANCH  18  25
TORSDOF 4
ENDMDL
MODEL 3
REMARK VINA RESULT:      -6.8      1.434      5.798
REMARK  Name = NuBBE_2422
REMARK  9 active torsions:
REMARK  status: ('A' for Active; 'I' for Inactive)
REMARK    1  A    between atoms: O_1  and  C_2
REMARK    2  A    between atoms: O_1  and  C_3
REMARK    3  A    between atoms: C_12  and  O_17
REMARK    4  A    between atoms: C_13  and  O_15
REMARK    5  A    between atoms: O_15  and  C_16
REMARK    6  A    between atoms: O_17  and  C_18
REMARK    7  A    between atoms: N_19  and  C_20
REMARK    8  A    between atoms: C_25  and  O_26
REMARK    9  A    between atoms: O_26  and  C_27
REMARK                            x       y       z     vdW  Elec       q    Type
REMARK                         _______ _______ _______ _____ _____    ______ ____
ROOT
ATOM      1  C   LIG A   1      -7.616  -1.142 124.453  0.00  0.00    +0.170 A 
ATOM      2  C   LIG A   1      -7.262   0.051 125.151  0.00  0.00    +0.033 A 
ATOM      3  C   LIG A   1      -7.294   0.037 126.575  0.00  0.00    -0.015 A 
ATOM      4  C   LIG A   1      -6.856   1.295 127.342  0.00  0.00    +0.092 C 
ATOM      5  C   LIG A   1      -5.593   1.844 126.627  0.00  0.00    +0.059 C 
ATOM      6  C   LIG A   1      -5.953   2.183 125.194  0.00  0.00    -0.034 A 
ATOM      7  C   LIG A   1      -6.815   1.315 124.495  0.00  0.00    -0.007 A 
ATOM      8  C   LIG A   1      -7.270   1.739 123.233  0.00  0.00    +0.058 A 
ATOM      9  C   LIG A   1      -6.838   2.943 122.649  0.00  0.00    +0.162 A 
ATOM     10  C   LIG A   1      -5.945   3.767 123.351  0.00  0.00    +0.162 A 
ATOM     11  C   LIG A   1      -5.485   3.371 124.605  0.00  0.00    +0.053 A 
ATOM     12  N   LIG A   1      -6.626   1.061 128.796  0.00  0.00    -0.298 NA
ATOM     13  C   LIG A   1      -6.508   2.324 129.533  0.00  0.00    +0.105 C 
ATOM     14  C   LIG A   1      -7.747   0.288 129.360  0.00  0.00    +0.089 C 
ATOM     15  C   LIG A   1      -7.776  -1.119 128.770  0.00  0.00    +0.051 C 
ATOM     16  C   LIG A   1      -7.739  -1.096 127.267  0.00  0.00    -0.037 A 
ATOM     17  C   LIG A   1      -8.079  -2.251 126.563  0.00  0.00    +0.053 A 
ATOM     18  C   LIG A   1      -7.992  -2.302 125.170  0.00  0.00    +0.162 A 
ENDROOT
BRANCH   1  19
ATOM     19  O   LIG A   1      -7.448  -1.120 123.086  0.00  0.00    -0.491 OA
ATOM     20  C   LIG A   1      -6.311  -1.789 122.553  0.00  0.00    +0.277 C 
ENDBRANCH   1  19
BRANCH  10  21
ATOM     21  O   LIG A   1      -5.431   4.970 122.923  0.00  0.00    -0.491 OA
ATOM     22  C   LIG A   1      -4.411   4.910 121.931  0.00  0.00    +0.277 C 
ENDBRANCH  10  21
BRANCH   9  23
ATOM     23  O   LIG A   1      -7.294   3.368 121.433  0.00  0.00    -0.491 OA
ATOM     24  C   LIG A   1      -8.700   3.477 121.250  0.00  0.00    +0.277 C 
ENDBRANCH   9  23
BRANCH  18  25
ATOM     25  O   LIG A   1      -8.287  -3.451 124.479  0.00  0.00    -0.491 OA
ATOM     26  C   LIG A   1      -9.534  -3.477 123.788  0.00  0.00    +0.277 C 
ENDBRANCH  18  25
TORSDOF 4
ENDMDL
MODEL 4
REMARK VINA RESULT:      -6.7      1.945      5.867
REMARK  Name = NuBBE_2422
REMARK  9 active torsions:
REMARK  status: ('A' for Active; 'I' for Inactive)
REMARK    1  A    between atoms: O_1  and  C_2
REMARK    2  A    between atoms: O_1  and  C_3
REMARK    3  A    between atoms: C_12  and  O_17
REMARK    4  A    between atoms: C_13  and  O_15
REMARK    5  A    between atoms: O_15  and  C_16
REMARK    6  A    between atoms: O_17  and  C_18
REMARK    7  A    between atoms: N_19  and  C_20
REMARK    8  A    between atoms: C_25  and  O_26
REMARK    9  A    between atoms: O_26  and  C_27
REMARK                            x       y       z     vdW  Elec       q    Type
REMARK                         _______ _______ _______ _____ _____    ______ ____
ROOT
ATOM      1  C   LIG A   1      -7.596  -1.657 124.821  0.00  0.00    +0.170 A 
ATOM      2  C   LIG A   1      -7.160  -0.866 125.925  0.00  0.00    +0.033 A 
ATOM      3  C   LIG A   1      -7.318  -1.393 127.239  0.00  0.00    -0.015 A 
ATOM      4  C   LIG A   1      -6.796  -0.579 128.435  0.00  0.00    +0.092 C 
ATOM      5  C   LIG A   1      -5.416  -0.002 128.021  0.00  0.00    +0.059 C 
ATOM      6  C   LIG A   1      -5.604   0.885 126.807  0.00  0.00    -0.034 A 
ATOM      7  C   LIG A   1      -6.503   0.469 125.804  0.00  0.00    -0.007 A 
ATOM      8  C   LIG A   1      -6.788   1.385 124.775  0.00  0.00    +0.058 A 
ATOM      9  C   LIG A   1      -6.160   2.640 124.698  0.00  0.00    +0.162 A 
ATOM     10  C   LIG A   1      -5.236   3.011 125.688  0.00  0.00    +0.162 A 
ATOM     11  C   LIG A   1      -4.942   2.122 126.720  0.00  0.00    +0.053 A 
ATOM     12  N   LIG A   1      -6.726  -1.358 129.704  0.00  0.00    -0.298 NA
ATOM     13  C   LIG A   1      -6.517  -0.482 130.862  0.00  0.00    +0.105 C 
ATOM     14  C   LIG A   1      -7.980  -2.107 129.899  0.00  0.00    +0.089 C 
ATOM     15  C   LIG A   1      -8.132  -3.183 128.826  0.00  0.00    +0.051 C 
ATOM     16  C   LIG A   1      -7.960  -2.620 127.442  0.00  0.00    -0.037 A 
ATOM     17  C   LIG A   1      -8.378  -3.375 126.347  0.00  0.00    +0.053 A 
ATOM     18  C   LIG A   1      -8.175  -2.929 125.040  0.00  0.00    +0.162 A 
ENDROOT
BRANCH   1  19
ATOM     19  O   LIG A   1      -7.307  -1.164 123.567  0.00  0.00    -0.491 OA
ATOM     20  C   LIG A   1      -6.242  -1.777 122.850  0.00  0.00    +0.277 C 
ENDBRANCH   1  19
BRANCH  10  21
ATOM     21  O   LIG A   1      -4.541   4.197 125.757  0.00  0.00    -0.491 OA
ATOM     22  C   LIG A   1      -4.582   4.887 127.002  0.00  0.00    +0.277 C 
ENDBRANCH  10  21
BRANCH   9  23
ATOM     23  O   LIG A   1      -6.451   3.542 123.712  0.00  0.00    -0.491 OA
ATOM     24  C   LIG A   1      -6.453   3.082 122.368  0.00  0.00    +0.277 C 
ENDBRANCH   9  23
BRANCH  18  25
ATOM     25  O   LIG A   1      -8.549  -3.690 123.961  0.00  0.00    -0.491 OA
ATOM     26  C   LIG A   1      -9.808  -3.380 123.367  0.00  0.00    +0.277 C 
ENDBRANCH  18  25
TORSDOF 4
ENDMDL
MODEL 5
REMARK VINA RESULT:      -6.6      2.493      7.023
REMARK  Name = NuBBE_2422
REMARK  9 active torsions:
REMARK  status: ('A' for Active; 'I' for Inactive)
REMARK    1  A    between atoms: O_1  and  C_2
REMARK    2  A    between atoms: O_1  and  C_3
REMARK    3  A    between atoms: C_12  and  O_17
REMARK    4  A    between atoms: C_13  and  O_15
REMARK    5  A    between atoms: O_15  and  C_16
REMARK    6  A    between atoms: O_17  and  C_18
REMARK    7  A    between atoms: N_19  and  C_20
REMARK    8  A    between atoms: C_25  and  O_26
REMARK    9  A    between atoms: O_26  and  C_27
REMARK                            x       y       z     vdW  Elec       q    Type
REMARK                         _______ _______ _______ _____ _____    ______ ____
ROOT
ATOM      1  C   LIG A   1      -7.181   0.278 128.201  0.00  0.00    +0.170 A 
ATOM      2  C   LIG A   1      -7.449   0.046 126.819  0.00  0.00    +0.033 A 
ATOM      3  C   LIG A   1      -8.007  -1.207 126.438  0.00  0.00    -0.015 A 
ATOM      4  C   LIG A   1      -8.358  -1.448 124.960  0.00  0.00    +0.092 C 
ATOM      5  C   LIG A   1      -9.016  -0.144 124.434  0.00  0.00    +0.059 C 
ATOM      6  C   LIG A   1      -8.025   0.993 124.574  0.00  0.00    -0.034 A 
ATOM      7  C   LIG A   1      -7.225   1.047 125.734  0.00  0.00    -0.007 A 
ATOM      8  C   LIG A   1      -6.197   2.008 125.762  0.00  0.00    +0.058 A 
ATOM      9  C   LIG A   1      -6.006   2.928 124.716  0.00  0.00    +0.162 A 
ATOM     10  C   LIG A   1      -6.846   2.878 123.593  0.00  0.00    +0.162 A 
ATOM     11  C   LIG A   1      -7.867   1.931 123.540  0.00  0.00    +0.053 A 
ATOM     12  N   LIG A   1      -9.217  -2.646 124.737  0.00  0.00    -0.298 NA
ATOM     13  C   LIG A   1      -9.276  -3.007 123.316  0.00  0.00    +0.105 C 
ATOM     14  C   LIG A   1      -8.682  -3.791 125.494  0.00  0.00    +0.089 C 
ATOM     15  C   LIG A   1      -8.800  -3.541 126.995  0.00  0.00    +0.051 C 
ATOM     16  C   LIG A   1      -8.211  -2.214 127.389  0.00  0.00    -0.037 A 
ATOM     17  C   LIG A   1      -7.942  -1.965 128.734  0.00  0.00    +0.053 A 
ATOM     18  C   LIG A   1      -7.463  -0.724 129.159  0.00  0.00    +0.162 A 
ENDROOT
BRANCH   1  19
ATOM     19  O   LIG A   1      -6.762   1.547 128.536  0.00  0.00    -0.491 OA
ATOM     20  C   LIG A   1      -7.743   2.455 129.024  0.00  0.00    +0.277 C 
ENDBRANCH   1  19
BRANCH  10  21
ATOM     21  O   LIG A   1      -6.789   3.700 122.491  0.00  0.00    -0.491 OA
ATOM     22  C   LIG A   1      -5.982   3.256 121.405  0.00  0.00    +0.277 C 
ENDBRANCH  10  21
BRANCH   9  23
ATOM     23  O   LIG A   1      -4.995   3.848 124.730  0.00  0.00    -0.491 OA
ATOM     24  C   LIG A   1      -4.205   3.952 125.907  0.00  0.00    +0.277 C 
ENDBRANCH   9  23
BRANCH  18  25
ATOM     25  O   LIG A   1      -7.237  -0.464 130.487  0.00  0.00    -0.491 OA
ATOM     26  C   LIG A   1      -8.379  -0.461 131.340  0.00  0.00    +0.277 C 
ENDBRANCH  18  25
TORSDOF 4
ENDMDL
MODEL 6
REMARK VINA RESULT:      -6.6      2.357      5.999
REMARK  Name = NuBBE_2422
REMARK  9 active torsions:
REMARK  status: ('A' for Active; 'I' for Inactive)
REMARK    1  A    between atoms: O_1  and  C_2
REMARK    2  A    between atoms: O_1  and  C_3
REMARK    3  A    between atoms: C_12  and  O_17
REMARK    4  A    between atoms: C_13  and  O_15
REMARK    5  A    between atoms: O_15  and  C_16
REMARK    6  A    between atoms: O_17  and  C_18
REMARK    7  A    between atoms: N_19  and  C_20
REMARK    8  A    between atoms: C_25  and  O_26
REMARK    9  A    between atoms: O_26  and  C_27
REMARK                            x       y       z     vdW  Elec       q    Type
REMARK                         _______ _______ _______ _____ _____    ______ ____
ROOT
ATOM      1  C   LIG A   1      -8.239  -0.736 125.290  0.00  0.00    +0.170 A 
ATOM      2  C   LIG A   1      -7.477  -0.519 126.476  0.00  0.00    +0.033 A 
ATOM      3  C   LIG A   1      -7.528  -1.505 127.503  0.00  0.00    -0.015 A 
ATOM      4  C   LIG A   1      -6.664  -1.315 128.761  0.00  0.00    +0.092 C 
ATOM      5  C   LIG A   1      -5.279  -0.801 128.285  0.00  0.00    +0.059 C 
ATOM      6  C   LIG A   1      -5.472   0.516 127.558  0.00  0.00    -0.034 A 
ATOM      7  C   LIG A   1      -6.587   0.656 126.707  0.00  0.00    -0.007 A 
ATOM      8  C   LIG A   1      -6.837   1.937 126.183  0.00  0.00    +0.058 A 
ATOM      9  C   LIG A   1      -5.984   3.026 126.430  0.00  0.00    +0.162 A 
ATOM     10  C   LIG A   1      -4.857   2.846 127.248  0.00  0.00    +0.162 A 
ATOM     11  C   LIG A   1      -4.591   1.588 127.784  0.00  0.00    +0.053 A 
ATOM     12  N   LIG A   1      -6.554  -2.540 129.602  0.00  0.00    -0.298 NA
ATOM     13  C   LIG A   1      -5.985  -2.239 130.920  0.00  0.00    +0.105 C 
ATOM     14  C   LIG A   1      -7.888  -3.138 129.789  0.00  0.00    +0.089 C 
ATOM     15  C   LIG A   1      -8.429  -3.662 128.461  0.00  0.00    +0.051 C 
ATOM     16  C   LIG A   1      -8.368  -2.618 127.381  0.00  0.00    -0.037 A 
ATOM     17  C   LIG A   1      -9.104  -2.809 126.212  0.00  0.00    +0.053 A 
ATOM     18  C   LIG A   1      -9.026  -1.904 125.152  0.00  0.00    +0.162 A 
ENDROOT
BRANCH   1  19
ATOM     19  O   LIG A   1      -8.059   0.178 124.275  0.00  0.00    -0.491 OA
ATOM     20  C   LIG A   1      -7.158  -0.169 123.230  0.00  0.00    +0.277 C 
ENDBRANCH   1  19
BRANCH  10  21
ATOM     21  O   LIG A   1      -3.930   3.805 127.587  0.00  0.00    -0.491 OA
ATOM     22  C   LIG A   1      -2.661   3.719 126.948  0.00  0.00    +0.277 C 
ENDBRANCH  10  21
BRANCH   9  23
ATOM     23  O   LIG A   1      -6.237   4.277 125.940  0.00  0.00    -0.491 OA
ATOM     24  C   LIG A   1      -5.970   4.521 124.566  0.00  0.00    +0.277 C 
ENDBRANCH   9  23
BRANCH  18  25
ATOM     25  O   LIG A   1      -9.717  -2.112 123.984  0.00  0.00    -0.491 OA
ATOM     26  C   LIG A   1      -9.387  -3.287 123.248  0.00  0.00    +0.277 C 
ENDBRANCH  18  25
TORSDOF 4
ENDMDL
MODEL 7
REMARK VINA RESULT:      -6.4      3.161      5.229
REMARK  Name = NuBBE_2422
REMARK  9 active torsions:
REMARK  status: ('A' for Active; 'I' for Inactive)
REMARK    1  A    between atoms: O_1  and  C_2
REMARK    2  A    between atoms: O_1  and  C_3
REMARK    3  A    between atoms: C_12  and  O_17
REMARK    4  A    between atoms: C_13  and  O_15
REMARK    5  A    between atoms: O_15  and  C_16
REMARK    6  A    between atoms: O_17  and  C_18
REMARK    7  A    between atoms: N_19  and  C_20
REMARK    8  A    between atoms: C_25  and  O_26
REMARK    9  A    between atoms: O_26  and  C_27
REMARK                            x       y       z     vdW  Elec       q    Type
REMARK                         _______ _______ _______ _____ _____    ______ ____
ROOT
ATOM      1  C   LIG A   1      -8.672   2.277 125.085  0.00  0.00    +0.170 A 
ATOM      2  C   LIG A   1      -8.602   1.144 125.949  0.00  0.00    +0.033 A 
ATOM      3  C   LIG A   1      -8.687  -0.155 125.372  0.00  0.00    -0.015 A 
ATOM      4  C   LIG A   1      -8.551  -1.386 126.283  0.00  0.00    +0.092 C 
ATOM      5  C   LIG A   1      -7.402  -1.084 127.282  0.00  0.00    +0.059 C 
ATOM      6  C   LIG A   1      -7.768   0.146 128.088  0.00  0.00    -0.034 A 
ATOM      7  C   LIG A   1      -8.403   1.217 127.427  0.00  0.00    -0.007 A 
ATOM      8  C   LIG A   1      -8.885   2.270 128.226  0.00  0.00    +0.058 A 
ATOM      9  C   LIG A   1      -8.691   2.302 129.618  0.00  0.00    +0.162 A 
ATOM     10  C   LIG A   1      -8.017   1.241 130.243  0.00  0.00    +0.162 A 
ATOM     11  C   LIG A   1      -7.535   0.184 129.474  0.00  0.00    +0.053 A 
ATOM     12  N   LIG A   1      -8.335  -2.660 125.540  0.00  0.00    -0.298 NA
ATOM     13  C   LIG A   1      -8.511  -3.827 126.411  0.00  0.00    +0.105 C 
ATOM     14  C   LIG A   1      -9.292  -2.755 124.424  0.00  0.00    +0.089 C 
ATOM     15  C   LIG A   1      -9.004  -1.678 123.381  0.00  0.00    +0.051 C 
ATOM     16  C   LIG A   1      -8.913  -0.310 123.999  0.00  0.00    -0.037 A 
ATOM     17  C   LIG A   1      -8.977   0.812 123.174  0.00  0.00    +0.053 A 
ATOM     18  C   LIG A   1      -8.826   2.100 123.690  0.00  0.00    +0.162 A 
ENDROOT
BRANCH   1  19
ATOM     19  O   LIG A   1      -8.458   3.505 125.672  0.00  0.00    -0.491 OA
ATOM     20  C   LIG A   1      -7.160   4.076 125.548  0.00  0.00    +0.277 C 
ENDBRANCH   1  19
BRANCH  10  21
ATOM     21  O   LIG A   1      -7.749   1.121 131.588  0.00  0.00    -0.491 OA
ATOM     22  C   LIG A   1      -6.490   0.556 131.938  0.00  0.00    +0.277 C 
ENDBRANCH  10  21
BRANCH   9  23
ATOM     23  O   LIG A   1      -9.177   3.312 130.399  0.00  0.00    -0.491 OA
ATOM     24  C   LIG A   1     -10.587   3.441 130.520  0.00  0.00    +0.277 C 
ENDBRANCH   9  23
BRANCH  18  25
ATOM     25  O   LIG A   1      -8.848   3.203 122.873  0.00  0.00    -0.491 OA
ATOM     26  C   LIG A   1      -7.811   3.296 121.899  0.00  0.00    +0.277 C 
ENDBRANCH  18  25
TORSDOF 4
ENDMDL
MODEL 8
REMARK VINA RESULT:      -6.3      2.528      6.050
REMARK  Name = NuBBE_2422
REMARK  9 active torsions:
REMARK  status: ('A' for Active; 'I' for Inactive)
REMARK    1  A    between atoms: O_1  and  C_2
REMARK    2  A    between atoms: O_1  and  C_3
REMARK    3  A    between atoms: C_12  and  O_17
REMARK    4  A    between atoms: C_13  and  O_15
REMARK    5  A    between atoms: O_15  and  C_16
REMARK    6  A    between atoms: O_17  and  C_18
REMARK    7  A    between atoms: N_19  and  C_20
REMARK    8  A    between atoms: C_25  and  O_26
REMARK    9  A    between atoms: O_26  and  C_27
REMARK                            x       y       z     vdW  Elec       q    Type
REMARK                         _______ _______ _______ _____ _____    ______ ____
ROOT
ATOM      1  C   LIG A   1      -7.375  -1.584 128.043  0.00  0.00    +0.170 A 
ATOM      2  C   LIG A   1      -7.926  -0.278 127.881  0.00  0.00    +0.033 A 
ATOM      3  C   LIG A   1      -8.084   0.538 129.038  0.00  0.00    -0.015 A 
ATOM      4  C   LIG A   1      -8.619   1.970 128.872  0.00  0.00    +0.092 C 
ATOM      5  C   LIG A   1      -7.922   2.570 127.621  0.00  0.00    +0.059 C 
ATOM      6  C   LIG A   1      -8.270   1.721 126.415  0.00  0.00    -0.034 A 
ATOM      7  C   LIG A   1      -8.315   0.321 126.570  0.00  0.00    -0.007 A 
ATOM      8  C   LIG A   1      -8.805  -0.431 125.487  0.00  0.00    +0.058 A 
ATOM      9  C   LIG A   1      -9.175   0.167 124.269  0.00  0.00    +0.162 A 
ATOM     10  C   LIG A   1      -9.079   1.560 124.129  0.00  0.00    +0.162 A 
ATOM     11  C   LIG A   1      -8.601   2.326 125.191  0.00  0.00    +0.053 A 
ATOM     12  N   LIG A   1      -8.440   2.820 130.082  0.00  0.00    -0.298 NA
ATOM     13  C   LIG A   1      -9.220   4.059 129.990  0.00  0.00    +0.105 C 
ATOM     14  C   LIG A   1      -8.871   2.079 131.281  0.00  0.00    +0.089 C 
ATOM     15  C   LIG A   1      -7.945   0.892 131.536  0.00  0.00    +0.051 C 
ATOM     16  C   LIG A   1      -7.780   0.037 130.310  0.00  0.00    -0.037 A 
ATOM     17  C   LIG A   1      -7.242  -1.242 130.443  0.00  0.00    +0.053 A 
ATOM     18  C   LIG A   1      -7.003  -2.047 129.327  0.00  0.00    +0.162 A 
ENDROOT
BRANCH   1  19
ATOM     19  O   LIG A   1      -7.123  -2.286 126.885  0.00  0.00    -0.491 OA
ATOM     20  C   LIG A   1      -5.804  -2.224 126.352  0.00  0.00    +0.277 C 
ENDBRANCH   1  19
BRANCH  10  21
ATOM     21  O   LIG A   1      -9.401   2.295 123.011  0.00  0.00    -0.491 OA
ATOM     22  C   LIG A   1      -8.332   2.987 122.374  0.00  0.00    +0.277 C 
ENDBRANCH  10  21
BRANCH   9  23
ATOM     23  O   LIG A   1      -9.673  -0.558 123.223  0.00  0.00    -0.491 OA
ATOM     24  C   LIG A   1      -9.063  -1.808 122.928  0.00  0.00    +0.277 C 
ENDBRANCH   9  23
BRANCH  18  25
ATOM     25  O   LIG A   1      -6.435  -3.290 129.453  0.00  0.00    -0.491 OA
ATOM     26  C   LIG A   1      -6.204  -3.754 130.781  0.00  0.00    +0.277 C 
ENDBRANCH  18  25
TORSDOF 4
ENDMDL
MODEL 9
REMARK VINA RESULT:      -6.3      3.122      5.709
REMARK  Name = NuBBE_2422
REMARK  9 active torsions:
REMARK  status: ('A' for Active; 'I' for Inactive)
REMARK    1  A    between atoms: O_1  and  C_2
REMARK    2  A    between atoms: O_1  and  C_3
REMARK    3  A    between atoms: C_12  and  O_17
REMARK    4  A    between atoms: C_13  and  O_15
REMARK    5  A    between atoms: O_15  and  C_16
REMARK    6  A    between atoms: O_17  and  C_18
REMARK    7  A    between atoms: N_19  and  C_20
REMARK    8  A    between atoms: C_25  and  O_26
REMARK    9  A    between atoms: O_26  and  C_27
REMARK                            x       y       z     vdW  Elec       q    Type
REMARK                         _______ _______ _______ _____ _____    ______ ____
ROOT
ATOM      1  C   LIG A   1      -8.161   1.209 128.879  0.00  0.00    +0.170 A 
ATOM      2  C   LIG A   1      -7.765  -0.142 128.646  0.00  0.00    +0.033 A 
ATOM      3  C   LIG A   1      -7.242  -0.893 129.737  0.00  0.00    -0.015 A 
ATOM      4  C   LIG A   1      -6.870  -2.368 129.516  0.00  0.00    +0.092 C 
ATOM      5  C   LIG A   1      -7.995  -2.993 128.648  0.00  0.00    +0.059 C 
ATOM      6  C   LIG A   1      -8.062  -2.250 127.329  0.00  0.00    -0.034 A 
ATOM      7  C   LIG A   1      -7.900  -0.849 127.338  0.00  0.00    -0.007 A 
ATOM      8  C   LIG A   1      -7.794  -0.206 126.091  0.00  0.00    +0.058 A 
ATOM      9  C   LIG A   1      -7.913  -0.905 124.878  0.00  0.00    +0.162 A 
ATOM     10  C   LIG A   1      -8.118  -2.294 124.900  0.00  0.00    +0.162 A 
ATOM     11  C   LIG A   1      -8.220  -2.954 126.123  0.00  0.00    +0.053 A 
ATOM     12  N   LIG A   1      -6.644  -3.125 130.780  0.00  0.00    -0.298 NA
ATOM     13  C   LIG A   1      -6.007  -4.421 130.524  0.00  0.00    +0.105 C 
ATOM     14  C   LIG A   1      -5.778  -2.343 131.681  0.00  0.00    +0.089 C 
ATOM     15  C   LIG A   1      -6.495  -1.077 132.144  0.00  0.00    +0.051 C 
ATOM     16  C   LIG A   1      -7.047  -0.292 130.986  0.00  0.00    -0.037 A 
ATOM     17  C   LIG A   1      -7.442   1.030 131.191  0.00  0.00    +0.053 A 
ATOM     18  C   LIG A   1      -8.026   1.778 130.167  0.00  0.00    +0.162 A 
ENDROOT
BRANCH   1  19
ATOM     19  O   LIG A   1      -8.777   1.853 127.829  0.00  0.00    -0.491 OA
ATOM     20  C   LIG A   1      -8.060   2.903 127.190  0.00  0.00    +0.277 C 
ENDBRANCH   1  19
BRANCH  10  21
ATOM     21  O   LIG A   1      -8.252  -3.119 123.807  0.00  0.00    -0.491 OA
ATOM     22  C   LIG A   1      -9.581  -3.391 123.373  0.00  0.00    +0.277 C 
ENDBRANCH  10  21
BRANCH   9  23
ATOM     23  O   LIG A   1      -7.790  -0.287 123.665  0.00  0.00    -0.491 OA
ATOM     24  C   LIG A   1      -8.054   1.108 123.598  0.00  0.00    +0.277 C 
ENDBRANCH   9  23
BRANCH  18  25
ATOM     25  O   LIG A   1      -8.452   3.066 130.379  0.00  0.00    -0.491 OA
ATOM     26  C   LIG A   1      -9.736   3.222 130.979  0.00  0.00    +0.277 C 
ENDBRANCH  18  25
TORSDOF 4
ENDMDL
