MODEL 1
REMARK VINA RESULT:      -7.2      0.000      0.000
REMARK  Name = NuBBE_2435
REMARK  13 active torsions:
REMARK  status: ('A' for Active; 'I' for Inactive)
REMARK    1  A    between atoms: C_2  and  C_3
REMARK    2  A    between atoms: C_2  and  C_13
REMARK    3  A    between atoms: C_5  and  O_6
REMARK    4  A    between atoms: O_6  and  C_7
REMARK    5  A    between atoms: C_8  and  O_9
REMARK    6  A    between atoms: O_9  and  C_10
REMARK    7  A    between atoms: C_13  and  C_14
REMARK    8  A    between atoms: C_13  and  O_15
REMARK    9  A    between atoms: O_15  and  C_16
REMARK   10  A    between atoms: C_19  and  C_20
REMARK   11  A    between atoms: C_21  and  C_22
REMARK   12  A    between atoms: C_24  and  O_25
REMARK   13  A    between atoms: O_25  and  C_26
REMARK                            x       y       z     vdW  Elec       q    Type
REMARK                         _______ _______ _______ _____ _____    ______ ____
ROOT
ATOM      1  C   LIG A   1      -9.763   4.297 131.343  0.00  0.00    +0.241 C 
ATOM      2  C   LIG A   1     -10.941   3.735 130.550  0.00  0.00    +0.061 C 
ENDROOT
BRANCH   1   4
ATOM      3  O   LIG A   1      -9.604   6.126 132.905  0.00  0.00    -0.288 OA
ATOM      4  C   LIG A   1     -10.050   5.736 131.838  0.00  0.00    +0.203 C 
BRANCH   4   5
ATOM      5  C   LIG A   1     -10.865   6.693 131.023  0.00  0.00    +0.025 A 
ATOM      6  C   LIG A   1     -10.420   7.208 129.809  0.00  0.00    +0.060 A 
ATOM      7  C   LIG A   1     -11.193   8.144 129.111  0.00  0.00    +0.162 A 
ATOM      8  C   LIG A   1     -12.440   8.550 129.618  0.00  0.00    +0.162 A 
ATOM      9  C   LIG A   1     -12.931   7.962 130.784  0.00  0.00    +0.050 A 
ATOM     10  C   LIG A   1     -12.145   7.036 131.484  0.00  0.00    +0.015 A 
BRANCH   7  11
ATOM     11  O   LIG A   1     -10.820   8.677 127.901  0.00  0.00    -0.491 OA
ATOM     12  C   LIG A   1     -10.932   7.803 126.786  0.00  0.00    +0.277 C 
ENDBRANCH   7  11
BRANCH   8  13
ATOM     13  O   LIG A   1     -13.124   9.494 128.895  0.00  0.00    -0.491 OA
ATOM     14  C   LIG A   1     -13.458  10.685 129.596  0.00  0.00    +0.277 C 
ENDBRANCH   8  13
ENDBRANCH   4   5
ENDBRANCH   1   4
BRANCH   1  15
ATOM     15  O   LIG A   1      -8.553   4.136 130.595  0.00  0.00    -0.478 OA
BRANCH  15  16
ATOM     16  C   LIG A   1      -8.134   2.861 130.294  0.00  0.00    +0.163 A 
ATOM     17  C   LIG A   1      -7.645   2.005 131.280  0.00  0.00    +0.050 A 
ATOM     18  C   LIG A   1      -7.337   0.670 131.000  0.00  0.00    +0.012 A 
ATOM     19  C   LIG A   1      -7.457   0.151 129.710  0.00  0.00    -0.022 A 
ATOM     20  C   LIG A   1      -7.827   1.043 128.691  0.00  0.00    +0.057 A 
ATOM     21  C   LIG A   1      -8.161   2.389 128.967  0.00  0.00    +0.162 A 
BRANCH  19  22
ATOM     22  C   LIG A   1      -7.203  -1.270 129.389  0.00  0.00    +0.003 C 
ATOM     23  C   LIG A   1      -8.125  -2.248 129.345  0.00  0.00    -0.030 C 
ATOM     24  C   LIG A   1      -7.824  -3.681 129.033  0.00  0.00    +0.035 C 
ENDBRANCH  19  22
BRANCH  21  25
ATOM     25  O   LIG A   1      -8.544   3.098 127.852  0.00  0.00    -0.491 OA
ATOM     26  C   LIG A   1      -7.588   3.147 126.801  0.00  0.00    +0.277 C 
ENDBRANCH  21  25
ENDBRANCH  15  16
ENDBRANCH   1  15
TORSDOF 8
ENDMDL
MODEL 2
REMARK VINA RESULT:      -7.2      4.630      7.393
REMARK  Name = NuBBE_2435
REMARK  13 active torsions:
REMARK  status: ('A' for Active; 'I' for Inactive)
REMARK    1  A    between atoms: C_2  and  C_3
REMARK    2  A    between atoms: C_2  and  C_13
REMARK    3  A    between atoms: C_5  and  O_6
REMARK    4  A    between atoms: O_6  and  C_7
REMARK    5  A    between atoms: C_8  and  O_9
REMARK    6  A    between atoms: O_9  and  C_10
REMARK    7  A    between atoms: C_13  and  C_14
REMARK    8  A    between atoms: C_13  and  O_15
REMARK    9  A    between atoms: O_15  and  C_16
REMARK   10  A    between atoms: C_19  and  C_20
REMARK   11  A    between atoms: C_21  and  C_22
REMARK   12  A    between atoms: C_24  and  O_25
REMARK   13  A    between atoms: O_25  and  C_26
REMARK                            x       y       z     vdW  Elec       q    Type
REMARK                         _______ _______ _______ _____ _____    ______ ____
ROOT
ATOM      1  C   LIG A   1      -9.102   1.015 123.314  0.00  0.00    +0.241 C 
ATOM      2  C   LIG A   1     -10.289   0.592 122.452  0.00  0.00    +0.061 C 
ENDROOT
BRANCH   1   4
ATOM      3  O   LIG A   1      -8.963   2.971 121.912  0.00  0.00    -0.288 OA
ATOM      4  C   LIG A   1      -8.628   2.447 122.961  0.00  0.00    +0.203 C 
BRANCH   4   5
ATOM      5  C   LIG A   1      -7.761   3.233 123.897  0.00  0.00    +0.025 A 
ATOM      6  C   LIG A   1      -8.186   3.614 125.167  0.00  0.00    +0.060 A 
ATOM      7  C   LIG A   1      -7.360   4.397 125.984  0.00  0.00    +0.162 A 
ATOM      8  C   LIG A   1      -6.085   4.782 125.538  0.00  0.00    +0.162 A 
ATOM      9  C   LIG A   1      -5.620   4.321 124.305  0.00  0.00    +0.050 A 
ATOM     10  C   LIG A   1      -6.456   3.548 123.489  0.00  0.00    +0.015 A 
BRANCH   7  11
ATOM     11  O   LIG A   1      -7.712   4.790 127.252  0.00  0.00    -0.491 OA
ATOM     12  C   LIG A   1      -7.888   3.740 128.193  0.00  0.00    +0.277 C 
ENDBRANCH   7  11
BRANCH   8  13
ATOM     13  O   LIG A   1      -5.349   5.577 126.380  0.00  0.00    -0.491 OA
ATOM     14  C   LIG A   1      -4.310   4.921 127.097  0.00  0.00    +0.277 C 
ENDBRANCH   8  13
ENDBRANCH   4   5
ENDBRANCH   1   4
BRANCH   1  15
ATOM     15  O   LIG A   1      -8.087   0.007 123.271  0.00  0.00    -0.478 OA
BRANCH  15  16
ATOM     16  C   LIG A   1      -7.738  -0.621 124.444  0.00  0.00    +0.163 A 
ATOM     17  C   LIG A   1      -6.593  -0.257 125.151  0.00  0.00    +0.050 A 
ATOM     18  C   LIG A   1      -6.303  -0.804 126.405  0.00  0.00    +0.012 A 
ATOM     19  C   LIG A   1      -7.121  -1.778 126.979  0.00  0.00    -0.022 A 
ATOM     20  C   LIG A   1      -8.204  -2.240 126.215  0.00  0.00    +0.057 A 
ATOM     21  C   LIG A   1      -8.518  -1.677 124.955  0.00  0.00    +0.162 A 
BRANCH  19  22
ATOM     22  C   LIG A   1      -6.882  -2.332 128.329  0.00  0.00    +0.003 C 
ATOM     23  C   LIG A   1      -7.809  -2.504 129.289  0.00  0.00    -0.030 C 
ATOM     24  C   LIG A   1      -7.523  -3.054 130.652  0.00  0.00    +0.035 C 
ENDBRANCH  19  22
BRANCH  21  25
ATOM     25  O   LIG A   1      -9.640  -2.223 124.377  0.00  0.00    -0.491 OA
ATOM     26  C   LIG A   1      -9.400  -3.275 123.451  0.00  0.00    +0.277 C 
ENDBRANCH  21  25
ENDBRANCH  15  16
ENDBRANCH   1  15
TORSDOF 8
ENDMDL
MODEL 3
REMARK VINA RESULT:      -7.2      3.307      5.054
REMARK  Name = NuBBE_2435
REMARK  13 active torsions:
REMARK  status: ('A' for Active; 'I' for Inactive)
REMARK    1  A    between atoms: C_2  and  C_3
REMARK    2  A    between atoms: C_2  and  C_13
REMARK    3  A    between atoms: C_5  and  O_6
REMARK    4  A    between atoms: O_6  and  C_7
REMARK    5  A    between atoms: C_8  and  O_9
REMARK    6  A    between atoms: O_9  and  C_10
REMARK    7  A    between atoms: C_13  and  C_14
REMARK    8  A    between atoms: C_13  and  O_15
REMARK    9  A    between atoms: O_15  and  C_16
REMARK   10  A    between atoms: C_19  and  C_20
REMARK   11  A    between atoms: C_21  and  C_22
REMARK   12  A    between atoms: C_24  and  O_25
REMARK   13  A    between atoms: O_25  and  C_26
REMARK                            x       y       z     vdW  Elec       q    Type
REMARK                         _______ _______ _______ _____ _____    ______ ____
ROOT
ATOM      1  C   LIG A   1      -9.409   4.386 131.384  0.00  0.00    +0.241 C 
ATOM      2  C   LIG A   1     -10.541   3.630 130.693  0.00  0.00    +0.061 C 
ENDROOT
BRANCH   1   4
ATOM      3  O   LIG A   1      -9.571   6.132 133.039  0.00  0.00    -0.288 OA
ATOM      4  C   LIG A   1      -9.889   5.756 131.923  0.00  0.00    +0.203 C 
BRANCH   4   5
ATOM      5  C   LIG A   1     -10.742   6.665 131.090  0.00  0.00    +0.025 A 
ATOM      6  C   LIG A   1     -10.299   7.212 129.889  0.00  0.00    +0.060 A 
ATOM      7  C   LIG A   1     -11.112   8.101 129.174  0.00  0.00    +0.162 A 
ATOM      8  C   LIG A   1     -12.393   8.427 129.651  0.00  0.00    +0.162 A 
ATOM      9  C   LIG A   1     -12.876   7.804 130.804  0.00  0.00    +0.050 A 
ATOM     10  C   LIG A   1     -12.052   6.926 131.520  0.00  0.00    +0.015 A 
BRANCH   7  11
ATOM     11  O   LIG A   1     -10.742   8.661 127.976  0.00  0.00    -0.491 OA
ATOM     12  C   LIG A   1     -10.900   7.829 126.836  0.00  0.00    +0.277 C 
ENDBRANCH   7  11
BRANCH   8  13
ATOM     13  O   LIG A   1     -13.117   9.330 128.914  0.00  0.00    -0.491 OA
ATOM     14  C   LIG A   1     -13.434  10.550 129.573  0.00  0.00    +0.277 C 
ENDBRANCH   8  13
ENDBRANCH   4   5
ENDBRANCH   1   4
BRANCH   1  15
ATOM     15  O   LIG A   1      -8.262   4.432 130.529  0.00  0.00    -0.478 OA
BRANCH  15  16
ATOM     16  C   LIG A   1      -7.110   5.008 131.009  0.00  0.00    +0.163 A 
ATOM     17  C   LIG A   1      -6.743   6.306 130.655  0.00  0.00    +0.050 A 
ATOM     18  C   LIG A   1      -5.641   6.939 131.239  0.00  0.00    +0.012 A 
ATOM     19  C   LIG A   1      -4.830   6.280 132.163  0.00  0.00    -0.022 A 
ATOM     20  C   LIG A   1      -5.120   4.932 132.426  0.00  0.00    +0.057 A 
ATOM     21  C   LIG A   1      -6.245   4.289 131.858  0.00  0.00    +0.162 A 
BRANCH  19  22
ATOM     22  C   LIG A   1      -3.696   6.937 132.849  0.00  0.00    +0.003 C 
ATOM     23  C   LIG A   1      -2.844   7.820 132.298  0.00  0.00    -0.030 C 
ATOM     24  C   LIG A   1      -1.696   8.452 133.022  0.00  0.00    +0.035 C 
ENDBRANCH  19  22
BRANCH  21  25
ATOM     25  O   LIG A   1      -6.394   2.985 132.267  0.00  0.00    -0.491 OA
ATOM     26  C   LIG A   1      -5.186   2.257 132.445  0.00  0.00    +0.277 C 
ENDBRANCH  21  25
ENDBRANCH  15  16
ENDBRANCH   1  15
TORSDOF 8
ENDMDL
MODEL 4
REMARK VINA RESULT:      -7.2      5.391      7.917
REMARK  Name = NuBBE_2435
REMARK  13 active torsions:
REMARK  status: ('A' for Active; 'I' for Inactive)
REMARK    1  A    between atoms: C_2  and  C_3
REMARK    2  A    between atoms: C_2  and  C_13
REMARK    3  A    between atoms: C_5  and  O_6
REMARK    4  A    between atoms: O_6  and  C_7
REMARK    5  A    between atoms: C_8  and  O_9
REMARK    6  A    between atoms: O_9  and  C_10
REMARK    7  A    between atoms: C_13  and  C_14
REMARK    8  A    between atoms: C_13  and  O_15
REMARK    9  A    between atoms: O_15  and  C_16
REMARK   10  A    between atoms: C_19  and  C_20
REMARK   11  A    between atoms: C_21  and  C_22
REMARK   12  A    between atoms: C_24  and  O_25
REMARK   13  A    between atoms: O_25  and  C_26
REMARK                            x       y       z     vdW  Elec       q    Type
REMARK                         _______ _______ _______ _____ _____    ______ ____
ROOT
ATOM      1  C   LIG A   1      -8.796  -2.599 124.297  0.00  0.00    +0.241 C 
ATOM      2  C   LIG A   1      -9.600  -3.416 123.289  0.00  0.00    +0.061 C 
ENDROOT
BRANCH   1   4
ATOM      3  O   LIG A   1      -7.205  -1.691 122.730  0.00  0.00    -0.288 OA
ATOM      4  C   LIG A   1      -8.021  -1.451 123.604  0.00  0.00    +0.203 C 
BRANCH   4   5
ATOM      5  C   LIG A   1      -8.258  -0.018 123.973  0.00  0.00    +0.025 A 
ATOM      6  C   LIG A   1      -7.897   1.038 123.140  0.00  0.00    +0.060 A 
ATOM      7  C   LIG A   1      -8.088   2.362 123.552  0.00  0.00    +0.162 A 
ATOM      8  C   LIG A   1      -8.671   2.637 124.801  0.00  0.00    +0.162 A 
ATOM      9  C   LIG A   1      -9.121   1.581 125.595  0.00  0.00    +0.050 A 
ATOM     10  C   LIG A   1      -8.916   0.258 125.181  0.00  0.00    +0.015 A 
BRANCH   7  11
ATOM     11  O   LIG A   1      -7.770   3.447 122.772  0.00  0.00    -0.491 OA
ATOM     12  C   LIG A   1      -6.453   3.452 122.238  0.00  0.00    +0.277 C 
ENDBRANCH   7  11
BRANCH   8  13
ATOM     13  O   LIG A   1      -8.794   3.958 125.150  0.00  0.00    -0.491 OA
ATOM     14  C   LIG A   1      -7.799   4.458 126.035  0.00  0.00    +0.277 C 
ENDBRANCH   8  13
ENDBRANCH   4   5
ENDBRANCH   1   4
BRANCH   1  15
ATOM     15  O   LIG A   1      -8.002  -3.472 125.107  0.00  0.00    -0.478 OA
BRANCH  15  16
ATOM     16  C   LIG A   1      -7.943  -3.236 126.460  0.00  0.00    +0.163 A 
ATOM     17  C   LIG A   1      -8.914  -3.735 127.329  0.00  0.00    +0.050 A 
ATOM     18  C   LIG A   1      -8.789  -3.604 128.715  0.00  0.00    +0.012 A 
ATOM     19  C   LIG A   1      -7.715  -2.922 129.287  0.00  0.00    -0.022 A 
ATOM     20  C   LIG A   1      -6.804  -2.309 128.413  0.00  0.00    +0.057 A 
ATOM     21  C   LIG A   1      -6.909  -2.454 127.010  0.00  0.00    +0.162 A 
BRANCH  19  22
ATOM     22  C   LIG A   1      -7.517  -2.819 130.750  0.00  0.00    +0.003 C 
ATOM     23  C   LIG A   1      -7.502  -1.682 131.467  0.00  0.00    -0.030 C 
ATOM     24  C   LIG A   1      -7.280  -1.618 132.947  0.00  0.00    +0.035 C 
ENDBRANCH  19  22
BRANCH  21  25
ATOM     25  O   LIG A   1      -5.901  -1.822 126.319  0.00  0.00    -0.491 OA
ATOM     26  C   LIG A   1      -5.596  -0.503 126.751  0.00  0.00    +0.277 C 
ENDBRANCH  21  25
ENDBRANCH  15  16
ENDBRANCH   1  15
TORSDOF 8
ENDMDL
MODEL 5
REMARK VINA RESULT:      -7.2      2.511      3.292
REMARK  Name = NuBBE_2435
REMARK  13 active torsions:
REMARK  status: ('A' for Active; 'I' for Inactive)
REMARK    1  A    between atoms: C_2  and  C_3
REMARK    2  A    between atoms: C_2  and  C_13
REMARK    3  A    between atoms: C_5  and  O_6
REMARK    4  A    between atoms: O_6  and  C_7
REMARK    5  A    between atoms: C_8  and  O_9
REMARK    6  A    between atoms: O_9  and  C_10
REMARK    7  A    between atoms: C_13  and  C_14
REMARK    8  A    between atoms: C_13  and  O_15
REMARK    9  A    between atoms: O_15  and  C_16
REMARK   10  A    between atoms: C_19  and  C_20
REMARK   11  A    between atoms: C_21  and  C_22
REMARK   12  A    between atoms: C_24  and  O_25
REMARK   13  A    between atoms: O_25  and  C_26
REMARK                            x       y       z     vdW  Elec       q    Type
REMARK                         _______ _______ _______ _____ _____    ______ ____
ROOT
ATOM      1  C   LIG A   1      -9.052   3.901 130.612  0.00  0.00    +0.241 C 
ATOM      2  C   LIG A   1     -10.055   2.897 131.173  0.00  0.00    +0.061 C 
ENDROOT
BRANCH   1   4
ATOM      3  O   LIG A   1      -8.586   5.671 132.181  0.00  0.00    -0.288 OA
ATOM      4  C   LIG A   1      -9.255   5.308 131.227  0.00  0.00    +0.203 C 
BRANCH   4   5
ATOM      5  C   LIG A   1     -10.260   6.267 130.665  0.00  0.00    +0.025 A 
ATOM      6  C   LIG A   1     -10.040   6.975 129.487  0.00  0.00    +0.060 A 
ATOM      7  C   LIG A   1     -10.986   7.902 129.032  0.00  0.00    +0.162 A 
ATOM      8  C   LIG A   1     -12.179   8.105 129.747  0.00  0.00    +0.162 A 
ATOM      9  C   LIG A   1     -12.444   7.326 130.875  0.00  0.00    +0.050 A 
ATOM     10  C   LIG A   1     -11.487   6.409 131.331  0.00  0.00    +0.015 A 
BRANCH   7  11
ATOM     11  O   LIG A   1     -10.838   8.619 127.870  0.00  0.00    -0.491 OA
ATOM     12  C   LIG A   1     -10.888   7.859 126.670  0.00  0.00    +0.277 C 
ENDBRANCH   7  11
BRANCH   8  13
ATOM     13  O   LIG A   1     -13.041   9.053 129.258  0.00  0.00    -0.491 OA
ATOM     14  C   LIG A   1     -13.163  10.237 130.036  0.00  0.00    +0.277 C 
ENDBRANCH   8  13
ENDBRANCH   4   5
ENDBRANCH   1   4
BRANCH   1  15
ATOM     15  O   LIG A   1      -9.063   3.851 129.182  0.00  0.00    -0.478 OA
BRANCH  15  16
ATOM     16  C   LIG A   1      -7.859   3.792 128.520  0.00  0.00    +0.163 A 
ATOM     17  C   LIG A   1      -6.720   4.418 129.024  0.00  0.00    +0.050 A 
ATOM     18  C   LIG A   1      -5.469   4.255 128.421  0.00  0.00    +0.012 A 
ATOM     19  C   LIG A   1      -5.316   3.500 127.257  0.00  0.00    -0.022 A 
ATOM     20  C   LIG A   1      -6.480   2.974 126.675  0.00  0.00    +0.057 A 
ATOM     21  C   LIG A   1      -7.746   3.115 127.289  0.00  0.00    +0.162 A 
BRANCH  19  22
ATOM     22  C   LIG A   1      -4.000   3.252 126.627  0.00  0.00    +0.003 C 
ATOM     23  C   LIG A   1      -2.820   3.171 127.268  0.00  0.00    -0.030 C 
ATOM     24  C   LIG A   1      -1.506   2.937 126.591  0.00  0.00    +0.035 C 
ENDBRANCH  19  22
BRANCH  21  25
ATOM     25  O   LIG A   1      -8.761   2.494 126.599  0.00  0.00    -0.491 OA
ATOM     26  C   LIG A   1      -8.493   2.222 125.229  0.00  0.00    +0.277 C 
ENDBRANCH  21  25
ENDBRANCH  15  16
ENDBRANCH   1  15
TORSDOF 8
ENDMDL
MODEL 6
REMARK VINA RESULT:      -7.2      1.885      2.697
REMARK  Name = NuBBE_2435
REMARK  13 active torsions:
REMARK  status: ('A' for Active; 'I' for Inactive)
REMARK    1  A    between atoms: C_2  and  C_3
REMARK    2  A    between atoms: C_2  and  C_13
REMARK    3  A    between atoms: C_5  and  O_6
REMARK    4  A    between atoms: O_6  and  C_7
REMARK    5  A    between atoms: C_8  and  O_9
REMARK    6  A    between atoms: O_9  and  C_10
REMARK    7  A    between atoms: C_13  and  C_14
REMARK    8  A    between atoms: C_13  and  O_15
REMARK    9  A    between atoms: O_15  and  C_16
REMARK   10  A    between atoms: C_19  and  C_20
REMARK   11  A    between atoms: C_21  and  C_22
REMARK   12  A    between atoms: C_24  and  O_25
REMARK   13  A    between atoms: O_25  and  C_26
REMARK                            x       y       z     vdW  Elec       q    Type
REMARK                         _______ _______ _______ _____ _____    ______ ____
ROOT
ATOM      1  C   LIG A   1      -9.357   4.286 131.771  0.00  0.00    +0.241 C 
ATOM      2  C   LIG A   1      -8.212   4.179 130.767  0.00  0.00    +0.061 C 
ENDROOT
BRANCH   1   4
ATOM      3  O   LIG A   1      -9.168   6.287 133.101  0.00  0.00    -0.288 OA
ATOM      4  C   LIG A   1      -9.668   5.762 132.120  0.00  0.00    +0.203 C 
BRANCH   4   5
ATOM      5  C   LIG A   1     -10.574   6.592 131.262  0.00  0.00    +0.025 A 
ATOM      6  C   LIG A   1     -10.158   7.149 130.056  0.00  0.00    +0.060 A 
ATOM      7  C   LIG A   1     -11.025   7.963 129.317  0.00  0.00    +0.162 A 
ATOM      8  C   LIG A   1     -12.332   8.203 129.774  0.00  0.00    +0.162 A 
ATOM      9  C   LIG A   1     -12.782   7.567 130.932  0.00  0.00    +0.050 A 
ATOM     10  C   LIG A   1     -11.905   6.763 131.673  0.00  0.00    +0.015 A 
BRANCH   7  11
ATOM     11  O   LIG A   1     -10.683   8.529 128.112  0.00  0.00    -0.491 OA
ATOM     12  C   LIG A   1     -10.745   7.661 126.989  0.00  0.00    +0.277 C 
ENDBRANCH   7  11
BRANCH   8  13
ATOM     13  O   LIG A   1     -13.111   9.038 129.013  0.00  0.00    -0.491 OA
ATOM     14  C   LIG A   1     -13.333  10.335 129.551  0.00  0.00    +0.277 C 
ENDBRANCH   8  13
ENDBRANCH   4   5
ENDBRANCH   1   4
BRANCH   1  15
ATOM     15  O   LIG A   1      -9.102   3.433 132.892  0.00  0.00    -0.478 OA
BRANCH  15  16
ATOM     16  C   LIG A   1      -8.740   2.128 132.652  0.00  0.00    +0.163 A 
ATOM     17  C   LIG A   1      -9.593   1.246 131.990  0.00  0.00    +0.050 A 
ATOM     18  C   LIG A   1      -9.180  -0.042 131.634  0.00  0.00    +0.012 A 
ATOM     19  C   LIG A   1      -7.913  -0.517 131.972  0.00  0.00    -0.022 A 
ATOM     20  C   LIG A   1      -7.098   0.320 132.749  0.00  0.00    +0.057 A 
ATOM     21  C   LIG A   1      -7.498   1.632 133.096  0.00  0.00    +0.162 A 
BRANCH  19  22
ATOM     22  C   LIG A   1      -7.418  -1.849 131.557  0.00  0.00    +0.003 C 
ATOM     23  C   LIG A   1      -7.372  -2.317 130.297  0.00  0.00    -0.030 C 
ATOM     24  C   LIG A   1      -6.880  -3.680 129.919  0.00  0.00    +0.035 C 
ENDBRANCH  19  22
BRANCH  21  25
ATOM     25  O   LIG A   1      -6.551   2.320 133.818  0.00  0.00    -0.491 OA
ATOM     26  C   LIG A   1      -5.716   1.522 134.648  0.00  0.00    +0.277 C 
ENDBRANCH  21  25
ENDBRANCH  15  16
ENDBRANCH   1  15
TORSDOF 8
ENDMDL
MODEL 7
REMARK VINA RESULT:      -7.1      5.180      7.820
REMARK  Name = NuBBE_2435
REMARK  13 active torsions:
REMARK  status: ('A' for Active; 'I' for Inactive)
REMARK    1  A    between atoms: C_2  and  C_3
REMARK    2  A    between atoms: C_2  and  C_13
REMARK    3  A    between atoms: C_5  and  O_6
REMARK    4  A    between atoms: O_6  and  C_7
REMARK    5  A    between atoms: C_8  and  O_9
REMARK    6  A    between atoms: O_9  and  C_10
REMARK    7  A    between atoms: C_13  and  C_14
REMARK    8  A    between atoms: C_13  and  O_15
REMARK    9  A    between atoms: O_15  and  C_16
REMARK   10  A    between atoms: C_19  and  C_20
REMARK   11  A    between atoms: C_21  and  C_22
REMARK   12  A    between atoms: C_24  and  O_25
REMARK   13  A    between atoms: O_25  and  C_26
REMARK                            x       y       z     vdW  Elec       q    Type
REMARK                         _______ _______ _______ _____ _____    ______ ____
ROOT
ATOM      1  C   LIG A   1      -9.165  -2.336 124.327  0.00  0.00    +0.241 C 
ATOM      2  C   LIG A   1      -9.545  -3.403 123.303  0.00  0.00    +0.061 C 
ENDROOT
BRANCH   1   4
ATOM      3  O   LIG A   1      -9.840  -0.707 122.683  0.00  0.00    -0.288 OA
ATOM      4  C   LIG A   1      -9.214  -0.917 123.709  0.00  0.00    +0.203 C 
BRANCH   4   5
ATOM      5  C   LIG A   1      -8.513   0.239 124.355  0.00  0.00    +0.025 A 
ATOM      6  C   LIG A   1      -8.946   0.802 125.552  0.00  0.00    +0.060 A 
ATOM      7  C   LIG A   1      -8.290   1.917 126.088  0.00  0.00    +0.162 A 
ATOM      8  C   LIG A   1      -7.172   2.461 125.434  0.00  0.00    +0.162 A 
ATOM      9  C   LIG A   1      -6.678   1.840 124.286  0.00  0.00    +0.050 A 
ATOM     10  C   LIG A   1      -7.347   0.732 123.749  0.00  0.00    +0.015 A 
BRANCH   7  11
ATOM     11  O   LIG A   1      -8.656   2.508 127.273  0.00  0.00    -0.491 OA
ATOM     12  C   LIG A   1      -8.518   1.696 128.431  0.00  0.00    +0.277 C 
ENDBRANCH   7  11
BRANCH   8  13
ATOM     13  O   LIG A   1      -6.603   3.574 126.002  0.00  0.00    -0.491 OA
ATOM     14  C   LIG A   1      -6.740   4.781 125.263  0.00  0.00    +0.277 C 
ENDBRANCH   8  13
ENDBRANCH   4   5
ENDBRANCH   1   4
BRANCH   1  15
ATOM     15  O   LIG A   1      -7.930  -2.686 124.959  0.00  0.00    -0.478 OA
BRANCH  15  16
ATOM     16  C   LIG A   1      -7.893  -2.751 126.332  0.00  0.00    +0.163 A 
ATOM     17  C   LIG A   1      -8.814  -3.512 127.050  0.00  0.00    +0.050 A 
ATOM     18  C   LIG A   1      -8.702  -3.680 128.434  0.00  0.00    +0.012 A 
ATOM     19  C   LIG A   1      -7.693  -3.051 129.163  0.00  0.00    -0.022 A 
ATOM     20  C   LIG A   1      -6.841  -2.181 128.464  0.00  0.00    +0.057 A 
ATOM     21  C   LIG A   1      -6.932  -2.022 127.061  0.00  0.00    +0.162 A 
BRANCH  19  22
ATOM     22  C   LIG A   1      -7.505  -3.256 130.616  0.00  0.00    +0.003 C 
ATOM     23  C   LIG A   1      -6.331  -3.458 131.240  0.00  0.00    -0.030 C 
ATOM     24  C   LIG A   1      -6.184  -3.679 132.714  0.00  0.00    +0.035 C 
ENDBRANCH  19  22
BRANCH  21  25
ATOM     25  O   LIG A   1      -5.986  -1.168 126.545  0.00  0.00    -0.491 OA
ATOM     26  C   LIG A   1      -5.482  -0.194 127.450  0.00  0.00    +0.277 C 
ENDBRANCH  21  25
ENDBRANCH  15  16
ENDBRANCH   1  15
TORSDOF 8
ENDMDL
MODEL 8
REMARK VINA RESULT:      -7.1      2.963      5.903
REMARK  Name = NuBBE_2435
REMARK  13 active torsions:
REMARK  status: ('A' for Active; 'I' for Inactive)
REMARK    1  A    between atoms: C_2  and  C_3
REMARK    2  A    between atoms: C_2  and  C_13
REMARK    3  A    between atoms: C_5  and  O_6
REMARK    4  A    between atoms: O_6  and  C_7
REMARK    5  A    between atoms: C_8  and  O_9
REMARK    6  A    between atoms: O_9  and  C_10
REMARK    7  A    between atoms: C_13  and  C_14
REMARK    8  A    between atoms: C_13  and  O_15
REMARK    9  A    between atoms: O_15  and  C_16
REMARK   10  A    between atoms: C_19  and  C_20
REMARK   11  A    between atoms: C_21  and  C_22
REMARK   12  A    between atoms: C_24  and  O_25
REMARK   13  A    between atoms: O_25  and  C_26
REMARK                            x       y       z     vdW  Elec       q    Type
REMARK                         _______ _______ _______ _____ _____    ______ ____
ROOT
ATOM      1  C   LIG A   1      -6.267  -0.960 131.213  0.00  0.00    +0.241 C 
ATOM      2  C   LIG A   1      -5.094  -0.759 132.170  0.00  0.00    +0.061 C 
ENDROOT
BRANCH   1   4
ATOM      3  O   LIG A   1      -8.047  -1.034 132.836  0.00  0.00    -0.288 OA
ATOM      4  C   LIG A   1      -7.600  -0.486 131.843  0.00  0.00    +0.203 C 
BRANCH   4   5
ATOM      5  C   LIG A   1      -8.369   0.663 131.265  0.00  0.00    +0.025 A 
ATOM      6  C   LIG A   1      -8.212   1.081 129.947  0.00  0.00    +0.060 A 
ATOM      7  C   LIG A   1      -8.912   2.196 129.469  0.00  0.00    +0.162 A 
ATOM      8  C   LIG A   1      -9.801   2.886 130.311  0.00  0.00    +0.162 A 
ATOM      9  C   LIG A   1     -10.032   2.411 131.603  0.00  0.00    +0.050 A 
ATOM     10  C   LIG A   1      -9.319   1.302 132.077  0.00  0.00    +0.015 A 
BRANCH   7  11
ATOM     11  O   LIG A   1      -8.815   2.648 128.176  0.00  0.00    -0.491 OA
ATOM     12  C   LIG A   1      -7.578   3.256 127.831  0.00  0.00    +0.277 C 
ENDBRANCH   7  11
BRANCH   8  13
ATOM     13  O   LIG A   1     -10.425   3.988 129.782  0.00  0.00    -0.491 OA
ATOM     14  C   LIG A   1     -10.690   5.045 130.696  0.00  0.00    +0.277 C 
ENDBRANCH   8  13
ENDBRANCH   4   5
ENDBRANCH   1   4
BRANCH   1  15
ATOM     15  O   LIG A   1      -6.266  -2.303 130.720  0.00  0.00    -0.478 OA
BRANCH  15  16
ATOM     16  C   LIG A   1      -6.925  -2.569 129.542  0.00  0.00    +0.163 A 
ATOM     17  C   LIG A   1      -8.038  -3.407 129.504  0.00  0.00    +0.050 A 
ATOM     18  C   LIG A   1      -8.785  -3.579 128.334  0.00  0.00    +0.012 A 
ATOM     19  C   LIG A   1      -8.415  -2.959 127.140  0.00  0.00    -0.022 A 
ATOM     20  C   LIG A   1      -7.223  -2.218 127.142  0.00  0.00    +0.057 A 
ATOM     21  C   LIG A   1      -6.474  -2.020 128.325  0.00  0.00    +0.162 A 
BRANCH  19  22
ATOM     22  C   LIG A   1      -9.215  -3.066 125.899  0.00  0.00    +0.003 C 
ATOM     23  C   LIG A   1      -8.733  -3.305 124.667  0.00  0.00    -0.030 C 
ATOM     24  C   LIG A   1      -9.575  -3.389 123.432  0.00  0.00    +0.035 C 
ENDBRANCH  19  22
BRANCH  21  25
ATOM     25  O   LIG A   1      -5.364  -1.229 128.144  0.00  0.00    -0.491 OA
ATOM     26  C   LIG A   1      -5.604   0.031 127.529  0.00  0.00    +0.277 C 
ENDBRANCH  21  25
ENDBRANCH  15  16
ENDBRANCH   1  15
TORSDOF 8
ENDMDL
MODEL 9
REMARK VINA RESULT:      -6.9      6.810      9.507
REMARK  Name = NuBBE_2435
REMARK  13 active torsions:
REMARK  status: ('A' for Active; 'I' for Inactive)
REMARK    1  A    between atoms: C_2  and  C_3
REMARK    2  A    between atoms: C_2  and  C_13
REMARK    3  A    between atoms: C_5  and  O_6
REMARK    4  A    between atoms: O_6  and  C_7
REMARK    5  A    between atoms: C_8  and  O_9
REMARK    6  A    between atoms: O_9  and  C_10
REMARK    7  A    between atoms: C_13  and  C_14
REMARK    8  A    between atoms: C_13  and  O_15
REMARK    9  A    between atoms: O_15  and  C_16
REMARK   10  A    between atoms: C_19  and  C_20
REMARK   11  A    between atoms: C_21  and  C_22
REMARK   12  A    between atoms: C_24  and  O_25
REMARK   13  A    between atoms: O_25  and  C_26
REMARK                            x       y       z     vdW  Elec       q    Type
REMARK                         _______ _______ _______ _____ _____    ______ ____
ROOT
ATOM      1  C   LIG A   1      -8.158  -2.168 124.357  0.00  0.00    +0.241 C 
ATOM      2  C   LIG A   1      -9.080  -2.871 123.364  0.00  0.00    +0.061 C 
ENDROOT
BRANCH   1   4
ATOM      3  O   LIG A   1      -9.928  -1.078 125.578  0.00  0.00    -0.288 OA
ATOM      4  C   LIG A   1      -8.918  -1.760 125.643  0.00  0.00    +0.203 C 
BRANCH   4   5
ATOM      5  C   LIG A   1      -8.450  -2.198 126.998  0.00  0.00    +0.025 A 
ATOM      6  C   LIG A   1      -7.781  -1.343 127.870  0.00  0.00    +0.060 A 
ATOM      7  C   LIG A   1      -7.314  -1.815 129.103  0.00  0.00    +0.162 A 
ATOM      8  C   LIG A   1      -7.540  -3.149 129.481  0.00  0.00    +0.162 A 
ATOM      9  C   LIG A   1      -8.294  -3.980 128.651  0.00  0.00    +0.050 A 
ATOM     10  C   LIG A   1      -8.748  -3.504 127.414  0.00  0.00    +0.015 A 
BRANCH   7  11
ATOM     11  O   LIG A   1      -6.663  -1.020 130.015  0.00  0.00    -0.491 OA
ATOM     12  C   LIG A   1      -5.449  -0.437 129.562  0.00  0.00    +0.277 C 
ENDBRANCH   7  11
BRANCH   8  13
ATOM     13  O   LIG A   1      -7.022  -3.546 130.688  0.00  0.00    -0.491 OA
ATOM     14  C   LIG A   1      -5.894  -4.410 130.622  0.00  0.00    +0.277 C 
ENDBRANCH   8  13
ENDBRANCH   4   5
ENDBRANCH   1   4
BRANCH   1  15
ATOM     15  O   LIG A   1      -7.453  -1.110 123.701  0.00  0.00    -0.478 OA
BRANCH  15  16
ATOM     16  C   LIG A   1      -6.797  -0.181 124.475  0.00  0.00    +0.163 A 
ATOM     17  C   LIG A   1      -5.677  -0.524 125.231  0.00  0.00    +0.050 A 
ATOM     18  C   LIG A   1      -4.935   0.442 125.917  0.00  0.00    +0.012 A 
ATOM     19  C   LIG A   1      -5.314   1.784 125.918  0.00  0.00    -0.022 A 
ATOM     20  C   LIG A   1      -6.513   2.114 125.266  0.00  0.00    +0.057 A 
ATOM     21  C   LIG A   1      -7.258   1.148 124.550  0.00  0.00    +0.162 A 
BRANCH  19  22
ATOM     22  C   LIG A   1      -4.520   2.843 126.579  0.00  0.00    +0.003 C 
ATOM     23  C   LIG A   1      -3.178   2.886 126.666  0.00  0.00    -0.030 C 
ATOM     24  C   LIG A   1      -2.410   3.968 127.360  0.00  0.00    +0.035 C 
ENDBRANCH  19  22
BRANCH  21  25
ATOM     25  O   LIG A   1      -8.375   1.665 123.936  0.00  0.00    -0.491 OA
ATOM     26  C   LIG A   1      -8.134   2.712 123.005  0.00  0.00    +0.277 C 
ENDBRANCH  21  25
ENDBRANCH  15  16
ENDBRANCH   1  15
TORSDOF 8
ENDMDL
