MODEL 1
REMARK VINA RESULT:      -8.4      0.000      0.000
REMARK  Name = NuBBE_1112
REMARK  13 active torsions:
REMARK  status: ('A' for Active; 'I' for Inactive)
REMARK    1  A    between atoms: C_1  and  C_2
REMARK    2  A    between atoms: C_5  and  O_7
REMARK    3  A    between atoms: C_18  and  C_19
REMARK    4  A    between atoms: C_23  and  C_25
REMARK    5  A    between atoms: C_25  and  C_27
REMARK    6  A    between atoms: C_25  and  C_28
REMARK    7  A    between atoms: C_28  and  C_29
REMARK    8  A    between atoms: C_29  and  C_30
REMARK    9  A    between atoms: C_30  and  C_32
REMARK   10  A    between atoms: C_30  and  C_34
REMARK   11  A    between atoms: C_32  and  C_33
REMARK   12  A    between atoms: C_34  and  C_35
REMARK   13  A    between atoms: C_34  and  C_36
REMARK                            x       y       z     vdW  Elec       q    Type
REMARK                         _______ _______ _______ _____ _____    ______ ____
ROOT
ATOM      1  C   LIG A   1     -12.405   8.168 130.798  0.00  0.00    +0.016 C 
ATOM      2  C   LIG A   1     -11.887   7.023 129.891  0.00  0.00    -0.007 C 
ATOM      3  C   LIG A   1     -10.617   7.532 129.206  0.00  0.00    -0.058 C 
ATOM      4  C   LIG A   1     -10.741   8.284 127.895  0.00  0.00    +0.062 C 
ATOM      5  C   LIG A   1     -11.823   7.745 126.959  0.00  0.00    +0.119 C 
ATOM      6  C   LIG A   1     -13.151   7.639 127.699  0.00  0.00    +0.032 C 
ATOM      7  C   LIG A   1     -13.028   6.677 128.881  0.00  0.00    +0.013 C 
ATOM      8  C   LIG A   1      -9.409   7.424 129.779  0.00  0.00    +0.046 C 
ATOM      9  C   LIG A   1      -9.211   6.832 131.123  0.00  0.00    +0.160 C 
ATOM     10  C   LIG A   1     -10.348   6.029 131.761  0.00  0.00    +0.067 C 
ATOM     11  C   LIG A   1     -11.532   5.757 130.779  0.00  0.00    +0.010 C 
ATOM     12  C   LIG A   1     -11.322   4.472 129.923  0.00  0.00    +0.005 C 
ATOM     13  C   LIG A   1     -10.778   3.255 130.670  0.00  0.00    +0.007 C 
ATOM     14  C   LIG A   1      -9.508   3.573 131.466  0.00  0.00    -0.025 C 
ATOM     15  C   LIG A   1      -8.332   3.940 130.531  0.00  0.00    +0.012 C 
ATOM     16  C   LIG A   1      -9.906   4.713 132.435  0.00  0.00    +0.006 C 
ATOM     17  C   LIG A   1      -8.792   4.711 133.471  0.00  0.00    +0.005 C 
ATOM     18  C   LIG A   1      -8.471   3.220 133.661  0.00  0.00    +0.004 C 
ATOM     19  C   LIG A   1      -9.101   2.443 132.468  0.00  0.00    -0.002 C 
ATOM     20  O   LIG A   1      -8.155   7.063 131.688  0.00  0.00    -0.292 OA
ENDROOT
BRANCH   5  21
ATOM     21  O   LIG A   1     -11.460   6.462 126.448  0.00  0.00    -0.392 OA
ATOM     22  H   LIG A   1     -11.540   5.815 127.169  0.00  0.00    +0.210 HD
ENDBRANCH   5  21
BRANCH  19  23
ATOM     23  C   LIG A   1      -8.183   1.284 131.951  0.00  0.00    -0.010 C 
ATOM     24  C   LIG A   1      -8.969   0.018 131.576  0.00  0.00    +0.008 C 
BRANCH  23  25
ATOM     25  C   LIG A   1      -7.097   0.928 133.006  0.00  0.00    +0.004 C 
BRANCH  25  26
ATOM     26  C   LIG A   1      -5.629   1.050 132.533  0.00  0.00    +0.004 C 
BRANCH  26  27
ATOM     27  C   LIG A   1      -5.358   2.166 131.488  0.00  0.00    -0.009 C 
BRANCH  27  28
ATOM     28  C   LIG A   1      -4.732   1.638 130.158  0.00  0.00    -0.014 C 
ATOM     29  C   LIG A   1      -5.722   0.908 129.250  0.00  0.00    +0.007 C 
ATOM     30  C   LIG A   1      -4.008   2.730 129.360  0.00  0.00    +0.007 C 
ENDBRANCH  27  28
BRANCH  27  31
ATOM     31  C   LIG A   1      -4.504   3.283 132.143  0.00  0.00    +0.000 C 
ATOM     32  C   LIG A   1      -5.223   4.609 132.341  0.00  0.00    +0.004 C 
ENDBRANCH  27  31
ENDBRANCH  26  27
ENDBRANCH  25  26
ENDBRANCH  23  25
ENDBRANCH  19  23
TORSDOF 7
ENDMDL
MODEL 2
REMARK VINA RESULT:      -7.6      1.568      2.885
REMARK  Name = NuBBE_1112
REMARK  13 active torsions:
REMARK  status: ('A' for Active; 'I' for Inactive)
REMARK    1  A    between atoms: C_1  and  C_2
REMARK    2  A    between atoms: C_5  and  O_7
REMARK    3  A    between atoms: C_18  and  C_19
REMARK    4  A    between atoms: C_23  and  C_25
REMARK    5  A    between atoms: C_25  and  C_27
REMARK    6  A    between atoms: C_25  and  C_28
REMARK    7  A    between atoms: C_28  and  C_29
REMARK    8  A    between atoms: C_29  and  C_30
REMARK    9  A    between atoms: C_30  and  C_32
REMARK   10  A    between atoms: C_30  and  C_34
REMARK   11  A    between atoms: C_32  and  C_33
REMARK   12  A    between atoms: C_34  and  C_35
REMARK   13  A    between atoms: C_34  and  C_36
REMARK                            x       y       z     vdW  Elec       q    Type
REMARK                         _______ _______ _______ _____ _____    ______ ____
ROOT
ATOM      1  C   LIG A   1     -12.367   7.910 130.956  0.00  0.00    +0.016 C 
ATOM      2  C   LIG A   1     -11.776   6.847 129.996  0.00  0.00    -0.007 C 
ATOM      3  C   LIG A   1     -10.507   7.447 129.387  0.00  0.00    -0.058 C 
ATOM      4  C   LIG A   1     -10.622   8.276 128.122  0.00  0.00    +0.062 C 
ATOM      5  C   LIG A   1     -11.652   7.756 127.119  0.00  0.00    +0.119 C 
ATOM      6  C   LIG A   1     -12.997   7.553 127.807  0.00  0.00    +0.032 C 
ATOM      7  C   LIG A   1     -12.871   6.523 128.930  0.00  0.00    +0.013 C 
ATOM      8  C   LIG A   1      -9.314   7.348 129.992  0.00  0.00    +0.046 C 
ATOM      9  C   LIG A   1      -9.133   6.680 131.302  0.00  0.00    +0.160 C 
ATOM     10  C   LIG A   1     -10.256   5.794 131.850  0.00  0.00    +0.067 C 
ATOM     11  C   LIG A   1     -11.398   5.541 130.814  0.00  0.00    +0.010 C 
ATOM     12  C   LIG A   1     -11.110   4.322 129.887  0.00  0.00    +0.005 C 
ATOM     13  C   LIG A   1     -10.541   3.081 130.574  0.00  0.00    +0.007 C 
ATOM     14  C   LIG A   1      -9.310   3.397 131.429  0.00  0.00    -0.025 C 
ATOM     15  C   LIG A   1      -8.122   3.867 130.558  0.00  0.00    +0.012 C 
ATOM     16  C   LIG A   1      -9.783   4.456 132.454  0.00  0.00    +0.006 C 
ATOM     17  C   LIG A   1      -8.701   4.430 133.524  0.00  0.00    +0.005 C 
ATOM     18  C   LIG A   1      -8.326   2.944 133.630  0.00  0.00    +0.004 C 
ATOM     19  C   LIG A   1      -8.888   2.221 132.371  0.00  0.00    -0.002 C 
ATOM     20  O   LIG A   1      -8.106   6.914 131.914  0.00  0.00    -0.292 OA
ENDROOT
BRANCH   5  21
ATOM     21  O   LIG A   1     -11.223   6.524 126.541  0.00  0.00    -0.392 OA
ATOM     22  H   LIG A   1     -10.268   6.433 126.697  0.00  0.00    +0.210 HD
ENDBRANCH   5  21
BRANCH  19  23
ATOM     23  C   LIG A   1      -7.909   1.134 131.813  0.00  0.00    -0.010 C 
ATOM     24  C   LIG A   1      -6.464   1.639 131.680  0.00  0.00    +0.008 C 
BRANCH  23  25
ATOM     25  C   LIG A   1      -8.400   0.599 130.439  0.00  0.00    +0.004 C 
BRANCH  25  26
ATOM     26  C   LIG A   1      -7.302   0.339 129.381  0.00  0.00    +0.004 C 
BRANCH  26  27
ATOM     27  C   LIG A   1      -7.300  -1.086 128.763  0.00  0.00    -0.009 C 
BRANCH  27  28
ATOM     28  C   LIG A   1      -7.854  -2.185 129.725  0.00  0.00    -0.014 C 
ATOM     29  C   LIG A   1      -8.537  -3.351 129.011  0.00  0.00    +0.007 C 
ATOM     30  C   LIG A   1      -6.795  -2.723 130.696  0.00  0.00    +0.007 C 
ENDBRANCH  27  28
BRANCH  27  31
ATOM     31  C   LIG A   1      -5.876  -1.416 128.243  0.00  0.00    +0.000 C 
ATOM     32  C   LIG A   1      -5.830  -2.071 126.871  0.00  0.00    +0.004 C 
ENDBRANCH  27  31
ENDBRANCH  26  27
ENDBRANCH  25  26
ENDBRANCH  23  25
ENDBRANCH  19  23
TORSDOF 7
ENDMDL
MODEL 3
REMARK VINA RESULT:      -7.5      5.090      8.123
REMARK  Name = NuBBE_1112
REMARK  13 active torsions:
REMARK  status: ('A' for Active; 'I' for Inactive)
REMARK    1  A    between atoms: C_1  and  C_2
REMARK    2  A    between atoms: C_5  and  O_7
REMARK    3  A    between atoms: C_18  and  C_19
REMARK    4  A    between atoms: C_23  and  C_25
REMARK    5  A    between atoms: C_25  and  C_27
REMARK    6  A    between atoms: C_25  and  C_28
REMARK    7  A    between atoms: C_28  and  C_29
REMARK    8  A    between atoms: C_29  and  C_30
REMARK    9  A    between atoms: C_30  and  C_32
REMARK   10  A    between atoms: C_30  and  C_34
REMARK   11  A    between atoms: C_32  and  C_33
REMARK   12  A    between atoms: C_34  and  C_35
REMARK   13  A    between atoms: C_34  and  C_36
REMARK                            x       y       z     vdW  Elec       q    Type
REMARK                         _______ _______ _______ _____ _____    ______ ____
ROOT
ATOM      1  C   LIG A   1      -9.369  -1.488 126.108  0.00  0.00    +0.016 C 
ATOM      2  C   LIG A   1      -8.065  -1.116 125.356  0.00  0.00    -0.007 C 
ATOM      3  C   LIG A   1      -8.475  -0.335 124.106  0.00  0.00    -0.058 C 
ATOM      4  C   LIG A   1      -8.788  -1.097 122.833  0.00  0.00    +0.062 C 
ATOM      5  C   LIG A   1      -7.888  -2.309 122.588  0.00  0.00    +0.119 C 
ATOM      6  C   LIG A   1      -7.873  -3.208 123.818  0.00  0.00    +0.032 C 
ATOM      7  C   LIG A   1      -7.322  -2.450 125.026  0.00  0.00    +0.013 C 
ATOM      8  C   LIG A   1      -8.665   0.993 124.129  0.00  0.00    +0.046 C 
ATOM      9  C   LIG A   1      -8.521   1.801 125.363  0.00  0.00    +0.160 C 
ATOM     10  C   LIG A   1      -7.831   1.184 126.584  0.00  0.00    +0.067 C 
ATOM     11  C   LIG A   1      -7.162  -0.194 126.279  0.00  0.00    +0.010 C 
ATOM     12  C   LIG A   1      -5.709  -0.050 125.734  0.00  0.00    +0.005 C 
ATOM     13  C   LIG A   1      -4.830   0.980 126.442  0.00  0.00    +0.007 C 
ATOM     14  C   LIG A   1      -5.498   2.356 126.536  0.00  0.00    -0.025 C 
ATOM     15  C   LIG A   1      -5.688   2.989 125.139  0.00  0.00    +0.012 C 
ATOM     16  C   LIG A   1      -6.827   2.116 127.293  0.00  0.00    +0.006 C 
ATOM     17  C   LIG A   1      -7.244   3.510 127.738  0.00  0.00    +0.005 C 
ATOM     18  C   LIG A   1      -5.918   4.189 128.112  0.00  0.00    +0.004 C 
ATOM     19  C   LIG A   1      -4.763   3.339 127.506  0.00  0.00    -0.002 C 
ATOM     20  O   LIG A   1      -9.015   2.916 125.364  0.00  0.00    -0.292 OA
ENDROOT
BRANCH   5  21
ATOM     21  O   LIG A   1      -6.555  -1.899 122.281  0.00  0.00    -0.392 OA
ATOM     22  H   LIG A   1      -5.952  -2.350 122.896  0.00  0.00    +0.210 HD
ENDBRANCH   5  21
BRANCH  19  23
ATOM     23  C   LIG A   1      -3.602   4.222 126.934  0.00  0.00    -0.010 C 
ATOM     24  C   LIG A   1      -2.213   3.606 127.161  0.00  0.00    +0.008 C 
BRANCH  23  25
ATOM     25  C   LIG A   1      -3.643   5.652 127.543  0.00  0.00    +0.004 C 
BRANCH  25  26
ATOM     26  C   LIG A   1      -2.414   6.062 128.389  0.00  0.00    +0.004 C 
BRANCH  26  27
ATOM     27  C   LIG A   1      -2.697   6.302 129.897  0.00  0.00    -0.009 C 
BRANCH  27  28
ATOM     28  C   LIG A   1      -2.565   5.013 130.770  0.00  0.00    -0.014 C 
ATOM     29  C   LIG A   1      -1.773   5.214 132.063  0.00  0.00    +0.007 C 
ATOM     30  C   LIG A   1      -3.916   4.361 131.087  0.00  0.00    +0.007 C 
ENDBRANCH  27  28
BRANCH  27  31
ATOM     31  C   LIG A   1      -4.079   6.987 130.057  0.00  0.00    +0.000 C 
ATOM     32  C   LIG A   1      -4.061   8.503 129.946  0.00  0.00    +0.004 C 
ENDBRANCH  27  31
ENDBRANCH  26  27
ENDBRANCH  25  26
ENDBRANCH  23  25
ENDBRANCH  19  23
TORSDOF 7
ENDMDL
MODEL 4
REMARK VINA RESULT:      -7.5      7.435     10.849
REMARK  Name = NuBBE_1112
REMARK  13 active torsions:
REMARK  status: ('A' for Active; 'I' for Inactive)
REMARK    1  A    between atoms: C_1  and  C_2
REMARK    2  A    between atoms: C_5  and  O_7
REMARK    3  A    between atoms: C_18  and  C_19
REMARK    4  A    between atoms: C_23  and  C_25
REMARK    5  A    between atoms: C_25  and  C_27
REMARK    6  A    between atoms: C_25  and  C_28
REMARK    7  A    between atoms: C_28  and  C_29
REMARK    8  A    between atoms: C_29  and  C_30
REMARK    9  A    between atoms: C_30  and  C_32
REMARK   10  A    between atoms: C_30  and  C_34
REMARK   11  A    between atoms: C_32  and  C_33
REMARK   12  A    between atoms: C_34  and  C_35
REMARK   13  A    between atoms: C_34  and  C_36
REMARK                            x       y       z     vdW  Elec       q    Type
REMARK                         _______ _______ _______ _____ _____    ______ ____
ROOT
ATOM      1  C   LIG A   1      -4.927  -5.814 134.430  0.00  0.00    +0.016 C 
ATOM      2  C   LIG A   1      -5.821  -4.590 134.109  0.00  0.00    -0.007 C 
ATOM      3  C   LIG A   1      -5.110  -3.355 134.667  0.00  0.00    -0.058 C 
ATOM      4  C   LIG A   1      -5.364  -2.948 136.105  0.00  0.00    +0.062 C 
ATOM      5  C   LIG A   1      -6.808  -3.141 136.568  0.00  0.00    +0.119 C 
ATOM      6  C   LIG A   1      -7.267  -4.564 136.275  0.00  0.00    +0.032 C 
ATOM      7  C   LIG A   1      -7.213  -4.843 134.772  0.00  0.00    +0.013 C 
ATOM      8  C   LIG A   1      -4.191  -2.683 133.956  0.00  0.00    +0.046 C 
ATOM      9  C   LIG A   1      -3.775  -3.095 132.594  0.00  0.00    +0.160 C 
ATOM     10  C   LIG A   1      -4.622  -4.116 131.830  0.00  0.00    +0.067 C 
ATOM     11  C   LIG A   1      -5.977  -4.440 132.537  0.00  0.00    +0.010 C 
ATOM     12  C   LIG A   1      -7.113  -3.447 132.145  0.00  0.00    +0.005 C 
ATOM     13  C   LIG A   1      -7.199  -3.084 130.663  0.00  0.00    +0.007 C 
ATOM     14  C   LIG A   1      -5.859  -2.605 130.097  0.00  0.00    -0.025 C 
ATOM     15  C   LIG A   1      -5.420  -1.269 130.739  0.00  0.00    +0.012 C 
ATOM     16  C   LIG A   1      -4.868  -3.767 130.348  0.00  0.00    +0.006 C 
ATOM     17  C   LIG A   1      -3.701  -3.452 129.424  0.00  0.00    +0.005 C 
ATOM     18  C   LIG A   1      -4.374  -2.885 128.164  0.00  0.00    +0.004 C 
ATOM     19  C   LIG A   1      -5.840  -2.514 128.535  0.00  0.00    -0.002 C 
ATOM     20  O   LIG A   1      -2.731  -2.634 132.164  0.00  0.00    -0.292 OA
ENDROOT
BRANCH   5  21
ATOM     21  O   LIG A   1      -7.680  -2.216 135.916  0.00  0.00    -0.392 OA
ATOM     22  H   LIG A   1      -7.679  -2.419 134.966  0.00  0.00    +0.210 HD
ENDBRANCH   5  21
BRANCH  19  23
ATOM     23  C   LIG A   1      -6.314  -1.183 127.860  0.00  0.00    -0.010 C 
ATOM     24  C   LIG A   1      -7.837  -0.986 127.926  0.00  0.00    +0.008 C 
BRANCH  23  25
ATOM     25  C   LIG A   1      -5.845  -1.116 126.379  0.00  0.00    +0.004 C 
BRANCH  25  26
ATOM     26  C   LIG A   1      -6.955  -1.256 125.311  0.00  0.00    +0.004 C 
BRANCH  26  27
ATOM     27  C   LIG A   1      -6.818  -2.483 124.367  0.00  0.00    -0.009 C 
BRANCH  27  28
ATOM     28  C   LIG A   1      -8.023  -3.473 124.451  0.00  0.00    -0.014 C 
ATOM     29  C   LIG A   1      -8.568  -3.675 125.865  0.00  0.00    +0.007 C 
ATOM     30  C   LIG A   1      -9.171  -3.103 123.503  0.00  0.00    +0.007 C 
ENDBRANCH  27  28
BRANCH  27  31
ATOM     31  C   LIG A   1      -5.459  -3.181 124.630  0.00  0.00    +0.000 C 
ATOM     32  C   LIG A   1      -4.568  -3.334 123.406  0.00  0.00    +0.004 C 
ENDBRANCH  27  31
ENDBRANCH  26  27
ENDBRANCH  25  26
ENDBRANCH  23  25
ENDBRANCH  19  23
TORSDOF 7
ENDMDL
MODEL 5
REMARK VINA RESULT:      -7.5      5.275      8.571
REMARK  Name = NuBBE_1112
REMARK  13 active torsions:
REMARK  status: ('A' for Active; 'I' for Inactive)
REMARK    1  A    between atoms: C_1  and  C_2
REMARK    2  A    between atoms: C_5  and  O_7
REMARK    3  A    between atoms: C_18  and  C_19
REMARK    4  A    between atoms: C_23  and  C_25
REMARK    5  A    between atoms: C_25  and  C_27
REMARK    6  A    between atoms: C_25  and  C_28
REMARK    7  A    between atoms: C_28  and  C_29
REMARK    8  A    between atoms: C_29  and  C_30
REMARK    9  A    between atoms: C_30  and  C_32
REMARK   10  A    between atoms: C_30  and  C_34
REMARK   11  A    between atoms: C_32  and  C_33
REMARK   12  A    between atoms: C_34  and  C_35
REMARK   13  A    between atoms: C_34  and  C_36
REMARK                            x       y       z     vdW  Elec       q    Type
REMARK                         _______ _______ _______ _____ _____    ______ ____
ROOT
ATOM      1  C   LIG A   1      -5.938  -3.680 124.272  0.00  0.00    +0.016 C 
ATOM      2  C   LIG A   1      -6.755  -2.373 124.435  0.00  0.00    -0.007 C 
ATOM      3  C   LIG A   1      -8.075  -2.749 125.113  0.00  0.00    -0.058 C 
ATOM      4  C   LIG A   1      -9.248  -3.173 124.251  0.00  0.00    +0.062 C 
ATOM      5  C   LIG A   1      -9.379  -2.397 122.940  0.00  0.00    +0.119 C 
ATOM      6  C   LIG A   1      -8.057  -2.425 122.181  0.00  0.00    +0.032 C 
ATOM      7  C   LIG A   1      -6.953  -1.767 123.009  0.00  0.00    +0.013 C 
ATOM      8  C   LIG A   1      -8.194  -2.815 126.448  0.00  0.00    +0.046 C 
ATOM      9  C   LIG A   1      -7.059  -2.557 127.366  0.00  0.00    +0.160 C 
ATOM     10  C   LIG A   1      -5.794  -1.887 126.822  0.00  0.00    +0.067 C 
ATOM     11  C   LIG A   1      -5.960  -1.359 125.361  0.00  0.00    +0.010 C 
ATOM     12  C   LIG A   1      -6.550   0.083 125.306  0.00  0.00    +0.005 C 
ATOM     13  C   LIG A   1      -5.980   1.076 126.318  0.00  0.00    +0.007 C 
ATOM     14  C   LIG A   1      -6.023   0.542 127.753  0.00  0.00    -0.025 C 
ATOM     15  C   LIG A   1      -7.477   0.365 128.248  0.00  0.00    +0.012 C 
ATOM     16  C   LIG A   1      -5.215  -0.778 127.724  0.00  0.00    +0.006 C 
ATOM     17  C   LIG A   1      -4.917  -1.051 129.191  0.00  0.00    +0.005 C 
ATOM     18  C   LIG A   1      -4.650   0.344 129.776  0.00  0.00    +0.004 C 
ATOM     19  C   LIG A   1      -5.185   1.396 128.761  0.00  0.00    -0.002 C 
ATOM     20  O   LIG A   1      -7.170  -2.945 128.516  0.00  0.00    -0.292 OA
ENDROOT
BRANCH   5  21
ATOM     21  O   LIG A   1      -9.759  -1.043 123.185  0.00  0.00    -0.392 OA
ATOM     22  H   LIG A   1     -10.067  -0.977 124.105  0.00  0.00    +0.210 HD
ENDBRANCH   5  21
BRANCH  19  23
ATOM     23  C   LIG A   1      -5.876   2.613 129.462  0.00  0.00    -0.010 C 
ATOM     24  C   LIG A   1      -6.718   3.462 128.497  0.00  0.00    +0.008 C 
BRANCH  23  25
ATOM     25  C   LIG A   1      -4.825   3.516 130.166  0.00  0.00    +0.004 C 
BRANCH  25  26
ATOM     26  C   LIG A   1      -3.442   3.608 129.479  0.00  0.00    +0.004 C 
BRANCH  26  27
ATOM     27  C   LIG A   1      -3.304   4.727 128.411  0.00  0.00    -0.009 C 
BRANCH  27  28
ATOM     28  C   LIG A   1      -2.824   4.206 127.019  0.00  0.00    -0.014 C 
ATOM     29  C   LIG A   1      -1.921   2.974 127.091  0.00  0.00    +0.007 C 
ATOM     30  C   LIG A   1      -3.979   3.943 126.044  0.00  0.00    +0.007 C 
ENDBRANCH  27  28
BRANCH  27  31
ATOM     31  C   LIG A   1      -2.397   5.855 128.966  0.00  0.00    +0.000 C 
ATOM     32  C   LIG A   1      -2.327   7.106 128.104  0.00  0.00    +0.004 C 
ENDBRANCH  27  31
ENDBRANCH  26  27
ENDBRANCH  25  26
ENDBRANCH  23  25
ENDBRANCH  19  23
TORSDOF 7
ENDMDL
MODEL 6
REMARK VINA RESULT:      -7.5      4.535      8.479
REMARK  Name = NuBBE_1112
REMARK  13 active torsions:
REMARK  status: ('A' for Active; 'I' for Inactive)
REMARK    1  A    between atoms: C_1  and  C_2
REMARK    2  A    between atoms: C_5  and  O_7
REMARK    3  A    between atoms: C_18  and  C_19
REMARK    4  A    between atoms: C_23  and  C_25
REMARK    5  A    between atoms: C_25  and  C_27
REMARK    6  A    between atoms: C_25  and  C_28
REMARK    7  A    between atoms: C_28  and  C_29
REMARK    8  A    between atoms: C_29  and  C_30
REMARK    9  A    between atoms: C_30  and  C_32
REMARK   10  A    between atoms: C_30  and  C_34
REMARK   11  A    between atoms: C_32  and  C_33
REMARK   12  A    between atoms: C_34  and  C_35
REMARK   13  A    between atoms: C_34  and  C_36
REMARK                            x       y       z     vdW  Elec       q    Type
REMARK                         _______ _______ _______ _____ _____    ______ ____
ROOT
ATOM      1  C   LIG A   1      -5.687  -3.346 124.323  0.00  0.00    +0.016 C 
ATOM      2  C   LIG A   1      -6.632  -2.145 124.582  0.00  0.00    -0.007 C 
ATOM      3  C   LIG A   1      -7.918  -2.709 125.190  0.00  0.00    -0.058 C 
ATOM      4  C   LIG A   1      -9.030  -3.164 124.265  0.00  0.00    +0.062 C 
ATOM      5  C   LIG A   1      -9.216  -2.289 123.026  0.00  0.00    +0.119 C 
ATOM      6  C   LIG A   1      -7.887  -2.118 122.300  0.00  0.00    +0.032 C 
ATOM      7  C   LIG A   1      -6.867  -1.434 123.211  0.00  0.00    +0.013 C 
ATOM      8  C   LIG A   1      -8.051  -2.907 126.511  0.00  0.00    +0.046 C 
ATOM      9  C   LIG A   1      -6.962  -2.625 127.476  0.00  0.00    +0.160 C 
ATOM     10  C   LIG A   1      -5.761  -1.788 127.025  0.00  0.00    +0.067 C 
ATOM     11  C   LIG A   1      -5.956  -1.147 125.614  0.00  0.00    +0.010 C 
ATOM     12  C   LIG A   1      -6.686   0.229 125.674  0.00  0.00    +0.005 C 
ATOM     13  C   LIG A   1      -6.233   1.176 126.784  0.00  0.00    +0.007 C 
ATOM     14  C   LIG A   1      -6.245   0.511 128.164  0.00  0.00    -0.025 C 
ATOM     15  C   LIG A   1      -7.682   0.149 128.604  0.00  0.00    +0.012 C 
ATOM     16  C   LIG A   1      -5.309  -0.715 128.037  0.00  0.00    +0.006 C 
ATOM     17  C   LIG A   1      -5.009  -1.090 129.480  0.00  0.00    +0.005 C 
ATOM     18  C   LIG A   1      -4.891   0.265 130.195  0.00  0.00    +0.004 C 
ATOM     19  C   LIG A   1      -5.512   1.347 129.264  0.00  0.00    -0.002 C 
ATOM     20  O   LIG A   1      -7.052  -3.126 128.584  0.00  0.00    -0.292 OA
ENDROOT
BRANCH   5  21
ATOM     21  O   LIG A   1      -9.732  -1.006 123.382  0.00  0.00    -0.392 OA
ATOM     22  H   LIG A   1     -10.599  -1.136 123.803  0.00  0.00    +0.210 HD
ENDBRANCH   5  21
BRANCH  19  23
ATOM     23  C   LIG A   1      -6.332   2.423 130.054  0.00  0.00    -0.010 C 
ATOM     24  C   LIG A   1      -6.092   3.853 129.546  0.00  0.00    +0.008 C 
BRANCH  23  25
ATOM     25  C   LIG A   1      -6.015   2.352 131.575  0.00  0.00    +0.004 C 
BRANCH  25  26
ATOM     26  C   LIG A   1      -7.120   1.740 132.468  0.00  0.00    +0.004 C 
BRANCH  26  27
ATOM     27  C   LIG A   1      -8.481   1.490 131.764  0.00  0.00    -0.009 C 
BRANCH  27  28
ATOM     28  C   LIG A   1      -9.589   2.517 132.161  0.00  0.00    -0.014 C 
ATOM     29  C   LIG A   1      -9.276   3.312 133.430  0.00  0.00    +0.007 C 
ATOM     30  C   LIG A   1      -9.951   3.481 131.024  0.00  0.00    +0.007 C 
ENDBRANCH  27  28
BRANCH  27  31
ATOM     31  C   LIG A   1      -8.920   0.022 132.006  0.00  0.00    +0.000 C 
ATOM     32  C   LIG A   1      -7.780  -0.967 132.192  0.00  0.00    +0.004 C 
ENDBRANCH  27  31
ENDBRANCH  26  27
ENDBRANCH  25  26
ENDBRANCH  23  25
ENDBRANCH  19  23
TORSDOF 7
ENDMDL
MODEL 7
REMARK VINA RESULT:      -7.3      5.570      9.657
REMARK  Name = NuBBE_1112
REMARK  13 active torsions:
REMARK  status: ('A' for Active; 'I' for Inactive)
REMARK    1  A    between atoms: C_1  and  C_2
REMARK    2  A    between atoms: C_5  and  O_7
REMARK    3  A    between atoms: C_18  and  C_19
REMARK    4  A    between atoms: C_23  and  C_25
REMARK    5  A    between atoms: C_25  and  C_27
REMARK    6  A    between atoms: C_25  and  C_28
REMARK    7  A    between atoms: C_28  and  C_29
REMARK    8  A    between atoms: C_29  and  C_30
REMARK    9  A    between atoms: C_30  and  C_32
REMARK   10  A    between atoms: C_30  and  C_34
REMARK   11  A    between atoms: C_32  and  C_33
REMARK   12  A    between atoms: C_34  and  C_35
REMARK   13  A    between atoms: C_34  and  C_36
REMARK                            x       y       z     vdW  Elec       q    Type
REMARK                         _______ _______ _______ _____ _____    ______ ____
ROOT
ATOM      1  C   LIG A   1      -4.558  -2.587 130.834  0.00  0.00    +0.016 C 
ATOM      2  C   LIG A   1      -6.056  -2.359 130.510  0.00  0.00    -0.007 C 
ATOM      3  C   LIG A   1      -6.317  -0.856 130.626  0.00  0.00    -0.058 C 
ATOM      4  C   LIG A   1      -6.698  -0.279 131.976  0.00  0.00    +0.062 C 
ATOM      5  C   LIG A   1      -7.619  -1.174 132.806  0.00  0.00    +0.119 C 
ATOM      6  C   LIG A   1      -7.029  -2.575 132.915  0.00  0.00    +0.032 C 
ATOM      7  C   LIG A   1      -6.886  -3.203 131.529  0.00  0.00    +0.013 C 
ATOM      8  C   LIG A   1      -6.120  -0.019 129.596  0.00  0.00    +0.046 C 
ATOM      9  C   LIG A   1      -5.611  -0.474 128.281  0.00  0.00    +0.160 C 
ATOM     10  C   LIG A   1      -5.605  -1.972 127.960  0.00  0.00    +0.067 C 
ATOM     11  C   LIG A   1      -6.359  -2.830 129.025  0.00  0.00    +0.010 C 
ATOM     12  C   LIG A   1      -7.886  -2.941 128.737  0.00  0.00    +0.005 C 
ATOM     13  C   LIG A   1      -8.274  -3.188 127.280  0.00  0.00    +0.007 C 
ATOM     14  C   LIG A   1      -7.627  -2.183 126.322  0.00  0.00    -0.025 C 
ATOM     15  C   LIG A   1      -8.154  -0.750 126.565  0.00  0.00    +0.012 C 
ATOM     16  C   LIG A   1      -6.102  -2.328 126.544  0.00  0.00    +0.006 C 
ATOM     17  C   LIG A   1      -5.495  -1.659 125.320  0.00  0.00    +0.005 C 
ATOM     18  C   LIG A   1      -6.443  -2.055 124.177  0.00  0.00    +0.004 C 
ATOM     19  C   LIG A   1      -7.760  -2.585 124.815  0.00  0.00    -0.002 C 
ATOM     20  O   LIG A   1      -5.165   0.374 127.528  0.00  0.00    -0.292 OA
ENDROOT
BRANCH   5  21
ATOM     21  O   LIG A   1      -8.919  -1.249 132.220  0.00  0.00    -0.392 OA
ATOM     22  H   LIG A   1      -9.310  -0.359 132.237  0.00  0.00    +0.210 HD
ENDBRANCH   5  21
BRANCH  19  23
ATOM     23  C   LIG A   1      -9.036  -2.127 124.032  0.00  0.00    -0.010 C 
ATOM     24  C   LIG A   1      -9.753  -3.287 123.323  0.00  0.00    +0.008 C 
BRANCH  23  25
ATOM     25  C   LIG A   1      -8.682  -1.024 122.994  0.00  0.00    +0.004 C 
BRANCH  25  26
ATOM     26  C   LIG A   1      -9.303   0.370 123.250  0.00  0.00    +0.004 C 
BRANCH  26  27
ATOM     27  C   LIG A   1      -8.306   1.560 123.198  0.00  0.00    -0.009 C 
BRANCH  27  28
ATOM     28  C   LIG A   1      -7.830   2.037 124.607  0.00  0.00    -0.014 C 
ATOM     29  C   LIG A   1      -6.312   2.023 124.790  0.00  0.00    +0.007 C 
ATOM     30  C   LIG A   1      -8.384   3.414 124.994  0.00  0.00    +0.007 C 
ENDBRANCH  27  28
BRANCH  27  31
ATOM     31  C   LIG A   1      -8.923   2.709 122.360  0.00  0.00    +0.000 C 
ATOM     32  C   LIG A   1      -7.950   3.426 121.438  0.00  0.00    +0.004 C 
ENDBRANCH  27  31
ENDBRANCH  26  27
ENDBRANCH  25  26
ENDBRANCH  23  25
ENDBRANCH  19  23
TORSDOF 7
ENDMDL
MODEL 8
REMARK VINA RESULT:      -7.2      5.210      8.554
REMARK  Name = NuBBE_1112
REMARK  13 active torsions:
REMARK  status: ('A' for Active; 'I' for Inactive)
REMARK    1  A    between atoms: C_1  and  C_2
REMARK    2  A    between atoms: C_5  and  O_7
REMARK    3  A    between atoms: C_18  and  C_19
REMARK    4  A    between atoms: C_23  and  C_25
REMARK    5  A    between atoms: C_25  and  C_27
REMARK    6  A    between atoms: C_25  and  C_28
REMARK    7  A    between atoms: C_28  and  C_29
REMARK    8  A    between atoms: C_29  and  C_30
REMARK    9  A    between atoms: C_30  and  C_32
REMARK   10  A    between atoms: C_30  and  C_34
REMARK   11  A    between atoms: C_32  and  C_33
REMARK   12  A    between atoms: C_34  and  C_35
REMARK   13  A    between atoms: C_34  and  C_36
REMARK                            x       y       z     vdW  Elec       q    Type
REMARK                         _______ _______ _______ _____ _____    ______ ____
ROOT
ATOM      1  C   LIG A   1      -5.763  -3.538 124.278  0.00  0.00    +0.016 C 
ATOM      2  C   LIG A   1      -6.673  -2.294 124.434  0.00  0.00    -0.007 C 
ATOM      3  C   LIG A   1      -7.957  -2.760 125.125  0.00  0.00    -0.058 C 
ATOM      4  C   LIG A   1      -9.101  -3.278 124.276  0.00  0.00    +0.062 C 
ATOM      5  C   LIG A   1      -9.298  -2.528 122.958  0.00  0.00    +0.119 C 
ATOM      6  C   LIG A   1      -7.983  -2.465 122.190  0.00  0.00    +0.032 C 
ATOM      7  C   LIG A   1      -6.925  -1.719 123.003  0.00  0.00    +0.013 C 
ATOM      8  C   LIG A   1      -8.062  -2.820 126.461  0.00  0.00    +0.046 C 
ATOM      9  C   LIG A   1      -6.944  -2.470 127.369  0.00  0.00    +0.160 C 
ATOM     10  C   LIG A   1      -5.736  -1.714 126.808  0.00  0.00    +0.067 C 
ATOM     11  C   LIG A   1      -5.950  -1.214 125.344  0.00  0.00    +0.010 C 
ATOM     12  C   LIG A   1      -6.646   0.179 125.279  0.00  0.00    +0.005 C 
ATOM     13  C   LIG A   1      -6.144   1.222 126.277  0.00  0.00    +0.007 C 
ATOM     14  C   LIG A   1      -6.138   0.701 127.718  0.00  0.00    -0.025 C 
ATOM     15  C   LIG A   1      -7.572   0.422 128.224  0.00  0.00    +0.012 C 
ATOM     16  C   LIG A   1      -5.234  -0.556 127.696  0.00  0.00    +0.006 C 
ATOM     17  C   LIG A   1      -4.908  -0.790 129.163  0.00  0.00    +0.005 C 
ATOM     18  C   LIG A   1      -4.741   0.627 129.733  0.00  0.00    +0.004 C 
ATOM     19  C   LIG A   1      -5.359   1.625 128.711  0.00  0.00    -0.002 C 
ATOM     20  O   LIG A   1      -7.018  -2.853 128.523  0.00  0.00    -0.292 OA
ENDROOT
BRANCH   5  21
ATOM     21  O   LIG A   1      -9.775  -1.204 123.193  0.00  0.00    -0.392 OA
ATOM     22  H   LIG A   1      -9.104  -0.579 122.870  0.00  0.00    +0.210 HD
ENDBRANCH   5  21
BRANCH  19  23
ATOM     23  C   LIG A   1      -6.134   2.795 129.405  0.00  0.00    -0.010 C 
ATOM     24  C   LIG A   1      -6.318   4.018 128.492  0.00  0.00    +0.008 C 
BRANCH  23  25
ATOM     25  C   LIG A   1      -5.421   3.230 130.717  0.00  0.00    +0.004 C 
BRANCH  25  26
ATOM     26  C   LIG A   1      -4.745   4.620 130.691  0.00  0.00    +0.004 C 
BRANCH  26  27
ATOM     27  C   LIG A   1      -3.202   4.605 130.514  0.00  0.00    -0.009 C 
BRANCH  27  28
ATOM     28  C   LIG A   1      -2.434   5.334 131.663  0.00  0.00    -0.014 C 
ATOM     29  C   LIG A   1      -1.713   4.391 132.627  0.00  0.00    +0.007 C 
ATOM     30  C   LIG A   1      -1.455   6.398 131.151  0.00  0.00    +0.007 C 
ENDBRANCH  27  28
BRANCH  27  31
ATOM     31  C   LIG A   1      -2.842   5.164 129.113  0.00  0.00    +0.000 C 
ATOM     32  C   LIG A   1      -2.629   4.111 128.037  0.00  0.00    +0.004 C 
ENDBRANCH  27  31
ENDBRANCH  26  27
ENDBRANCH  25  26
ENDBRANCH  23  25
ENDBRANCH  19  23
TORSDOF 7
ENDMDL
MODEL 9
REMARK VINA RESULT:      -7.1      7.826     11.264
REMARK  Name = NuBBE_1112
REMARK  13 active torsions:
REMARK  status: ('A' for Active; 'I' for Inactive)
REMARK    1  A    between atoms: C_1  and  C_2
REMARK    2  A    between atoms: C_5  and  O_7
REMARK    3  A    between atoms: C_18  and  C_19
REMARK    4  A    between atoms: C_23  and  C_25
REMARK    5  A    between atoms: C_25  and  C_27
REMARK    6  A    between atoms: C_25  and  C_28
REMARK    7  A    between atoms: C_28  and  C_29
REMARK    8  A    between atoms: C_29  and  C_30
REMARK    9  A    between atoms: C_30  and  C_32
REMARK   10  A    between atoms: C_30  and  C_34
REMARK   11  A    between atoms: C_32  and  C_33
REMARK   12  A    between atoms: C_34  and  C_35
REMARK   13  A    between atoms: C_34  and  C_36
REMARK                            x       y       z     vdW  Elec       q    Type
REMARK                         _______ _______ _______ _____ _____    ______ ____
ROOT
ATOM      1  C   LIG A   1      -2.451  -3.911 133.996  0.00  0.00    +0.016 C 
ATOM      2  C   LIG A   1      -3.884  -4.434 133.720  0.00  0.00    -0.007 C 
ATOM      3  C   LIG A   1      -4.836  -3.621 134.602  0.00  0.00    -0.058 C 
ATOM      4  C   LIG A   1      -5.118  -4.100 136.013  0.00  0.00    +0.062 C 
ATOM      5  C   LIG A   1      -5.225  -5.618 136.154  0.00  0.00    +0.119 C 
ATOM      6  C   LIG A   1      -3.998  -6.288 135.545  0.00  0.00    +0.032 C 
ATOM      7  C   LIG A   1      -3.896  -5.959 134.055  0.00  0.00    +0.013 C 
ATOM      8  C   LIG A   1      -5.346  -2.447 134.200  0.00  0.00    +0.046 C 
ATOM      9  C   LIG A   1      -5.011  -1.833 132.894  0.00  0.00    +0.160 C 
ATOM     10  C   LIG A   1      -4.322  -2.684 131.823  0.00  0.00    +0.067 C 
ATOM     11  C   LIG A   1      -4.253  -4.200 132.195  0.00  0.00    +0.010 C 
ATOM     12  C   LIG A   1      -5.529  -4.984 131.766  0.00  0.00    +0.005 C 
ATOM     13  C   LIG A   1      -6.075  -4.660 130.376  0.00  0.00    +0.007 C 
ATOM     14  C   LIG A   1      -6.282  -3.157 130.163  0.00  0.00    -0.025 C 
ATOM     15  C   LIG A   1      -7.387  -2.601 131.091  0.00  0.00    +0.012 C 
ATOM     16  C   LIG A   1      -4.894  -2.514 130.400  0.00  0.00    +0.006 C 
ATOM     17  C   LIG A   1      -5.028  -1.131 129.780  0.00  0.00    +0.005 C 
ATOM     18  C   LIG A   1      -5.886  -1.370 128.529  0.00  0.00    +0.004 C 
ATOM     19  C   LIG A   1      -6.551  -2.770 128.671  0.00  0.00    -0.002 C 
ATOM     20  O   LIG A   1      -5.256  -0.647 132.753  0.00  0.00    -0.292 OA
ENDROOT
BRANCH   5  21
ATOM     21  O   LIG A   1      -6.402  -6.107 135.512  0.00  0.00    -0.392 OA
ATOM     22  H   LIG A   1      -6.932  -6.583 136.174  0.00  0.00    +0.210 HD
ENDBRANCH   5  21
BRANCH  19  23
ATOM     23  C   LIG A   1      -8.028  -2.791 128.150  0.00  0.00    -0.010 C 
ATOM     24  C   LIG A   1      -8.717  -4.149 128.355  0.00  0.00    +0.008 C 
BRANCH  23  25
ATOM     25  C   LIG A   1      -8.090  -2.399 126.647  0.00  0.00    +0.004 C 
BRANCH  25  26
ATOM     26  C   LIG A   1      -8.373  -3.554 125.657  0.00  0.00    +0.004 C 
BRANCH  26  27
ATOM     27  C   LIG A   1      -7.490  -3.564 124.379  0.00  0.00    -0.009 C 
BRANCH  27  28
ATOM     28  C   LIG A   1      -6.081  -2.924 124.588  0.00  0.00    -0.014 C 
ATOM     29  C   LIG A   1      -4.918  -3.832 124.185  0.00  0.00    +0.007 C 
ATOM     30  C   LIG A   1      -5.932  -1.560 123.903  0.00  0.00    +0.007 C 
ENDBRANCH  27  28
BRANCH  27  31
ATOM     31  C   LIG A   1      -8.272  -2.907 123.212  0.00  0.00    +0.000 C 
ATOM     32  C   LIG A   1      -9.771  -3.163 123.218  0.00  0.00    +0.004 C 
ENDBRANCH  27  31
ENDBRANCH  26  27
ENDBRANCH  25  26
ENDBRANCH  23  25
ENDBRANCH  19  23
TORSDOF 7
ENDMDL
