MODEL 1
REMARK VINA RESULT:      -7.9      0.000      0.000
REMARK  Name = NuBBE_2376
REMARK  7 active torsions:
REMARK  status: ('A' for Active; 'I' for Inactive)
REMARK    1  A    between atoms: C_1  and  C_22
REMARK    2  A    between atoms: C_1  and  C_23
REMARK    3  A    between atoms: C_9  and  C_10
REMARK    4  A    between atoms: C_10  and  C_11
REMARK    5  A    between atoms: C_10  and  C_12
REMARK    6  A    between atoms: C_13  and  O_16
REMARK    7  A    between atoms: C_14  and  O_15
REMARK                            x       y       z     vdW  Elec       q    Type
REMARK                         _______ _______ _______ _____ _____    ______ ____
ROOT
ATOM      1  C   LIG A   1      -5.127   3.399 130.771  0.00  0.00    -0.032 C 
ATOM      2  C   LIG A   1      -6.105   4.561 131.204  0.00  0.00    -0.002 C 
ATOM      3  C   LIG A   1      -6.394   4.535 132.739  0.00  0.00    -0.003 C 
ATOM      4  C   LIG A   1      -7.359   5.621 133.273  0.00  0.00    +0.043 C 
ATOM      5  C   LIG A   1      -8.396   6.087 132.283  0.00  0.00    +0.001 A 
ATOM      6  C   LIG A   1      -7.994   6.852 131.173  0.00  0.00    -0.040 A 
ATOM      7  C   LIG A   1      -8.949   7.302 130.244  0.00  0.00    +0.011 A 
ATOM      8  C   LIG A   1     -10.320   7.011 130.387  0.00  0.00    +0.001 A 
ATOM      9  C   LIG A   1     -10.689   6.204 131.471  0.00  0.00    +0.162 A 
ATOM     10  C   LIG A   1      -9.745   5.766 132.409  0.00  0.00    +0.162 A 
ATOM     11  C   LIG A   1      -6.532   7.170 130.986  0.00  0.00    +0.036 C 
ATOM     12  C   LIG A   1      -5.657   5.948 130.665  0.00  0.00    +0.009 C 
ATOM     13  C   LIG A   1      -6.925   3.150 133.160  0.00  0.00    +0.004 C 
ATOM     14  C   LIG A   1      -5.978   2.026 132.770  0.00  0.00    +0.001 C 
ATOM     15  C   LIG A   1      -5.683   2.044 131.278  0.00  0.00    +0.007 C 
ATOM     16  C   LIG A   1      -3.692   3.600 131.305  0.00  0.00    +0.011 C 
ATOM     17  C   LIG A   1      -5.036   3.299 129.230  0.00  0.00    +0.011 C 
ENDROOT
BRANCH   8  18
ATOM     18  C   LIG A   1     -11.331   7.544 129.384  0.00  0.00    +0.017 C 
ATOM     19  C   LIG A   1     -10.615   8.229 128.218  0.00  0.00    +0.012 C 
ATOM     20  C   LIG A   1     -12.375   8.484 130.000  0.00  0.00    +0.012 C 
ENDBRANCH   8  18
BRANCH  10  21
ATOM     21  O   LIG A   1     -10.174   4.991 133.454  0.00  0.00    -0.503 OA
ATOM     22  H   LIG A   1     -10.013   4.076 133.153  0.00  0.00    +0.292 HD
ENDBRANCH  10  21
BRANCH   9  23
ATOM     23  O   LIG A   1     -11.975   5.775 131.691  0.00  0.00    -0.503 OA
ATOM     24  H   LIG A   1     -12.558   6.550 131.704  0.00  0.00    +0.292 HD
ENDBRANCH   9  23
TORSDOF 3
ENDMDL
MODEL 2
REMARK VINA RESULT:      -7.8      6.787      9.239
REMARK  Name = NuBBE_2376
REMARK  7 active torsions:
REMARK  status: ('A' for Active; 'I' for Inactive)
REMARK    1  A    between atoms: C_1  and  C_22
REMARK    2  A    between atoms: C_1  and  C_23
REMARK    3  A    between atoms: C_9  and  C_10
REMARK    4  A    between atoms: C_10  and  C_11
REMARK    5  A    between atoms: C_10  and  C_12
REMARK    6  A    between atoms: C_13  and  O_16
REMARK    7  A    between atoms: C_14  and  O_15
REMARK                            x       y       z     vdW  Elec       q    Type
REMARK                         _______ _______ _______ _____ _____    ______ ____
ROOT
ATOM      1  C   LIG A   1      -6.288  -2.556 123.849  0.00  0.00    -0.032 C 
ATOM      2  C   LIG A   1      -6.325  -1.308 124.817  0.00  0.00    -0.002 C 
ATOM      3  C   LIG A   1      -7.757  -0.694 124.918  0.00  0.00    -0.003 C 
ATOM      4  C   LIG A   1      -7.907   0.551 125.827  0.00  0.00    +0.043 C 
ATOM      5  C   LIG A   1      -6.671   1.409 125.931  0.00  0.00    +0.001 A 
ATOM      6  C   LIG A   1      -5.549   0.918 126.622  0.00  0.00    -0.040 A 
ATOM      7  C   LIG A   1      -4.390   1.708 126.737  0.00  0.00    +0.011 A 
ATOM      8  C   LIG A   1      -4.312   2.998 126.176  0.00  0.00    +0.001 A 
ATOM      9  C   LIG A   1      -5.424   3.444 125.448  0.00  0.00    +0.162 A 
ATOM     10  C   LIG A   1      -6.586   2.668 125.344  0.00  0.00    +0.162 A 
ATOM     11  C   LIG A   1      -5.598  -0.464 127.223  0.00  0.00    +0.036 C 
ATOM     12  C   LIG A   1      -5.660  -1.599 126.190  0.00  0.00    +0.009 C 
ATOM     13  C   LIG A   1      -8.292  -0.348 123.514  0.00  0.00    +0.004 C 
ATOM     14  C   LIG A   1      -8.285  -1.550 122.582  0.00  0.00    +0.001 C 
ATOM     15  C   LIG A   1      -6.896  -2.162 122.479  0.00  0.00    +0.007 C 
ATOM     16  C   LIG A   1      -7.049  -3.772 124.420  0.00  0.00    +0.011 C 
ATOM     17  C   LIG A   1      -4.833  -3.006 123.582  0.00  0.00    +0.011 C 
ENDROOT
BRANCH   8  18
ATOM     18  C   LIG A   1      -3.058   3.840 126.349  0.00  0.00    +0.017 C 
ATOM     19  C   LIG A   1      -1.832   2.941 126.521  0.00  0.00    +0.012 C 
ATOM     20  C   LIG A   1      -3.148   4.851 127.500  0.00  0.00    +0.012 C 
ENDBRANCH   8  18
BRANCH  10  21
ATOM     21  O   LIG A   1      -7.642   3.169 124.629  0.00  0.00    -0.503 OA
ATOM     22  H   LIG A   1      -7.305   3.224 123.714  0.00  0.00    +0.292 HD
ENDBRANCH  10  21
BRANCH   9  23
ATOM     23  O   LIG A   1      -5.459   4.643 124.781  0.00  0.00    -0.503 OA
ATOM     24  H   LIG A   1      -6.363   4.787 124.458  0.00  0.00    +0.292 HD
ENDBRANCH   9  23
TORSDOF 3
ENDMDL
MODEL 3
REMARK VINA RESULT:      -7.6      7.188     10.183
REMARK  Name = NuBBE_2376
REMARK  7 active torsions:
REMARK  status: ('A' for Active; 'I' for Inactive)
REMARK    1  A    between atoms: C_1  and  C_22
REMARK    2  A    between atoms: C_1  and  C_23
REMARK    3  A    between atoms: C_9  and  C_10
REMARK    4  A    between atoms: C_10  and  C_11
REMARK    5  A    between atoms: C_10  and  C_12
REMARK    6  A    between atoms: C_13  and  O_16
REMARK    7  A    between atoms: C_14  and  O_15
REMARK                            x       y       z     vdW  Elec       q    Type
REMARK                         _______ _______ _______ _____ _____    ______ ____
ROOT
ATOM      1  C   LIG A   1      -7.711   2.120 124.251  0.00  0.00    -0.032 C 
ATOM      2  C   LIG A   1      -7.415   0.622 124.658  0.00  0.00    -0.002 C 
ATOM      3  C   LIG A   1      -7.895  -0.382 123.562  0.00  0.00    -0.003 C 
ATOM      4  C   LIG A   1      -7.674  -1.885 123.865  0.00  0.00    +0.043 C 
ATOM      5  C   LIG A   1      -7.696  -2.244 125.329  0.00  0.00    +0.001 A 
ATOM      6  C   LIG A   1      -6.641  -1.821 126.158  0.00  0.00    -0.040 A 
ATOM      7  C   LIG A   1      -6.640  -2.154 127.524  0.00  0.00    +0.011 A 
ATOM      8  C   LIG A   1      -7.677  -2.912 128.104  0.00  0.00    +0.001 A 
ATOM      9  C   LIG A   1      -8.742  -3.277 127.270  0.00  0.00    +0.162 A 
ATOM     10  C   LIG A   1      -8.740  -2.962 125.905  0.00  0.00    +0.162 A 
ATOM     11  C   LIG A   1      -5.523  -0.998 125.568  0.00  0.00    +0.036 C 
ATOM     12  C   LIG A   1      -5.946   0.408 125.116  0.00  0.00    +0.009 C 
ATOM     13  C   LIG A   1      -9.388  -0.156 123.246  0.00  0.00    +0.004 C 
ATOM     14  C   LIG A   1      -9.679   1.277 122.828  0.00  0.00    +0.001 C 
ATOM     15  C   LIG A   1      -9.210   2.266 123.885  0.00  0.00    +0.007 C 
ATOM     16  C   LIG A   1      -6.842   2.596 123.068  0.00  0.00    +0.011 C 
ATOM     17  C   LIG A   1      -7.442   3.077 125.436  0.00  0.00    +0.011 C 
ENDROOT
BRANCH   8  18
ATOM     18  C   LIG A   1      -7.628  -3.286 129.577  0.00  0.00    +0.017 C 
ATOM     19  C   LIG A   1      -7.743  -2.034 130.449  0.00  0.00    +0.012 C 
ATOM     20  C   LIG A   1      -6.386  -4.099 129.966  0.00  0.00    +0.012 C 
ENDBRANCH   8  18
BRANCH  10  21
ATOM     21  O   LIG A   1      -9.806  -3.360 125.142  0.00  0.00    -0.503 OA
ATOM     22  H   LIG A   1      -9.396  -3.736 124.339  0.00  0.00    +0.292 HD
ENDBRANCH  10  21
BRANCH   9  23
ATOM     23  O   LIG A   1      -9.856  -3.946 127.714  0.00  0.00    -0.503 OA
ATOM     24  H   LIG A   1     -10.546  -3.293 127.911  0.00  0.00    +0.292 HD
ENDBRANCH   9  23
TORSDOF 3
ENDMDL
MODEL 4
REMARK VINA RESULT:      -7.2      1.260      1.508
REMARK  Name = NuBBE_2376
REMARK  7 active torsions:
REMARK  status: ('A' for Active; 'I' for Inactive)
REMARK    1  A    between atoms: C_1  and  C_22
REMARK    2  A    between atoms: C_1  and  C_23
REMARK    3  A    between atoms: C_9  and  C_10
REMARK    4  A    between atoms: C_10  and  C_11
REMARK    5  A    between atoms: C_10  and  C_12
REMARK    6  A    between atoms: C_13  and  O_16
REMARK    7  A    between atoms: C_14  and  O_15
REMARK                            x       y       z     vdW  Elec       q    Type
REMARK                         _______ _______ _______ _____ _____    ______ ____
ROOT
ATOM      1  C   LIG A   1      -4.516   4.241 129.633  0.00  0.00    -0.032 C 
ATOM      2  C   LIG A   1      -5.807   4.823 130.331  0.00  0.00    -0.002 C 
ATOM      3  C   LIG A   1      -6.278   3.927 131.521  0.00  0.00    -0.003 C 
ATOM      4  C   LIG A   1      -7.552   4.394 132.268  0.00  0.00    +0.043 C 
ATOM      5  C   LIG A   1      -8.535   5.162 131.422  0.00  0.00    +0.001 A 
ATOM      6  C   LIG A   1      -8.201   6.455 130.982  0.00  0.00    -0.040 A 
ATOM      7  C   LIG A   1      -9.109   7.190 130.199  0.00  0.00    +0.011 A 
ATOM      8  C   LIG A   1     -10.366   6.668 129.833  0.00  0.00    +0.001 A 
ATOM      9  C   LIG A   1     -10.654   5.359 130.239  0.00  0.00    +0.162 A 
ATOM     10  C   LIG A   1      -9.760   4.628 131.033  0.00  0.00    +0.162 A 
ATOM     11  C   LIG A   1      -6.858   7.036 131.347  0.00  0.00    +0.036 C 
ATOM     12  C   LIG A   1      -5.664   6.328 130.687  0.00  0.00    +0.009 C 
ATOM     13  C   LIG A   1      -6.486   2.474 131.048  0.00  0.00    +0.004 C 
ATOM     14  C   LIG A   1      -5.239   1.895 130.397  0.00  0.00    +0.001 C 
ATOM     15  C   LIG A   1      -4.766   2.762 129.240  0.00  0.00    +0.007 C 
ATOM     16  C   LIG A   1      -3.263   4.330 130.532  0.00  0.00    +0.011 C 
ATOM     17  C   LIG A   1      -4.201   5.006 128.327  0.00  0.00    +0.011 C 
ENDROOT
BRANCH   8  18
ATOM     18  C   LIG A   1     -11.339   7.503 129.016  0.00  0.00    +0.017 C 
ATOM     19  C   LIG A   1     -10.581   8.502 128.139  0.00  0.00    +0.012 C 
ATOM     20  C   LIG A   1     -12.395   8.226 129.864  0.00  0.00    +0.012 C 
ENDBRANCH   8  18
BRANCH  10  21
ATOM     21  O   LIG A   1     -10.109   3.358 131.407  0.00  0.00    -0.503 OA
ATOM     22  H   LIG A   1     -11.065   3.420 131.599  0.00  0.00    +0.292 HD
ENDBRANCH  10  21
BRANCH   9  23
ATOM     23  O   LIG A   1     -11.804   4.694 129.889  0.00  0.00    -0.503 OA
ATOM     24  H   LIG A   1     -12.180   5.127 129.107  0.00  0.00    +0.292 HD
ENDBRANCH   9  23
TORSDOF 3
ENDMDL
MODEL 5
REMARK VINA RESULT:      -7.2      7.329     10.198
REMARK  Name = NuBBE_2376
REMARK  7 active torsions:
REMARK  status: ('A' for Active; 'I' for Inactive)
REMARK    1  A    between atoms: C_1  and  C_22
REMARK    2  A    between atoms: C_1  and  C_23
REMARK    3  A    between atoms: C_9  and  C_10
REMARK    4  A    between atoms: C_10  and  C_11
REMARK    5  A    between atoms: C_10  and  C_12
REMARK    6  A    between atoms: C_13  and  O_16
REMARK    7  A    between atoms: C_14  and  O_15
REMARK                            x       y       z     vdW  Elec       q    Type
REMARK                         _______ _______ _______ _____ _____    ______ ____
ROOT
ATOM      1  C   LIG A   1      -7.237  -2.553 124.289  0.00  0.00    -0.032 C 
ATOM      2  C   LIG A   1      -7.560  -2.397 125.827  0.00  0.00    -0.002 C 
ATOM      3  C   LIG A   1      -8.038  -0.952 126.176  0.00  0.00    -0.003 C 
ATOM      4  C   LIG A   1      -8.364  -0.679 127.665  0.00  0.00    +0.043 C 
ATOM      5  C   LIG A   1      -7.576  -1.507 128.647  0.00  0.00    +0.001 A 
ATOM      6  C   LIG A   1      -7.830  -2.887 128.743  0.00  0.00    -0.040 A 
ATOM      7  C   LIG A   1      -7.109  -3.675 129.660  0.00  0.00    +0.011 A 
ATOM      8  C   LIG A   1      -6.125  -3.121 130.501  0.00  0.00    +0.001 A 
ATOM      9  C   LIG A   1      -5.853  -1.754 130.350  0.00  0.00    +0.162 A 
ATOM     10  C   LIG A   1      -6.578  -0.962 129.451  0.00  0.00    +0.162 A 
ATOM     11  C   LIG A   1      -8.869  -3.511 127.846  0.00  0.00    +0.036 C 
ATOM     12  C   LIG A   1      -8.493  -3.521 126.357  0.00  0.00    +0.009 C 
ATOM     13  C   LIG A   1      -7.002   0.085 125.698  0.00  0.00    +0.004 C 
ATOM     14  C   LIG A   1      -6.703  -0.040 124.212  0.00  0.00    +0.001 C 
ATOM     15  C   LIG A   1      -6.242  -1.445 123.857  0.00  0.00    +0.007 C 
ATOM     16  C   LIG A   1      -8.502  -2.482 123.406  0.00  0.00    +0.011 C 
ATOM     17  C   LIG A   1      -6.551  -3.909 124.003  0.00  0.00    +0.011 C 
ENDROOT
BRANCH   8  18
ATOM     18  C   LIG A   1      -5.390  -3.993 131.507  0.00  0.00    +0.017 C 
ATOM     19  C   LIG A   1      -5.446  -5.462 131.080  0.00  0.00    +0.012 C 
ATOM     20  C   LIG A   1      -5.893  -3.833 132.947  0.00  0.00    +0.012 C 
ENDBRANCH   8  18
BRANCH  10  21
ATOM     21  O   LIG A   1      -6.272   0.370 129.362  0.00  0.00    -0.503 OA
ATOM     22  H   LIG A   1      -6.301   0.683 130.287  0.00  0.00    +0.292 HD
ENDBRANCH  10  21
BRANCH   9  23
ATOM     23  O   LIG A   1      -4.868  -1.098 131.045  0.00  0.00    -0.503 OA
ATOM     24  H   LIG A   1      -5.092  -0.154 131.076  0.00  0.00    +0.292 HD
ENDBRANCH   9  23
TORSDOF 3
ENDMDL
MODEL 6
REMARK VINA RESULT:      -7.1      6.572      8.658
REMARK  Name = NuBBE_2376
REMARK  7 active torsions:
REMARK  status: ('A' for Active; 'I' for Inactive)
REMARK    1  A    between atoms: C_1  and  C_22
REMARK    2  A    between atoms: C_1  and  C_23
REMARK    3  A    between atoms: C_9  and  C_10
REMARK    4  A    between atoms: C_10  and  C_11
REMARK    5  A    between atoms: C_10  and  C_12
REMARK    6  A    between atoms: C_13  and  O_16
REMARK    7  A    between atoms: C_14  and  O_15
REMARK                            x       y       z     vdW  Elec       q    Type
REMARK                         _______ _______ _______ _____ _____    ______ ____
ROOT
ATOM      1  C   LIG A   1      -6.677  -2.825 123.739  0.00  0.00    -0.032 C 
ATOM      2  C   LIG A   1      -6.677  -1.595 124.730  0.00  0.00    -0.002 C 
ATOM      3  C   LIG A   1      -7.758  -1.749 125.847  0.00  0.00    -0.003 C 
ATOM      4  C   LIG A   1      -7.861  -0.587 126.866  0.00  0.00    +0.043 C 
ATOM      5  C   LIG A   1      -7.474   0.765 126.323  0.00  0.00    +0.001 A 
ATOM      6  C   LIG A   1      -6.125   1.024 126.017  0.00  0.00    -0.040 A 
ATOM      7  C   LIG A   1      -5.745   2.282 125.518  0.00  0.00    +0.011 A 
ATOM      8  C   LIG A   1      -6.682   3.314 125.311  0.00  0.00    +0.001 A 
ATOM      9  C   LIG A   1      -8.025   3.015 125.575  0.00  0.00    +0.162 A 
ATOM     10  C   LIG A   1      -8.408   1.769 126.086  0.00  0.00    +0.162 A 
ATOM     11  C   LIG A   1      -5.101  -0.065 126.216  0.00  0.00    +0.036 C 
ATOM     12  C   LIG A   1      -5.256  -1.259 125.262  0.00  0.00    +0.009 C 
ATOM     13  C   LIG A   1      -9.147  -1.981 125.219  0.00  0.00    +0.004 C 
ATOM     14  C   LIG A   1      -9.164  -3.179 124.283  0.00  0.00    +0.001 C 
ATOM     15  C   LIG A   1      -8.112  -3.045 123.193  0.00  0.00    +0.007 C 
ATOM     16  C   LIG A   1      -6.174  -4.124 124.405  0.00  0.00    +0.011 C 
ATOM     17  C   LIG A   1      -5.769  -2.551 122.518  0.00  0.00    +0.011 C 
ENDROOT
BRANCH   8  18
ATOM     18  C   LIG A   1      -6.231   4.675 124.805  0.00  0.00    +0.017 C 
ATOM     19  C   LIG A   1      -5.493   4.531 123.473  0.00  0.00    +0.012 C 
ATOM     20  C   LIG A   1      -5.376   5.456 125.812  0.00  0.00    +0.012 C 
ENDBRANCH   8  18
BRANCH  10  21
ATOM     21  O   LIG A   1      -9.737   1.547 126.335  0.00  0.00    -0.503 OA
ATOM     22  H   LIG A   1      -9.984   0.848 125.699  0.00  0.00    +0.292 HD
ENDBRANCH  10  21
BRANCH   9  23
ATOM     23  O   LIG A   1      -9.054   3.895 125.344  0.00  0.00    -0.503 OA
ATOM     24  H   LIG A   1      -9.149   4.465 126.123  0.00  0.00    +0.292 HD
ENDBRANCH   9  23
TORSDOF 3
ENDMDL
MODEL 7
REMARK VINA RESULT:      -7.1      3.038      6.079
REMARK  Name = NuBBE_2376
REMARK  7 active torsions:
REMARK  status: ('A' for Active; 'I' for Inactive)
REMARK    1  A    between atoms: C_1  and  C_22
REMARK    2  A    between atoms: C_1  and  C_23
REMARK    3  A    between atoms: C_9  and  C_10
REMARK    4  A    between atoms: C_10  and  C_11
REMARK    5  A    between atoms: C_10  and  C_12
REMARK    6  A    between atoms: C_13  and  O_16
REMARK    7  A    between atoms: C_14  and  O_15
REMARK                            x       y       z     vdW  Elec       q    Type
REMARK                         _______ _______ _______ _____ _____    ______ ____
ROOT
ATOM      1  C   LIG A   1      -8.802   3.448 131.886  0.00  0.00    -0.032 C 
ATOM      2  C   LIG A   1      -7.299   3.849 131.613  0.00  0.00    -0.002 C 
ATOM      3  C   LIG A   1      -6.899   5.154 132.373  0.00  0.00    -0.003 C 
ATOM      4  C   LIG A   1      -5.448   5.653 132.162  0.00  0.00    +0.043 C 
ATOM      5  C   LIG A   1      -4.849   5.305 130.823  0.00  0.00    +0.001 A 
ATOM      6  C   LIG A   1      -4.533   3.964 130.538  0.00  0.00    -0.040 A 
ATOM      7  C   LIG A   1      -3.965   3.622 129.298  0.00  0.00    +0.011 A 
ATOM      8  C   LIG A   1      -3.695   4.591 128.312  0.00  0.00    +0.001 A 
ATOM      9  C   LIG A   1      -4.066   5.912 128.599  0.00  0.00    +0.162 A 
ATOM     10  C   LIG A   1      -4.617   6.261 129.839  0.00  0.00    +0.162 A 
ATOM     11  C   LIG A   1      -4.822   2.902 131.569  0.00  0.00    +0.036 C 
ATOM     12  C   LIG A   1      -6.317   2.663 131.827  0.00  0.00    +0.009 C 
ATOM     13  C   LIG A   1      -7.872   6.297 132.022  0.00  0.00    +0.004 C 
ATOM     14  C   LIG A   1      -9.320   5.930 132.305  0.00  0.00    +0.001 C 
ATOM     15  C   LIG A   1      -9.721   4.657 131.575  0.00  0.00    +0.007 C 
ATOM     16  C   LIG A   1      -9.037   2.981 133.339  0.00  0.00    +0.011 C 
ATOM     17  C   LIG A   1      -9.244   2.296 130.953  0.00  0.00    +0.011 C 
ENDROOT
BRANCH   8  18
ATOM     18  C   LIG A   1      -3.047   4.193 126.995  0.00  0.00    +0.017 C 
ATOM     19  C   LIG A   1      -4.115   3.799 125.973  0.00  0.00    +0.012 C 
ATOM     20  C   LIG A   1      -2.000   3.079 127.135  0.00  0.00    +0.012 C 
ENDBRANCH   8  18
BRANCH  10  21
ATOM     21  O   LIG A   1      -4.946   7.572 130.060  0.00  0.00    -0.503 OA
ATOM     22  H   LIG A   1      -4.785   8.006 129.200  0.00  0.00    +0.292 HD
ENDBRANCH  10  21
BRANCH   9  23
ATOM     23  O   LIG A   1      -3.937   6.945 127.704  0.00  0.00    -0.503 OA
ATOM     24  H   LIG A   1      -4.008   7.781 128.191  0.00  0.00    +0.292 HD
ENDBRANCH   9  23
TORSDOF 3
ENDMDL
MODEL 8
REMARK VINA RESULT:      -6.7      5.029      6.683
REMARK  Name = NuBBE_2376
REMARK  7 active torsions:
REMARK  status: ('A' for Active; 'I' for Inactive)
REMARK    1  A    between atoms: C_1  and  C_22
REMARK    2  A    between atoms: C_1  and  C_23
REMARK    3  A    between atoms: C_9  and  C_10
REMARK    4  A    between atoms: C_10  and  C_11
REMARK    5  A    between atoms: C_10  and  C_12
REMARK    6  A    between atoms: C_13  and  O_16
REMARK    7  A    between atoms: C_14  and  O_15
REMARK                            x       y       z     vdW  Elec       q    Type
REMARK                         _______ _______ _______ _____ _____    ______ ____
ROOT
ATOM      1  C   LIG A   1      -8.340  -2.164 126.126  0.00  0.00    -0.032 C 
ATOM      2  C   LIG A   1      -7.863  -1.217 127.296  0.00  0.00    -0.002 C 
ATOM      3  C   LIG A   1      -7.256  -2.025 128.487  0.00  0.00    -0.003 C 
ATOM      4  C   LIG A   1      -6.772  -1.197 129.702  0.00  0.00    +0.043 C 
ATOM      5  C   LIG A   1      -7.518   0.094 129.925  0.00  0.00    +0.001 A 
ATOM      6  C   LIG A   1      -7.351   1.152 129.013  0.00  0.00    -0.040 A 
ATOM      7  C   LIG A   1      -8.033   2.366 129.209  0.00  0.00    +0.011 A 
ATOM      8  C   LIG A   1      -8.893   2.566 130.307  0.00  0.00    +0.001 A 
ATOM      9  C   LIG A   1      -9.084   1.481 131.172  0.00  0.00    +0.162 A 
ATOM     10  C   LIG A   1      -8.395   0.274 130.991  0.00  0.00    +0.162 A 
ATOM     11  C   LIG A   1      -6.447   0.963 127.821  0.00  0.00    +0.036 C 
ATOM     12  C   LIG A   1      -6.962  -0.055 126.793  0.00  0.00    +0.009 C 
ATOM     13  C   LIG A   1      -8.260  -3.087 128.980  0.00  0.00    +0.004 C 
ATOM     14  C   LIG A   1      -8.706  -4.021 127.866  0.00  0.00    +0.001 C 
ATOM     15  C   LIG A   1      -9.294  -3.245 126.697  0.00  0.00    +0.007 C 
ATOM     16  C   LIG A   1      -7.162  -2.848 125.398  0.00  0.00    +0.011 C 
ATOM     17  C   LIG A   1      -9.141  -1.372 125.066  0.00  0.00    +0.011 C 
ENDROOT
BRANCH   8  18
ATOM     18  C   LIG A   1      -9.587   3.904 130.509  0.00  0.00    +0.017 C 
ATOM     19  C   LIG A   1     -11.093   3.764 130.281  0.00  0.00    +0.012 C 
ATOM     20  C   LIG A   1      -9.015   5.034 129.642  0.00  0.00    +0.012 C 
ENDBRANCH   8  18
BRANCH  10  21
ATOM     21  O   LIG A   1      -8.617  -0.743 131.881  0.00  0.00    -0.503 OA
ATOM     22  H   LIG A   1      -9.387  -0.441 132.400  0.00  0.00    +0.292 HD
ENDBRANCH  10  21
BRANCH   9  23
ATOM     23  O   LIG A   1      -9.952   1.505 132.236  0.00  0.00    -0.503 OA
ATOM     24  H   LIG A   1      -9.440   1.381 133.051  0.00  0.00    +0.292 HD
ENDBRANCH   9  23
TORSDOF 3
ENDMDL
MODEL 9
REMARK VINA RESULT:      -6.7      6.549      8.379
REMARK  Name = NuBBE_2376
REMARK  7 active torsions:
REMARK  status: ('A' for Active; 'I' for Inactive)
REMARK    1  A    between atoms: C_1  and  C_22
REMARK    2  A    between atoms: C_1  and  C_23
REMARK    3  A    between atoms: C_9  and  C_10
REMARK    4  A    between atoms: C_10  and  C_11
REMARK    5  A    between atoms: C_10  and  C_12
REMARK    6  A    between atoms: C_13  and  O_16
REMARK    7  A    between atoms: C_14  and  O_15
REMARK                            x       y       z     vdW  Elec       q    Type
REMARK                         _______ _______ _______ _____ _____    ______ ____
ROOT
ATOM      1  C   LIG A   1      -7.189  -2.397 126.602  0.00  0.00    -0.032 C 
ATOM      2  C   LIG A   1      -7.799  -0.948 126.454  0.00  0.00    -0.002 C 
ATOM      3  C   LIG A   1      -9.263  -0.987 125.912  0.00  0.00    -0.003 C 
ATOM      4  C   LIG A   1      -9.955   0.383 125.708  0.00  0.00    +0.043 C 
ATOM      5  C   LIG A   1      -9.022   1.520 125.377  0.00  0.00    +0.001 A 
ATOM      6  C   LIG A   1      -8.145   2.000 126.366  0.00  0.00    -0.040 A 
ATOM      7  C   LIG A   1      -7.273   3.065 126.079  0.00  0.00    +0.011 A 
ATOM      8  C   LIG A   1      -7.245   3.681 124.812  0.00  0.00    +0.001 A 
ATOM      9  C   LIG A   1      -8.091   3.151 123.828  0.00  0.00    +0.162 A 
ATOM     10  C   LIG A   1      -8.973   2.101 124.114  0.00  0.00    +0.162 A 
ATOM     11  C   LIG A   1      -8.142   1.352 127.728  0.00  0.00    +0.036 C 
ATOM     12  C   LIG A   1      -7.620  -0.093 127.739  0.00  0.00    +0.009 C 
ATOM     13  C   LIG A   1      -9.322  -1.773 124.586  0.00  0.00    +0.004 C 
ATOM     14  C   LIG A   1      -8.761  -3.180 124.724  0.00  0.00    +0.001 C 
ATOM     15  C   LIG A   1      -7.336  -3.157 125.258  0.00  0.00    +0.007 C 
ATOM     16  C   LIG A   1      -7.859  -3.212 127.730  0.00  0.00    +0.011 C 
ATOM     17  C   LIG A   1      -5.676  -2.331 126.916  0.00  0.00    +0.011 C 
ENDROOT
BRANCH   8  18
ATOM     18  C   LIG A   1      -6.316   4.855 124.545  0.00  0.00    +0.017 C 
ATOM     19  C   LIG A   1      -5.265   4.476 123.499  0.00  0.00    +0.012 C 
ATOM     20  C   LIG A   1      -5.642   5.408 125.807  0.00  0.00    +0.012 C 
ENDBRANCH   8  18
BRANCH  10  21
ATOM     21  O   LIG A   1      -9.783   1.639 123.110  0.00  0.00    -0.503 OA
ATOM     22  H   LIG A   1      -9.177   1.514 122.354  0.00  0.00    +0.292 HD
ENDBRANCH  10  21
BRANCH   9  23
ATOM     23  O   LIG A   1      -8.113   3.598 122.530  0.00  0.00    -0.503 OA
ATOM     24  H   LIG A   1      -8.327   2.848 121.952  0.00  0.00    +0.292 HD
ENDBRANCH   9  23
TORSDOF 3
ENDMDL
