MODEL 1
REMARK VINA RESULT:      -5.3      0.000      0.000
REMARK  Name = NuBBE_1437
REMARK  5 active torsions:
REMARK  status: ('A' for Active; 'I' for Inactive)
REMARK    1  A    between atoms: C_4  and  O_5
REMARK    2  A    between atoms: O_5  and  C_6
REMARK    3  A    between atoms: N_7  and  C_8
REMARK    4  A    between atoms: C_14  and  O_15
REMARK    5  A    between atoms: O_15  and  C_16
REMARK                            x       y       z     vdW  Elec       q    Type
REMARK                         _______ _______ _______ _____ _____    ______ ____
ROOT
ATOM      1  O   LIG A   1      -7.507   1.235 125.087  0.00  0.00    -0.268 OA
ATOM      2  C   LIG A   1      -7.805   0.168 125.626  0.00  0.00    +0.255 A 
ATOM      3  C   LIG A   1      -8.618  -0.778 124.843  0.00  0.00    +0.116 A 
ATOM      4  C   LIG A   1      -8.998  -1.965 125.325  0.00  0.00    +0.134 A 
ATOM      5  N   LIG A   1      -7.428  -0.204 126.908  0.00  0.00    -0.308 N 
ATOM      6  C   LIG A   1      -6.620   0.747 127.653  0.00  0.00    +0.152 C 
ATOM      7  C   LIG A   1      -7.816  -1.468 127.486  0.00  0.00    +0.097 A 
ATOM      8  C   LIG A   1      -8.597  -2.345 126.695  0.00  0.00    +0.044 A 
ATOM      9  C   LIG A   1      -9.003  -3.589 127.215  0.00  0.00    +0.014 A 
ATOM     10  C   LIG A   1      -8.657  -3.977 128.501  0.00  0.00    +0.004 A 
ATOM     11  C   LIG A   1      -7.893  -3.127 129.290  0.00  0.00    +0.048 A 
ATOM     12  C   LIG A   1      -7.453  -1.888 128.796  0.00  0.00    +0.144 A 
ENDROOT
BRANCH   4  13
ATOM     13  O   LIG A   1      -9.752  -2.906 124.654  0.00  0.00    -0.494 OA
ATOM     14  C   LIG A   1      -9.397  -3.211 123.310  0.00  0.00    +0.277 C 
ENDBRANCH   4  13
BRANCH  12  15
ATOM     15  O   LIG A   1      -6.726  -1.043 129.596  0.00  0.00    -0.493 OA
ATOM     16  C   LIG A   1      -5.756  -1.644 130.449  0.00  0.00    +0.277 C 
ENDBRANCH  12  15
TORSDOF 2
ENDMDL
MODEL 2
REMARK VINA RESULT:      -5.3      3.268      4.491
REMARK  Name = NuBBE_1437
REMARK  5 active torsions:
REMARK  status: ('A' for Active; 'I' for Inactive)
REMARK    1  A    between atoms: C_4  and  O_5
REMARK    2  A    between atoms: O_5  and  C_6
REMARK    3  A    between atoms: N_7  and  C_8
REMARK    4  A    between atoms: C_14  and  O_15
REMARK    5  A    between atoms: O_15  and  C_16
REMARK                            x       y       z     vdW  Elec       q    Type
REMARK                         _______ _______ _______ _____ _____    ______ ____
ROOT
ATOM      1  O   LIG A   1     -10.479   0.070 122.303  0.00  0.00    -0.268 OA
ATOM      2  C   LIG A   1      -9.463  -0.131 122.970  0.00  0.00    +0.255 A 
ATOM      3  C   LIG A   1      -9.013  -1.526 123.108  0.00  0.00    +0.116 A 
ATOM      4  C   LIG A   1      -7.924  -1.862 123.807  0.00  0.00    +0.134 A 
ATOM      5  N   LIG A   1      -8.715   0.859 123.591  0.00  0.00    -0.308 N 
ATOM      6  C   LIG A   1      -9.179   2.226 123.429  0.00  0.00    +0.152 C 
ATOM      7  C   LIG A   1      -7.536   0.557 124.366  0.00  0.00    +0.097 A 
ATOM      8  C   LIG A   1      -7.142  -0.799 124.471  0.00  0.00    +0.044 A 
ATOM      9  C   LIG A   1      -6.000  -1.145 125.218  0.00  0.00    +0.014 A 
ATOM     10  C   LIG A   1      -5.246  -0.177 125.867  0.00  0.00    +0.004 A 
ATOM     11  C   LIG A   1      -5.621   1.157 125.775  0.00  0.00    +0.048 A 
ATOM     12  C   LIG A   1      -6.742   1.540 125.021  0.00  0.00    +0.144 A 
ENDROOT
BRANCH   4  13
ATOM     13  O   LIG A   1      -7.436  -3.141 123.978  0.00  0.00    -0.494 OA
ATOM     14  C   LIG A   1      -8.197  -4.046 124.769  0.00  0.00    +0.277 C 
ENDBRANCH   4  13
BRANCH  12  15
ATOM     15  O   LIG A   1      -7.121   2.858 124.964  0.00  0.00    -0.493 OA
ATOM     16  C   LIG A   1      -6.090   3.811 124.725  0.00  0.00    +0.277 C 
ENDBRANCH  12  15
TORSDOF 2
ENDMDL
MODEL 3
REMARK VINA RESULT:      -5.2      1.801      4.501
REMARK  Name = NuBBE_1437
REMARK  5 active torsions:
REMARK  status: ('A' for Active; 'I' for Inactive)
REMARK    1  A    between atoms: C_4  and  O_5
REMARK    2  A    between atoms: O_5  and  C_6
REMARK    3  A    between atoms: N_7  and  C_8
REMARK    4  A    between atoms: C_14  and  O_15
REMARK    5  A    between atoms: O_15  and  C_16
REMARK                            x       y       z     vdW  Elec       q    Type
REMARK                         _______ _______ _______ _____ _____    ______ ____
ROOT
ATOM      1  O   LIG A   1      -7.424   1.382 127.857  0.00  0.00    -0.268 OA
ATOM      2  C   LIG A   1      -7.743   0.367 127.239  0.00  0.00    +0.255 A 
ATOM      3  C   LIG A   1      -7.699  -0.910 127.972  0.00  0.00    +0.116 A 
ATOM      4  C   LIG A   1      -8.026  -2.074 127.403  0.00  0.00    +0.134 A 
ATOM      5  N   LIG A   1      -8.144   0.341 125.911  0.00  0.00    -0.308 N 
ATOM      6  C   LIG A   1      -8.186   1.616 125.217  0.00  0.00    +0.152 C 
ATOM      7  C   LIG A   1      -8.500  -0.887 125.241  0.00  0.00    +0.097 A 
ATOM      8  C   LIG A   1      -8.442  -2.089 125.986  0.00  0.00    +0.044 A 
ATOM      9  C   LIG A   1      -8.778  -3.312 125.377  0.00  0.00    +0.014 A 
ATOM     10  C   LIG A   1      -9.162  -3.369 124.044  0.00  0.00    +0.004 A 
ATOM     11  C   LIG A   1      -9.221  -2.199 123.299  0.00  0.00    +0.048 A 
ATOM     12  C   LIG A   1      -8.914  -0.959 123.881  0.00  0.00    +0.144 A 
ENDROOT
BRANCH   4  13
ATOM     13  O   LIG A   1      -8.016  -3.308 128.023  0.00  0.00    -0.494 OA
ATOM     14  C   LIG A   1      -7.879  -3.342 129.439  0.00  0.00    +0.277 C 
ENDBRANCH   4  13
BRANCH  12  15
ATOM     15  O   LIG A   1      -8.945   0.187 123.126  0.00  0.00    -0.493 OA
ATOM     16  C   LIG A   1     -10.158   0.464 122.432  0.00  0.00    +0.277 C 
ENDBRANCH  12  15
TORSDOF 2
ENDMDL
MODEL 4
REMARK VINA RESULT:      -5.1      3.405      5.243
REMARK  Name = NuBBE_1437
REMARK  5 active torsions:
REMARK  status: ('A' for Active; 'I' for Inactive)
REMARK    1  A    between atoms: C_4  and  O_5
REMARK    2  A    between atoms: O_5  and  C_6
REMARK    3  A    between atoms: N_7  and  C_8
REMARK    4  A    between atoms: C_14  and  O_15
REMARK    5  A    between atoms: O_15  and  C_16
REMARK                            x       y       z     vdW  Elec       q    Type
REMARK                         _______ _______ _______ _____ _____    ______ ____
ROOT
ATOM      1  O   LIG A   1      -8.941   2.967 123.918  0.00  0.00    -0.268 OA
ATOM      2  C   LIG A   1      -8.207   2.018 124.195  0.00  0.00    +0.255 A 
ATOM      3  C   LIG A   1      -7.005   2.308 124.995  0.00  0.00    +0.116 A 
ATOM      4  C   LIG A   1      -6.139   1.356 125.356  0.00  0.00    +0.134 A 
ATOM      5  N   LIG A   1      -8.434   0.704 123.814  0.00  0.00    -0.308 N 
ATOM      6  C   LIG A   1      -9.633   0.447 123.034  0.00  0.00    +0.152 C 
ATOM      7  C   LIG A   1      -7.530  -0.365 124.166  0.00  0.00    +0.097 A 
ATOM      8  C   LIG A   1      -6.388  -0.038 124.936  0.00  0.00    +0.044 A 
ATOM      9  C   LIG A   1      -5.474  -1.044 125.303  0.00  0.00    +0.014 A 
ATOM     10  C   LIG A   1      -5.666  -2.364 124.918  0.00  0.00    +0.004 A 
ATOM     11  C   LIG A   1      -6.780  -2.699 124.161  0.00  0.00    +0.048 A 
ATOM     12  C   LIG A   1      -7.723  -1.725 123.795  0.00  0.00    +0.144 A 
ENDROOT
BRANCH   4  13
ATOM     13  O   LIG A   1      -4.996   1.546 126.107  0.00  0.00    -0.494 OA
ATOM     14  C   LIG A   1      -4.589   2.883 126.377  0.00  0.00    +0.277 C 
ENDBRANCH   4  13
BRANCH  12  15
ATOM     15  O   LIG A   1      -8.804  -2.063 123.020  0.00  0.00    -0.493 OA
ATOM     16  C   LIG A   1      -9.537  -3.220 123.412  0.00  0.00    +0.277 C 
ENDBRANCH  12  15
TORSDOF 2
ENDMDL
MODEL 5
REMARK VINA RESULT:      -4.9      2.956      5.221
REMARK  Name = NuBBE_1437
REMARK  5 active torsions:
REMARK  status: ('A' for Active; 'I' for Inactive)
REMARK    1  A    between atoms: C_4  and  O_5
REMARK    2  A    between atoms: O_5  and  C_6
REMARK    3  A    between atoms: N_7  and  C_8
REMARK    4  A    between atoms: C_14  and  O_15
REMARK    5  A    between atoms: O_15  and  C_16
REMARK                            x       y       z     vdW  Elec       q    Type
REMARK                         _______ _______ _______ _____ _____    ______ ____
ROOT
ATOM      1  O   LIG A   1     -10.145  -1.007 122.839  0.00  0.00    -0.268 OA
ATOM      2  C   LIG A   1      -9.357  -0.128 123.191  0.00  0.00    +0.255 A 
ATOM      3  C   LIG A   1      -9.493   1.193 122.552  0.00  0.00    +0.116 A 
ATOM      4  C   LIG A   1      -8.695   2.220 122.856  0.00  0.00    +0.134 A 
ATOM      5  N   LIG A   1      -8.362  -0.291 124.142  0.00  0.00    -0.308 N 
ATOM      6  C   LIG A   1      -8.258  -1.601 124.761  0.00  0.00    +0.152 C 
ATOM      7  C   LIG A   1      -7.464   0.779 124.505  0.00  0.00    +0.097 A 
ATOM      8  C   LIG A   1      -7.633   2.030 123.865  0.00  0.00    +0.044 A 
ATOM      9  C   LIG A   1      -6.782   3.105 124.183  0.00  0.00    +0.014 A 
ATOM     10  C   LIG A   1      -5.764   2.964 125.117  0.00  0.00    +0.004 A 
ATOM     11  C   LIG A   1      -5.584   1.742 125.751  0.00  0.00    +0.048 A 
ATOM     12  C   LIG A   1      -6.429   0.655 125.474  0.00  0.00    +0.144 A 
ENDROOT
BRANCH   4  13
ATOM     13  O   LIG A   1      -8.763   3.486 122.308  0.00  0.00    -0.494 OA
ATOM     14  C   LIG A   1      -8.772   3.599 120.890  0.00  0.00    +0.277 C 
ENDBRANCH   4  13
BRANCH  12  15
ATOM     15  O   LIG A   1      -6.221  -0.557 126.085  0.00  0.00    -0.493 OA
ATOM     16  C   LIG A   1      -5.980  -0.534 127.489  0.00  0.00    +0.277 C 
ENDBRANCH  12  15
TORSDOF 2
ENDMDL
MODEL 6
REMARK VINA RESULT:      -4.9      2.024      5.274
REMARK  Name = NuBBE_1437
REMARK  5 active torsions:
REMARK  status: ('A' for Active; 'I' for Inactive)
REMARK    1  A    between atoms: C_4  and  O_5
REMARK    2  A    between atoms: O_5  and  C_6
REMARK    3  A    between atoms: N_7  and  C_8
REMARK    4  A    between atoms: C_14  and  O_15
REMARK    5  A    between atoms: O_15  and  C_16
REMARK                            x       y       z     vdW  Elec       q    Type
REMARK                         _______ _______ _______ _____ _____    ______ ____
ROOT
ATOM      1  O   LIG A   1      -9.668  -4.321 128.287  0.00  0.00    -0.268 OA
ATOM      2  C   LIG A   1      -8.733  -3.587 127.964  0.00  0.00    +0.255 A 
ATOM      3  C   LIG A   1      -7.655  -3.397 128.949  0.00  0.00    +0.116 A 
ATOM      4  C   LIG A   1      -6.592  -2.625 128.706  0.00  0.00    +0.134 A 
ATOM      5  N   LIG A   1      -8.622  -2.937 126.743  0.00  0.00    -0.308 N 
ATOM      6  C   LIG A   1      -9.696  -3.151 125.789  0.00  0.00    +0.152 C 
ATOM      7  C   LIG A   1      -7.502  -2.083 126.428  0.00  0.00    +0.097 A 
ATOM      8  C   LIG A   1      -6.490  -1.931 127.406  0.00  0.00    +0.044 A 
ATOM      9  C   LIG A   1      -5.378  -1.108 127.147  0.00  0.00    +0.014 A 
ATOM     10  C   LIG A   1      -5.252  -0.429 125.943  0.00  0.00    +0.004 A 
ATOM     11  C   LIG A   1      -6.237  -0.567 124.975  0.00  0.00    +0.048 A 
ATOM     12  C   LIG A   1      -7.349  -1.396 125.191  0.00  0.00    +0.144 A 
ENDROOT
BRANCH   4  13
ATOM     13  O   LIG A   1      -5.541  -2.401 129.573  0.00  0.00    -0.494 OA
ATOM     14  C   LIG A   1      -4.761  -3.520 129.980  0.00  0.00    +0.277 C 
ENDBRANCH   4  13
BRANCH  12  15
ATOM     15  O   LIG A   1      -8.332  -1.499 124.239  0.00  0.00    -0.493 OA
ATOM     16  C   LIG A   1      -7.903  -1.624 122.886  0.00  0.00    +0.277 C 
ENDBRANCH  12  15
TORSDOF 2
ENDMDL
MODEL 7
REMARK VINA RESULT:      -4.9      1.044      4.238
REMARK  Name = NuBBE_1437
REMARK  5 active torsions:
REMARK  status: ('A' for Active; 'I' for Inactive)
REMARK    1  A    between atoms: C_4  and  O_5
REMARK    2  A    between atoms: O_5  and  C_6
REMARK    3  A    between atoms: N_7  and  C_8
REMARK    4  A    between atoms: C_14  and  O_15
REMARK    5  A    between atoms: O_15  and  C_16
REMARK                            x       y       z     vdW  Elec       q    Type
REMARK                         _______ _______ _______ _____ _____    ______ ____
ROOT
ATOM      1  O   LIG A   1      -7.072   2.120 126.243  0.00  0.00    -0.268 OA
ATOM      2  C   LIG A   1      -7.313   1.008 126.716  0.00  0.00    +0.255 A 
ATOM      3  C   LIG A   1      -6.807   0.730 128.071  0.00  0.00    +0.116 A 
ATOM      4  C   LIG A   1      -7.009  -0.441 128.685  0.00  0.00    +0.134 A 
ATOM      5  N   LIG A   1      -8.027   0.010 126.070  0.00  0.00    -0.308 N 
ATOM      6  C   LIG A   1      -8.521   0.318 124.739  0.00  0.00    +0.152 C 
ATOM      7  C   LIG A   1      -8.269  -1.276 126.678  0.00  0.00    +0.097 A 
ATOM      8  C   LIG A   1      -7.763  -1.498 127.981  0.00  0.00    +0.044 A 
ATOM      9  C   LIG A   1      -7.972  -2.737 128.616  0.00  0.00    +0.014 A 
ATOM     10  C   LIG A   1      -8.664  -3.761 127.984  0.00  0.00    +0.004 A 
ATOM     11  C   LIG A   1      -9.164  -3.559 126.705  0.00  0.00    +0.048 A 
ATOM     12  C   LIG A   1      -8.993  -2.328 126.050  0.00  0.00    +0.144 A 
ENDROOT
BRANCH   4  13
ATOM     13  O   LIG A   1      -6.574  -0.775 129.951  0.00  0.00    -0.494 OA
ATOM     14  C   LIG A   1      -6.992   0.041 131.038  0.00  0.00    +0.277 C 
ENDBRANCH   4  13
BRANCH  12  15
ATOM     15  O   LIG A   1      -9.465  -2.152 124.773  0.00  0.00    -0.493 OA
ATOM     16  C   LIG A   1      -9.362  -3.266 123.892  0.00  0.00    +0.277 C 
ENDBRANCH  12  15
TORSDOF 2
ENDMDL
MODEL 8
REMARK VINA RESULT:      -4.8      1.731      4.641
REMARK  Name = NuBBE_1437
REMARK  5 active torsions:
REMARK  status: ('A' for Active; 'I' for Inactive)
REMARK    1  A    between atoms: C_4  and  O_5
REMARK    2  A    between atoms: O_5  and  C_6
REMARK    3  A    between atoms: N_7  and  C_8
REMARK    4  A    between atoms: C_14  and  O_15
REMARK    5  A    between atoms: O_15  and  C_16
REMARK                            x       y       z     vdW  Elec       q    Type
REMARK                         _______ _______ _______ _____ _____    ______ ____
ROOT
ATOM      1  O   LIG A   1      -4.725   0.360 129.356  0.00  0.00    -0.268 OA
ATOM      2  C   LIG A   1      -5.584  -0.508 129.198  0.00  0.00    +0.255 A 
ATOM      3  C   LIG A   1      -6.100  -1.173 130.406  0.00  0.00    +0.116 A 
ATOM      4  C   LIG A   1      -7.034  -2.128 130.355  0.00  0.00    +0.134 A 
ATOM      5  N   LIG A   1      -6.101  -0.897 127.970  0.00  0.00    -0.308 N 
ATOM      6  C   LIG A   1      -5.580  -0.216 126.797  0.00  0.00    +0.152 C 
ATOM      7  C   LIG A   1      -7.104  -1.927 127.852  0.00  0.00    +0.097 A 
ATOM      8  C   LIG A   1      -7.569  -2.538 129.041  0.00  0.00    +0.044 A 
ATOM      9  C   LIG A   1      -8.546  -3.550 128.978  0.00  0.00    +0.014 A 
ATOM     10  C   LIG A   1      -9.065  -3.973 127.762  0.00  0.00    +0.004 A 
ATOM     11  C   LIG A   1      -8.617  -3.385 126.586  0.00  0.00    +0.048 A 
ATOM     12  C   LIG A   1      -7.659  -2.358 126.614  0.00  0.00    +0.144 A 
ENDROOT
BRANCH   4  13
ATOM     13  O   LIG A   1      -7.570  -2.792 131.439  0.00  0.00    -0.494 OA
ATOM     14  C   LIG A   1      -6.678  -3.266 132.441  0.00  0.00    +0.277 C 
ENDBRANCH   4  13
BRANCH  12  15
ATOM     15  O   LIG A   1      -7.201  -1.806 125.443  0.00  0.00    -0.493 OA
ATOM     16  C   LIG A   1      -8.082  -1.854 124.325  0.00  0.00    +0.277 C 
ENDBRANCH  12  15
TORSDOF 2
ENDMDL
MODEL 9
REMARK VINA RESULT:      -4.7      2.451      3.326
REMARK  Name = NuBBE_1437
REMARK  5 active torsions:
REMARK  status: ('A' for Active; 'I' for Inactive)
REMARK    1  A    between atoms: C_4  and  O_5
REMARK    2  A    between atoms: O_5  and  C_6
REMARK    3  A    between atoms: N_7  and  C_8
REMARK    4  A    between atoms: C_14  and  O_15
REMARK    5  A    between atoms: O_15  and  C_16
REMARK                            x       y       z     vdW  Elec       q    Type
REMARK                         _______ _______ _______ _____ _____    ______ ____
ROOT
ATOM      1  O   LIG A   1      -9.759  -1.032 122.799  0.00  0.00    -0.268 OA
ATOM      2  C   LIG A   1      -8.896  -1.230 123.655  0.00  0.00    +0.255 A 
ATOM      3  C   LIG A   1      -7.922  -2.304 123.393  0.00  0.00    +0.116 A 
ATOM      4  C   LIG A   1      -6.942  -2.607 124.250  0.00  0.00    +0.134 A 
ATOM      5  N   LIG A   1      -8.773  -0.515 124.837  0.00  0.00    -0.308 N 
ATOM      6  C   LIG A   1      -9.742   0.544 125.063  0.00  0.00    +0.152 C 
ATOM      7  C   LIG A   1      -7.742  -0.802 125.804  0.00  0.00    +0.097 A 
ATOM      8  C   LIG A   1      -6.829  -1.843 125.509  0.00  0.00    +0.044 A 
ATOM      9  C   LIG A   1      -5.806  -2.162 126.422  0.00  0.00    +0.014 A 
ATOM     10  C   LIG A   1      -5.673  -1.477 127.622  0.00  0.00    +0.004 A 
ATOM     11  C   LIG A   1      -6.562  -0.455 127.926  0.00  0.00    +0.048 A 
ATOM     12  C   LIG A   1      -7.582  -0.095 127.029  0.00  0.00    +0.144 A 
ENDROOT
BRANCH   4  13
ATOM     13  O   LIG A   1      -5.991  -3.591 124.075  0.00  0.00    -0.494 OA
ATOM     14  C   LIG A   1      -4.887  -3.309 123.223  0.00  0.00    +0.277 C 
ENDBRANCH   4  13
BRANCH  12  15
ATOM     15  O   LIG A   1      -8.473   0.895 127.356  0.00  0.00    -0.493 OA
ATOM     16  C   LIG A   1      -8.261   1.567 128.594  0.00  0.00    +0.277 C 
ENDBRANCH  12  15
TORSDOF 2
ENDMDL
