MODEL 1
REMARK VINA RESULT:      -9.4      0.000      0.000
REMARK  Name = NuBBE_1173
REMARK  18 active torsions:
REMARK  status: ('A' for Active; 'I' for Inactive)
REMARK    1  A    between atoms: C_1  and  C_2
REMARK    2  A    between atoms: C_2  and  C_57
REMARK    3  A    between atoms: C_5  and  C_38
REMARK    4  A    between atoms: C_8  and  C_37
REMARK    5  A    between atoms: C_9  and  C_36
REMARK    6  A    between atoms: C_11  and  O_35
REMARK    7  A    between atoms: C_15  and  C_16
REMARK    8  A    between atoms: C_15  and  C_34
REMARK    9  A    between atoms: C_17  and  O_33
REMARK   10  A    between atoms: C_19  and  O_32
REMARK   11  A    between atoms: C_22  and  C_31
REMARK   12  A    between atoms: C_38  and  O_39
REMARK   13  A    between atoms: O_39  and  C_40
REMARK   14  A    between atoms: C_42  and  O_44
REMARK   15  A    between atoms: C_45  and  O_47
REMARK   16  A    between atoms: C_48  and  O_50
REMARK   17  A    between atoms: C_51  and  C_53
REMARK   18  A    between atoms: C_53  and  O_54
REMARK                            x       y       z     vdW  Elec       q    Type
REMARK                         _______ _______ _______ _____ _____    ______ ____
ROOT
ATOM      1  C   LIG A   1      -4.057   3.907 126.078  0.00  0.00    +0.011 C 
ATOM      2  C   LIG A   1      -3.087   3.322 127.124  0.00  0.00    -0.034 C 
ATOM      3  C   LIG A   1      -3.731   2.101 127.800  0.00  0.00    +0.007 C 
ATOM      4  C   LIG A   1      -4.916   2.480 128.694  0.00  0.00    +0.019 C 
ATOM      5  C   LIG A   1      -4.627   3.631 129.709  0.00  0.00    +0.074 C 
ATOM      6  C   LIG A   1      -4.836   3.064 131.127  0.00  0.00    +0.019 C 
ATOM      7  C   LIG A   1      -4.524   4.034 132.259  0.00  0.00    +0.012 C 
ATOM      8  C   LIG A   1      -3.212   4.898 132.155  0.00  0.00    -0.005 C 
ATOM      9  C   LIG A   1      -3.457   6.369 132.804  0.00  0.00    -0.017 C 
ATOM     10  C   LIG A   1      -4.091   6.266 134.232  0.00  0.00    +0.039 C 
ATOM     11  C   LIG A   1      -3.413   6.975 135.400  0.00  0.00    +0.119 C 
ATOM     12  C   LIG A   1      -2.728   8.284 134.976  0.00  0.00    +0.032 C 
ATOM     13  C   LIG A   1      -2.435   9.289 136.173  0.00  0.00    -0.001 C 
ATOM     14  C   LIG A   1      -3.797   9.794 136.740  0.00  0.00    +0.014 C 
ATOM     15  C   LIG A   1      -1.680  10.540 135.639  0.00  0.00    +0.149 C 
ATOM     16  C   LIG A   1      -0.477  10.191 134.759  0.00  0.00    +0.144 C 
ATOM     17  C   LIG A   1      -0.909   9.357 133.561  0.00  0.00    +0.041 C 
ATOM     18  C   LIG A   1      -1.565   7.997 133.954  0.00  0.00    -0.020 C 
ATOM     19  C   LIG A   1      -2.215   7.359 132.651  0.00  0.00    +0.006 C 
ATOM     20  C   LIG A   1      -1.208   6.926 131.558  0.00  0.00    +0.031 C 
ATOM     21  C   LIG A   1      -1.771   6.032 130.489  0.00  0.00    -0.026 C 
ATOM     22  C   LIG A   1      -2.691   5.069 130.716  0.00  0.00    -0.063 C 
ATOM     23  C   LIG A   1      -3.128   4.064 129.636  0.00  0.00    +0.033 C 
ATOM     24  C   LIG A   1      -2.697   4.394 128.179  0.00  0.00    +0.015 C 
ATOM     25  C   LIG A   1      -0.431   7.093 134.486  0.00  0.00    +0.012 C 
ATOM     26  C   LIG A   1      -1.688   8.670 137.371  0.00  0.00    +0.014 C 
ATOM     27  C   LIG A   1      -4.564   7.085 131.930  0.00  0.00    +0.012 C 
ATOM     28  C   LIG A   1      -2.128   4.097 132.935  0.00  0.00    +0.016 C 
ATOM     29  C   LIG A   1      -1.821   2.875 126.361  0.00  0.00    +0.011 C 
ENDROOT
BRANCH  16  30
ATOM     30  O   LIG A   1       0.099  11.414 134.280  0.00  0.00    -0.389 OA
ATOM     31  H   LIG A   1       0.854  11.126 133.727  0.00  0.00    +0.210 HD
ENDBRANCH  16  30
BRANCH  15  32
ATOM     32  O   LIG A   1      -1.195  11.385 136.695  0.00  0.00    -0.389 OA
ATOM     33  H   LIG A   1      -0.732  10.821 137.338  0.00  0.00    +0.210 HD
ENDBRANCH  15  32
BRANCH  11  34
ATOM     34  O   LIG A   1      -2.512   6.077 136.036  0.00  0.00    -0.392 OA
ATOM     35  H   LIG A   1      -2.117   5.514 135.348  0.00  0.00    +0.210 HD
ENDBRANCH  11  34
BRANCH   5  36
ATOM     36  C   LIG A   1      -5.629   4.808 129.445  0.00  0.00    +0.316 C 
ATOM     37  O   LIG A   1      -5.342   5.873 128.944  0.00  0.00    -0.250 OA
BRANCH  36  38
ATOM     38  O   LIG A   1      -6.909   4.477 129.861  0.00  0.00    -0.432 OA
BRANCH  38  39
ATOM     39  C   LIG A   1      -7.726   5.578 130.347  0.00  0.00    +0.342 C 
ATOM     40  C   LIG A   1      -9.231   5.428 129.907  0.00  0.00    +0.214 C 
ATOM     41  C   LIG A   1      -9.999   4.336 130.697  0.00  0.00    +0.180 C 
ATOM     42  C   LIG A   1      -9.121   3.741 131.800  0.00  0.00    +0.177 C 
ATOM     43  C   LIG A   1      -8.567   4.953 132.553  0.00  0.00    +0.179 C 
ATOM     44  O   LIG A   1      -7.560   5.633 131.780  0.00  0.00    -0.331 OA
BRANCH  40  45
ATOM     45  O   LIG A   1      -9.908   6.685 130.121  0.00  0.00    -0.383 OA
ATOM     46  H   LIG A   1     -10.402   6.629 130.961  0.00  0.00    +0.210 HD
ENDBRANCH  40  45
BRANCH  41  47
ATOM     47  O   LIG A   1     -10.531   3.292 129.871  0.00  0.00    -0.386 OA
ATOM     48  H   LIG A   1     -10.363   2.429 130.283  0.00  0.00    +0.210 HD
ENDBRANCH  41  47
BRANCH  42  49
ATOM     49  O   LIG A   1      -9.877   2.862 132.624  0.00  0.00    -0.387 OA
ATOM     50  H   LIG A   1      -9.615   1.957 132.360  0.00  0.00    +0.210 HD
ENDBRANCH  42  49
BRANCH  43  51
ATOM     51  C   LIG A   1      -8.003   4.609 133.931  0.00  0.00    +0.190 C 
BRANCH  51  52
ATOM     52  O   LIG A   1      -9.074   4.332 134.838  0.00  0.00    -0.392 OA
ATOM     53  H   LIG A   1      -9.421   3.459 134.572  0.00  0.00    +0.209 HD
ENDBRANCH  51  52
ENDBRANCH  43  51
ENDBRANCH  38  39
ENDBRANCH  36  38
ENDBRANCH   5  36
TORSDOF 11
ENDMDL
MODEL 2
REMARK VINA RESULT:      -9.2      5.070      8.358
REMARK  Name = NuBBE_1173
REMARK  18 active torsions:
REMARK  status: ('A' for Active; 'I' for Inactive)
REMARK    1  A    between atoms: C_1  and  C_2
REMARK    2  A    between atoms: C_2  and  C_57
REMARK    3  A    between atoms: C_5  and  C_38
REMARK    4  A    between atoms: C_8  and  C_37
REMARK    5  A    between atoms: C_9  and  C_36
REMARK    6  A    between atoms: C_11  and  O_35
REMARK    7  A    between atoms: C_15  and  C_16
REMARK    8  A    between atoms: C_15  and  C_34
REMARK    9  A    between atoms: C_17  and  O_33
REMARK   10  A    between atoms: C_19  and  O_32
REMARK   11  A    between atoms: C_22  and  C_31
REMARK   12  A    between atoms: C_38  and  O_39
REMARK   13  A    between atoms: O_39  and  C_40
REMARK   14  A    between atoms: C_42  and  O_44
REMARK   15  A    between atoms: C_45  and  O_47
REMARK   16  A    between atoms: C_48  and  O_50
REMARK   17  A    between atoms: C_51  and  C_53
REMARK   18  A    between atoms: C_53  and  O_54
REMARK                            x       y       z     vdW  Elec       q    Type
REMARK                         _______ _______ _______ _____ _____    ______ ____
ROOT
ATOM      1  C   LIG A   1      -6.287  -2.334 122.504  0.00  0.00    +0.011 C 
ATOM      2  C   LIG A   1      -5.572  -2.900 123.747  0.00  0.00    -0.034 C 
ATOM      3  C   LIG A   1      -6.312  -4.152 124.245  0.00  0.00    +0.007 C 
ATOM      4  C   LIG A   1      -7.688  -3.828 124.833  0.00  0.00    +0.019 C 
ATOM      5  C   LIG A   1      -7.691  -2.682 125.894  0.00  0.00    +0.074 C 
ATOM      6  C   LIG A   1      -8.209  -3.276 127.219  0.00  0.00    +0.019 C 
ATOM      7  C   LIG A   1      -8.210  -2.311 128.399  0.00  0.00    +0.012 C 
ATOM      8  C   LIG A   1      -6.945  -1.401 128.614  0.00  0.00    -0.005 C 
ATOM      9  C   LIG A   1      -7.391   0.051 129.193  0.00  0.00    -0.017 C 
ATOM     10  C   LIG A   1      -8.341  -0.094 130.430  0.00  0.00    +0.039 C 
ATOM     11  C   LIG A   1      -7.986   0.621 131.729  0.00  0.00    +0.119 C 
ATOM     12  C   LIG A   1      -7.269   1.959 131.487  0.00  0.00    +0.032 C 
ATOM     13  C   LIG A   1      -7.307   2.957 132.725  0.00  0.00    -0.001 C 
ATOM     14  C   LIG A   1      -8.782   3.406 132.956  0.00  0.00    +0.014 C 
ATOM     15  C   LIG A   1      -6.494   4.241 132.393  0.00  0.00    +0.149 C 
ATOM     16  C   LIG A   1      -5.104   3.946 131.821  0.00  0.00    +0.144 C 
ATOM     17  C   LIG A   1      -5.208   3.115 130.550  0.00  0.00    +0.041 C 
ATOM     18  C   LIG A   1      -5.888   1.728 130.769  0.00  0.00    -0.020 C 
ATOM     19  C   LIG A   1      -6.186   1.086 129.346  0.00  0.00    +0.006 C 
ATOM     20  C   LIG A   1      -4.933   0.704 128.521  0.00  0.00    +0.031 C 
ATOM     21  C   LIG A   1      -5.193  -0.194 127.344  0.00  0.00    -0.026 C 
ATOM     22  C   LIG A   1      -6.104  -1.192 127.340  0.00  0.00    -0.063 C 
ATOM     23  C   LIG A   1      -6.235  -2.195 126.182  0.00  0.00    +0.033 C 
ATOM     24  C   LIG A   1      -5.483  -1.830 124.871  0.00  0.00    +0.015 C 
ATOM     25  C   LIG A   1      -4.879   0.857 131.550  0.00  0.00    +0.012 C 
ATOM     26  C   LIG A   1      -6.842   2.347 134.063  0.00  0.00    +0.014 C 
ATOM     27  C   LIG A   1      -8.285   0.741 128.086  0.00  0.00    +0.012 C 
ATOM     28  C   LIG A   1      -6.047  -2.174 129.624  0.00  0.00    +0.016 C 
ATOM     29  C   LIG A   1      -4.146  -3.292 123.304  0.00  0.00    +0.011 C 
ENDROOT
BRANCH  16  30
ATOM     30  O   LIG A   1      -4.477   5.196 131.499  0.00  0.00    -0.389 OA
ATOM     31  H   LIG A   1      -3.520   4.990 131.482  0.00  0.00    +0.210 HD
ENDBRANCH  16  30
BRANCH  15  32
ATOM     32  O   LIG A   1      -6.305   5.087 133.539  0.00  0.00    -0.389 OA
ATOM     33  H   LIG A   1      -7.161   5.498 133.748  0.00  0.00    +0.210 HD
ENDBRANCH  15  32
BRANCH  11  34
ATOM     34  O   LIG A   1      -7.229  -0.253 132.556  0.00  0.00    -0.392 OA
ATOM     35  H   LIG A   1      -6.476  -0.580 132.034  0.00  0.00    +0.210 HD
ENDBRANCH  11  34
BRANCH   5  36
ATOM     36  C   LIG A   1      -8.646  -1.537 125.407  0.00  0.00    +0.316 C 
ATOM     37  O   LIG A   1      -9.855  -1.561 125.469  0.00  0.00    -0.250 OA
BRANCH  36  38
ATOM     38  O   LIG A   1      -7.926  -0.474 124.885  0.00  0.00    -0.432 OA
BRANCH  38  39
ATOM     39  C   LIG A   1      -8.234  -0.107 123.512  0.00  0.00    +0.342 C 
ATOM     40  C   LIG A   1      -9.754   0.264 123.333  0.00  0.00    +0.214 C 
ATOM     41  C   LIG A   1     -10.125   1.649 123.925  0.00  0.00    +0.180 C 
ATOM     42  C   LIG A   1      -8.880   2.370 124.447  0.00  0.00    +0.177 C 
ATOM     43  C   LIG A   1      -7.876   2.298 123.294  0.00  0.00    +0.179 C 
ATOM     44  O   LIG A   1      -7.343   0.969 123.147  0.00  0.00    -0.331 OA
BRANCH  40  45
ATOM     45  O   LIG A   1     -10.066   0.289 121.923  0.00  0.00    -0.383 OA
ATOM     46  H   LIG A   1     -10.666  -0.455 121.728  0.00  0.00    +0.210 HD
ENDBRANCH  40  45
BRANCH  41  47
ATOM     47  O   LIG A   1     -11.128   1.590 124.946  0.00  0.00    -0.386 OA
ATOM     48  H   LIG A   1     -10.856   0.966 125.640  0.00  0.00    +0.210 HD
ENDBRANCH  41  47
BRANCH  42  49
ATOM     49  O   LIG A   1      -9.198   3.701 124.837  0.00  0.00    -0.387 OA
ATOM     50  H   LIG A   1      -8.812   3.817 125.728  0.00  0.00    +0.210 HD
ENDBRANCH  42  49
BRANCH  43  51
ATOM     51  C   LIG A   1      -6.725   3.295 123.425  0.00  0.00    +0.190 C 
BRANCH  51  52
ATOM     52  O   LIG A   1      -6.186   3.242 124.750  0.00  0.00    -0.392 OA
ATOM     53  H   LIG A   1      -5.541   2.509 124.739  0.00  0.00    +0.209 HD
ENDBRANCH  51  52
ENDBRANCH  43  51
ENDBRANCH  38  39
ENDBRANCH  36  38
ENDBRANCH   5  36
TORSDOF 11
ENDMDL
MODEL 3
REMARK VINA RESULT:      -9.2      5.016      8.433
REMARK  Name = NuBBE_1173
REMARK  18 active torsions:
REMARK  status: ('A' for Active; 'I' for Inactive)
REMARK    1  A    between atoms: C_1  and  C_2
REMARK    2  A    between atoms: C_2  and  C_57
REMARK    3  A    between atoms: C_5  and  C_38
REMARK    4  A    between atoms: C_8  and  C_37
REMARK    5  A    between atoms: C_9  and  C_36
REMARK    6  A    between atoms: C_11  and  O_35
REMARK    7  A    between atoms: C_15  and  C_16
REMARK    8  A    between atoms: C_15  and  C_34
REMARK    9  A    between atoms: C_17  and  O_33
REMARK   10  A    between atoms: C_19  and  O_32
REMARK   11  A    between atoms: C_22  and  C_31
REMARK   12  A    between atoms: C_38  and  O_39
REMARK   13  A    between atoms: O_39  and  C_40
REMARK   14  A    between atoms: C_42  and  O_44
REMARK   15  A    between atoms: C_45  and  O_47
REMARK   16  A    between atoms: C_48  and  O_50
REMARK   17  A    between atoms: C_51  and  C_53
REMARK   18  A    between atoms: C_53  and  O_54
REMARK                            x       y       z     vdW  Elec       q    Type
REMARK                         _______ _______ _______ _____ _____    ______ ____
ROOT
ATOM      1  C   LIG A   1      -9.014  -3.485 124.606  0.00  0.00    +0.011 C 
ATOM      2  C   LIG A   1      -8.264  -2.174 124.297  0.00  0.00    -0.034 C 
ATOM      3  C   LIG A   1      -6.751  -2.443 124.251  0.00  0.00    +0.007 C 
ATOM      4  C   LIG A   1      -6.171  -2.785 125.627  0.00  0.00    +0.019 C 
ATOM      5  C   LIG A   1      -6.557  -1.786 126.763  0.00  0.00    +0.074 C 
ATOM      6  C   LIG A   1      -5.251  -1.176 127.310  0.00  0.00    +0.019 C 
ATOM      7  C   LIG A   1      -5.439  -0.114 128.386  0.00  0.00    +0.012 C 
ATOM      8  C   LIG A   1      -6.554   0.975 128.167  0.00  0.00    -0.005 C 
ATOM      9  C   LIG A   1      -7.233   1.376 129.590  0.00  0.00    -0.017 C 
ATOM     10  C   LIG A   1      -6.146   1.724 130.663  0.00  0.00    +0.039 C 
ATOM     11  C   LIG A   1      -6.225   3.058 131.397  0.00  0.00    +0.119 C 
ATOM     12  C   LIG A   1      -7.674   3.523 131.617  0.00  0.00    +0.032 C 
ATOM     13  C   LIG A   1      -7.845   4.613 132.763  0.00  0.00    -0.001 C 
ATOM     14  C   LIG A   1      -7.494   3.954 134.132  0.00  0.00    +0.014 C 
ATOM     15  C   LIG A   1      -9.333   5.059 132.848  0.00  0.00    +0.149 C 
ATOM     16  C   LIG A   1      -9.933   5.427 131.489  0.00  0.00    +0.144 C 
ATOM     17  C   LIG A   1      -9.851   4.250 130.526  0.00  0.00    +0.041 C 
ATOM     18  C   LIG A   1      -8.390   3.782 130.240  0.00  0.00    -0.020 C 
ATOM     19  C   LIG A   1      -8.451   2.399 129.461  0.00  0.00    +0.006 C 
ATOM     20  C   LIG A   1      -9.050   2.473 128.035  0.00  0.00    +0.031 C 
ATOM     21  C   LIG A   1      -8.807   1.262 127.177  0.00  0.00    -0.026 C 
ATOM     22  C   LIG A   1      -7.665   0.541 127.191  0.00  0.00    -0.063 C 
ATOM     23  C   LIG A   1      -7.383  -0.591 126.190  0.00  0.00    +0.033 C 
ATOM     24  C   LIG A   1      -8.597  -1.083 125.353  0.00  0.00    +0.015 C 
ATOM     25  C   LIG A   1      -7.740   4.869 129.356  0.00  0.00    +0.012 C 
ATOM     26  C   LIG A   1      -6.915   5.836 132.638  0.00  0.00    +0.014 C 
ATOM     27  C   LIG A   1      -7.943   0.079 130.150  0.00  0.00    +0.012 C 
ATOM     28  C   LIG A   1      -5.827   2.185 127.513  0.00  0.00    +0.016 C 
ATOM     29  C   LIG A   1      -8.741  -1.700 122.908  0.00  0.00    +0.011 C 
ENDROOT
BRANCH  16  30
ATOM     30  O   LIG A   1     -11.315   5.761 131.683  0.00  0.00    -0.389 OA
ATOM     31  H   LIG A   1     -11.715   5.668 130.795  0.00  0.00    +0.210 HD
ENDBRANCH  16  30
BRANCH  15  32
ATOM     32  O   LIG A   1      -9.521   6.194 133.710  0.00  0.00    -0.389 OA
ATOM     33  H   LIG A   1      -9.764   6.952 133.153  0.00  0.00    +0.210 HD
ENDBRANCH  15  32
BRANCH  11  34
ATOM     34  O   LIG A   1      -5.450   4.025 130.700  0.00  0.00    -0.392 OA
ATOM     35  H   LIG A   1      -5.866   4.173 129.833  0.00  0.00    +0.210 HD
ENDBRANCH  11  34
BRANCH   5  36
ATOM     36  C   LIG A   1      -7.302  -2.570 127.900  0.00  0.00    +0.316 C 
ATOM     37  O   LIG A   1      -8.399  -3.075 127.798  0.00  0.00    -0.250 OA
BRANCH  36  38
ATOM     38  O   LIG A   1      -6.540  -2.619 129.056  0.00  0.00    -0.432 OA
BRANCH  38  39
ATOM     39  C   LIG A   1      -6.756  -3.774 129.913  0.00  0.00    +0.342 C 
ATOM     40  C   LIG A   1      -5.396  -4.428 130.367  0.00  0.00    +0.214 C 
ATOM     41  C   LIG A   1      -4.643  -3.603 131.443  0.00  0.00    +0.180 C 
ATOM     42  C   LIG A   1      -5.474  -2.396 131.885  0.00  0.00    +0.177 C 
ATOM     43  C   LIG A   1      -6.852  -2.972 132.218  0.00  0.00    +0.179 C 
ATOM     44  O   LIG A   1      -7.569  -3.336 131.023  0.00  0.00    -0.331 OA
BRANCH  40  45
ATOM     45  O   LIG A   1      -5.667  -5.733 130.921  0.00  0.00    -0.383 OA
ATOM     46  H   LIG A   1      -6.260  -5.625 131.688  0.00  0.00    +0.210 HD
ENDBRANCH  40  45
BRANCH  41  47
ATOM     47  O   LIG A   1      -3.335  -3.183 131.038  0.00  0.00    -0.386 OA
ATOM     48  H   LIG A   1      -2.773  -3.054 131.821  0.00  0.00    +0.210 HD
ENDBRANCH  41  47
BRANCH  42  49
ATOM     49  O   LIG A   1      -4.856  -1.738 132.985  0.00  0.00    -0.387 OA
ATOM     50  H   LIG A   1      -4.035  -1.340 132.632  0.00  0.00    +0.210 HD
ENDBRANCH  42  49
BRANCH  43  51
ATOM     51  C   LIG A   1      -7.716  -2.036 133.063  0.00  0.00    +0.190 C 
BRANCH  51  52
ATOM     52  O   LIG A   1      -7.422  -2.226 134.451  0.00  0.00    -0.392 OA
ATOM     53  H   LIG A   1      -6.955  -1.415 134.731  0.00  0.00    +0.209 HD
ENDBRANCH  51  52
ENDBRANCH  43  51
ENDBRANCH  38  39
ENDBRANCH  36  38
ENDBRANCH   5  36
TORSDOF 11
ENDMDL
MODEL 4
REMARK VINA RESULT:      -9.1      5.235     10.869
REMARK  Name = NuBBE_1173
REMARK  18 active torsions:
REMARK  status: ('A' for Active; 'I' for Inactive)
REMARK    1  A    between atoms: C_1  and  C_2
REMARK    2  A    between atoms: C_2  and  C_57
REMARK    3  A    between atoms: C_5  and  C_38
REMARK    4  A    between atoms: C_8  and  C_37
REMARK    5  A    between atoms: C_9  and  C_36
REMARK    6  A    between atoms: C_11  and  O_35
REMARK    7  A    between atoms: C_15  and  C_16
REMARK    8  A    between atoms: C_15  and  C_34
REMARK    9  A    between atoms: C_17  and  O_33
REMARK   10  A    between atoms: C_19  and  O_32
REMARK   11  A    between atoms: C_22  and  C_31
REMARK   12  A    between atoms: C_38  and  O_39
REMARK   13  A    between atoms: O_39  and  C_40
REMARK   14  A    between atoms: C_42  and  O_44
REMARK   15  A    between atoms: C_45  and  O_47
REMARK   16  A    between atoms: C_48  and  O_50
REMARK   17  A    between atoms: C_51  and  C_53
REMARK   18  A    between atoms: C_53  and  O_54
REMARK                            x       y       z     vdW  Elec       q    Type
REMARK                         _______ _______ _______ _____ _____    ______ ____
ROOT
ATOM      1  C   LIG A   1      -7.902  -3.086 135.361  0.00  0.00    +0.011 C 
ATOM      2  C   LIG A   1      -6.744  -3.522 134.441  0.00  0.00    -0.034 C 
ATOM      3  C   LIG A   1      -5.501  -2.667 134.734  0.00  0.00    +0.007 C 
ATOM      4  C   LIG A   1      -5.674  -1.208 134.300  0.00  0.00    +0.019 C 
ATOM      5  C   LIG A   1      -6.188  -1.020 132.837  0.00  0.00    +0.074 C 
ATOM      6  C   LIG A   1      -5.112  -0.230 132.065  0.00  0.00    +0.019 C 
ATOM      7  C   LIG A   1      -5.411  -0.014 130.586  0.00  0.00    +0.012 C 
ATOM      8  C   LIG A   1      -5.962  -1.232 129.756  0.00  0.00    -0.005 C 
ATOM      9  C   LIG A   1      -7.020  -0.713 128.635  0.00  0.00    -0.017 C 
ATOM     10  C   LIG A   1      -6.430   0.470 127.796  0.00  0.00    +0.039 C 
ATOM     11  C   LIG A   1      -6.413   0.368 126.274  0.00  0.00    +0.119 C 
ATOM     12  C   LIG A   1      -7.616  -0.416 125.724  0.00  0.00    +0.032 C 
ATOM     13  C   LIG A   1      -7.921  -0.153 124.186  0.00  0.00    -0.001 C 
ATOM     14  C   LIG A   1      -8.381   1.327 124.016  0.00  0.00    +0.014 C 
ATOM     15  C   LIG A   1      -9.107  -1.047 123.723  0.00  0.00    +0.149 C 
ATOM     16  C   LIG A   1      -8.951  -2.516 124.126  0.00  0.00    +0.144 C 
ATOM     17  C   LIG A   1      -8.824  -2.651 125.637  0.00  0.00    +0.041 C 
ATOM     18  C   LIG A   1      -7.584  -1.908 126.225  0.00  0.00    -0.020 C 
ATOM     19  C   LIG A   1      -7.717  -1.887 127.808  0.00  0.00    +0.006 C 
ATOM     20  C   LIG A   1      -7.617  -3.271 128.495  0.00  0.00    +0.031 C 
ATOM     21  C   LIG A   1      -7.406  -3.233 129.983  0.00  0.00    -0.026 C 
ATOM     22  C   LIG A   1      -6.638  -2.317 130.614  0.00  0.00    -0.063 C 
ATOM     23  C   LIG A   1      -6.311  -2.399 132.115  0.00  0.00    +0.033 C 
ATOM     24  C   LIG A   1      -7.152  -3.408 132.945  0.00  0.00    +0.015 C 
ATOM     25  C   LIG A   1      -6.338  -2.716 125.800  0.00  0.00    +0.012 C 
ATOM     26  C   LIG A   1      -6.710  -0.323 123.247  0.00  0.00    +0.014 C 
ATOM     27  C   LIG A   1      -8.245  -0.078 129.409  0.00  0.00    +0.012 C 
ATOM     28  C   LIG A   1      -4.709  -1.888 129.105  0.00  0.00    +0.016 C 
ATOM     29  C   LIG A   1      -6.439  -4.998 134.774  0.00  0.00    +0.011 C 
ENDROOT
BRANCH  16  30
ATOM     30  O   LIG A   1     -10.123  -3.226 123.702  0.00  0.00    -0.389 OA
ATOM     31  H   LIG A   1     -10.864  -2.749 124.129  0.00  0.00    +0.210 HD
ENDBRANCH  16  30
BRANCH  15  32
ATOM     32  O   LIG A   1      -9.296  -1.021 122.299  0.00  0.00    -0.389 OA
ATOM     33  H   LIG A   1      -8.631  -0.421 121.922  0.00  0.00    +0.210 HD
ENDBRANCH  15  32
BRANCH  11  34
ATOM     34  O   LIG A   1      -5.173  -0.186 125.854  0.00  0.00    -0.392 OA
ATOM     35  H   LIG A   1      -5.288  -1.148 125.772  0.00  0.00    +0.210 HD
ENDBRANCH  11  34
BRANCH   5  36
ATOM     36  C   LIG A   1      -7.531  -0.211 132.869  0.00  0.00    +0.316 C 
ATOM     37  O   LIG A   1      -8.630  -0.670 132.643  0.00  0.00    -0.250 OA
BRANCH  36  38
ATOM     38  O   LIG A   1      -7.308   1.118 133.192  0.00  0.00    -0.432 OA
BRANCH  38  39
ATOM     39  C   LIG A   1      -8.386   2.041 132.877  0.00  0.00    +0.342 C 
ATOM     40  C   LIG A   1      -8.448   3.239 133.899  0.00  0.00    +0.214 C 
ATOM     41  C   LIG A   1      -7.319   4.282 133.696  0.00  0.00    +0.180 C 
ATOM     42  C   LIG A   1      -6.476   3.942 132.465  0.00  0.00    +0.177 C 
ATOM     43  C   LIG A   1      -7.495   3.721 131.345  0.00  0.00    +0.179 C 
ATOM     44  O   LIG A   1      -8.194   2.473 131.513  0.00  0.00    -0.331 OA
BRANCH  40  45
ATOM     45  O   LIG A   1      -9.712   3.920 133.744  0.00  0.00    -0.383 OA
ATOM     46  H   LIG A   1      -9.623   4.820 134.110  0.00  0.00    +0.210 HD
ENDBRANCH  40  45
BRANCH  41  47
ATOM     47  O   LIG A   1      -6.476   4.451 134.843  0.00  0.00    -0.386 OA
ATOM     48  H   LIG A   1      -7.009   4.403 135.654  0.00  0.00    +0.210 HD
ENDBRANCH  41  47
BRANCH  42  49
ATOM     49  O   LIG A   1      -5.549   4.984 132.188  0.00  0.00    -0.387 OA
ATOM     50  H   LIG A   1      -4.759   4.547 131.814  0.00  0.00    +0.210 HD
ENDBRANCH  42  49
BRANCH  43  51
ATOM     51  C   LIG A   1      -6.883   3.774 129.945  0.00  0.00    +0.190 C 
BRANCH  51  52
ATOM     52  O   LIG A   1      -6.778   5.135 129.513  0.00  0.00    -0.392 OA
ATOM     53  H   LIG A   1      -6.349   5.609 130.251  0.00  0.00    +0.209 HD
ENDBRANCH  51  52
ENDBRANCH  43  51
ENDBRANCH  38  39
ENDBRANCH  36  38
ENDBRANCH   5  36
TORSDOF 11
ENDMDL
MODEL 5
REMARK VINA RESULT:      -9.0      3.963      9.697
REMARK  Name = NuBBE_1173
REMARK  18 active torsions:
REMARK  status: ('A' for Active; 'I' for Inactive)
REMARK    1  A    between atoms: C_1  and  C_2
REMARK    2  A    between atoms: C_2  and  C_57
REMARK    3  A    between atoms: C_5  and  C_38
REMARK    4  A    between atoms: C_8  and  C_37
REMARK    5  A    between atoms: C_9  and  C_36
REMARK    6  A    between atoms: C_11  and  O_35
REMARK    7  A    between atoms: C_15  and  C_16
REMARK    8  A    between atoms: C_15  and  C_34
REMARK    9  A    between atoms: C_17  and  O_33
REMARK   10  A    between atoms: C_19  and  O_32
REMARK   11  A    between atoms: C_22  and  C_31
REMARK   12  A    between atoms: C_38  and  O_39
REMARK   13  A    between atoms: O_39  and  C_40
REMARK   14  A    between atoms: C_42  and  O_44
REMARK   15  A    between atoms: C_45  and  O_47
REMARK   16  A    between atoms: C_48  and  O_50
REMARK   17  A    between atoms: C_51  and  C_53
REMARK   18  A    between atoms: C_53  and  O_54
REMARK                            x       y       z     vdW  Elec       q    Type
REMARK                         _______ _______ _______ _____ _____    ______ ____
ROOT
ATOM      1  C   LIG A   1      -2.130   6.172 130.518  0.00  0.00    +0.011 C 
ATOM      2  C   LIG A   1      -2.928   6.431 129.224  0.00  0.00    -0.034 C 
ATOM      3  C   LIG A   1      -4.194   7.238 129.551  0.00  0.00    +0.007 C 
ATOM      4  C   LIG A   1      -5.216   6.432 130.357  0.00  0.00    +0.019 C 
ATOM      5  C   LIG A   1      -5.551   5.026 129.766  0.00  0.00    +0.074 C 
ATOM      6  C   LIG A   1      -7.059   5.003 129.446  0.00  0.00    +0.019 C 
ATOM      7  C   LIG A   1      -7.556   3.723 128.786  0.00  0.00    +0.012 C 
ATOM      8  C   LIG A   1      -6.695   3.105 127.623  0.00  0.00    -0.005 C 
ATOM      9  C   LIG A   1      -6.771   1.481 127.671  0.00  0.00    -0.017 C 
ATOM     10  C   LIG A   1      -8.252   0.981 127.758  0.00  0.00    +0.039 C 
ATOM     11  C   LIG A   1      -8.757  -0.032 126.736  0.00  0.00    +0.119 C 
ATOM     12  C   LIG A   1      -7.660  -1.010 126.285  0.00  0.00    +0.032 C 
ATOM     13  C   LIG A   1      -8.207  -2.348 125.623  0.00  0.00    -0.001 C 
ATOM     14  C   LIG A   1      -8.959  -3.171 126.713  0.00  0.00    +0.014 C 
ATOM     15  C   LIG A   1      -7.015  -3.225 125.144  0.00  0.00    +0.149 C 
ATOM     16  C   LIG A   1      -5.987  -2.449 124.316  0.00  0.00    +0.144 C 
ATOM     17  C   LIG A   1      -5.420  -1.283 125.115  0.00  0.00    +0.041 C 
ATOM     18  C   LIG A   1      -6.500  -0.243 125.548  0.00  0.00    -0.020 C 
ATOM     19  C   LIG A   1      -5.843   0.756 126.594  0.00  0.00    +0.006 C 
ATOM     20  C   LIG A   1      -4.730   1.668 126.022  0.00  0.00    +0.031 C 
ATOM     21  C   LIG A   1      -4.342   2.828 126.896  0.00  0.00    -0.026 C 
ATOM     22  C   LIG A   1      -5.215   3.535 127.647  0.00  0.00    -0.063 C 
ATOM     23  C   LIG A   1      -4.818   4.814 128.403  0.00  0.00    +0.033 C 
ATOM     24  C   LIG A   1      -3.294   5.093 128.522  0.00  0.00    +0.015 C 
ATOM     25  C   LIG A   1      -6.923   0.516 124.271  0.00  0.00    +0.012 C 
ATOM     26  C   LIG A   1      -9.224  -2.139 124.483  0.00  0.00    +0.014 C 
ATOM     27  C   LIG A   1      -6.117   1.024 129.036  0.00  0.00    +0.012 C 
ATOM     28  C   LIG A   1      -7.307   3.673 126.309  0.00  0.00    +0.016 C 
ATOM     29  C   LIG A   1      -2.017   7.261 128.294  0.00  0.00    +0.011 C 
ENDROOT
BRANCH  16  30
ATOM     30  O   LIG A   1      -4.912  -3.339 123.984  0.00  0.00    -0.389 OA
ATOM     31  H   LIG A   1      -4.268  -3.225 124.712  0.00  0.00    +0.210 HD
ENDBRANCH  16  30
BRANCH  15  32
ATOM     32  O   LIG A   1      -7.437  -4.343 124.345  0.00  0.00    -0.389 OA
ATOM     33  H   LIG A   1      -7.098  -5.152 124.765  0.00  0.00    +0.210 HD
ENDBRANCH  15  32
BRANCH  11  34
ATOM     34  O   LIG A   1      -9.345   0.659 125.641  0.00  0.00    -0.392 OA
ATOM     35  H   LIG A   1      -9.601  -0.001 124.974  0.00  0.00    +0.210 HD
ENDBRANCH  11  34
BRANCH   5  36
ATOM     36  C   LIG A   1      -5.210   3.929 130.834  0.00  0.00    +0.316 C 
ATOM     37  O   LIG A   1      -4.266   3.171 130.783  0.00  0.00    -0.250 OA
BRANCH  36  38
ATOM     38  O   LIG A   1      -6.136   3.931 131.866  0.00  0.00    -0.432 OA
BRANCH  38  39
ATOM     39  C   LIG A   1      -6.340   2.659 132.541  0.00  0.00    +0.342 C 
ATOM     40  C   LIG A   1      -6.410   2.833 134.106  0.00  0.00    +0.214 C 
ATOM     41  C   LIG A   1      -7.741   3.458 134.598  0.00  0.00    +0.180 C 
ATOM     42  C   LIG A   1      -8.715   3.654 133.434  0.00  0.00    +0.177 C 
ATOM     43  C   LIG A   1      -8.748   2.300 132.722  0.00  0.00    +0.179 C 
ATOM     44  O   LIG A   1      -7.533   2.067 131.985  0.00  0.00    -0.331 OA
BRANCH  40  45
ATOM     45  O   LIG A   1      -6.276   1.536 134.726  0.00  0.00    -0.383 OA
ATOM     46  H   LIG A   1      -6.538   0.856 134.077  0.00  0.00    +0.210 HD
ENDBRANCH  40  45
BRANCH  41  47
ATOM     47  O   LIG A   1      -7.571   4.689 135.313  0.00  0.00    -0.386 OA
ATOM     48  H   LIG A   1      -8.439   5.043 135.569  0.00  0.00    +0.210 HD
ENDBRANCH  41  47
BRANCH  42  49
ATOM     49  O   LIG A   1      -9.989   4.072 133.910  0.00  0.00    -0.387 OA
ATOM     50  H   LIG A   1     -10.351   4.663 133.221  0.00  0.00    +0.210 HD
ENDBRANCH  42  49
BRANCH  43  51
ATOM     51  C   LIG A   1      -9.948   2.130 131.789  0.00  0.00    +0.190 C 
BRANCH  51  52
ATOM     52  O   LIG A   1     -10.361   3.408 131.294  0.00  0.00    -0.392 OA
ATOM     53  H   LIG A   1      -9.571   3.979 131.357  0.00  0.00    +0.209 HD
ENDBRANCH  51  52
ENDBRANCH  43  51
ENDBRANCH  38  39
ENDBRANCH  36  38
ENDBRANCH   5  36
TORSDOF 11
ENDMDL
MODEL 6
REMARK VINA RESULT:      -8.9      6.062      9.398
REMARK  Name = NuBBE_1173
REMARK  18 active torsions:
REMARK  status: ('A' for Active; 'I' for Inactive)
REMARK    1  A    between atoms: C_1  and  C_2
REMARK    2  A    between atoms: C_2  and  C_57
REMARK    3  A    between atoms: C_5  and  C_38
REMARK    4  A    between atoms: C_8  and  C_37
REMARK    5  A    between atoms: C_9  and  C_36
REMARK    6  A    between atoms: C_11  and  O_35
REMARK    7  A    between atoms: C_15  and  C_16
REMARK    8  A    between atoms: C_15  and  C_34
REMARK    9  A    between atoms: C_17  and  O_33
REMARK   10  A    between atoms: C_19  and  O_32
REMARK   11  A    between atoms: C_22  and  C_31
REMARK   12  A    between atoms: C_38  and  O_39
REMARK   13  A    between atoms: O_39  and  C_40
REMARK   14  A    between atoms: C_42  and  O_44
REMARK   15  A    between atoms: C_45  and  O_47
REMARK   16  A    between atoms: C_48  and  O_50
REMARK   17  A    between atoms: C_51  and  C_53
REMARK   18  A    between atoms: C_53  and  O_54
REMARK                            x       y       z     vdW  Elec       q    Type
REMARK                         _______ _______ _______ _____ _____    ______ ____
ROOT
ATOM      1  C   LIG A   1      -7.505  -1.817 124.103  0.00  0.00    +0.011 C 
ATOM      2  C   LIG A   1      -8.417  -2.130 125.306  0.00  0.00    -0.034 C 
ATOM      3  C   LIG A   1      -9.245  -0.886 125.665  0.00  0.00    +0.007 C 
ATOM      4  C   LIG A   1      -8.389   0.244 126.245  0.00  0.00    +0.019 C 
ATOM      5  C   LIG A   1      -7.440  -0.187 127.407  0.00  0.00    +0.074 C 
ATOM      6  C   LIG A   1      -7.837   0.624 128.657  0.00  0.00    +0.019 C 
ATOM      7  C   LIG A   1      -7.058   0.279 129.921  0.00  0.00    +0.012 C 
ATOM      8  C   LIG A   1      -6.819  -1.240 130.253  0.00  0.00    -0.005 C 
ATOM      9  C   LIG A   1      -5.364  -1.438 130.953  0.00  0.00    -0.017 C 
ATOM     10  C   LIG A   1      -5.163  -0.443 132.145  0.00  0.00    +0.039 C 
ATOM     11  C   LIG A   1      -4.773  -0.990 133.514  0.00  0.00    +0.119 C 
ATOM     12  C   LIG A   1      -3.876  -2.235 133.416  0.00  0.00    +0.032 C 
ATOM     13  C   LIG A   1      -3.056  -2.558 134.740  0.00  0.00    -0.001 C 
ATOM     14  C   LIG A   1      -2.019  -1.416 134.972  0.00  0.00    +0.014 C 
ATOM     15  C   LIG A   1      -2.243  -3.870 134.550  0.00  0.00    +0.149 C 
ATOM     16  C   LIG A   1      -3.079  -5.024 133.990  0.00  0.00    +0.144 C 
ATOM     17  C   LIG A   1      -3.686  -4.649 132.645  0.00  0.00    +0.041 C 
ATOM     18  C   LIG A   1      -4.642  -3.419 132.716  0.00  0.00    -0.020 C 
ATOM     19  C   LIG A   1      -4.981  -2.962 131.232  0.00  0.00    +0.006 C 
ATOM     20  C   LIG A   1      -5.818  -3.972 130.409  0.00  0.00    +0.031 C 
ATOM     21  C   LIG A   1      -6.422  -3.422 129.147  0.00  0.00    -0.026 C 
ATOM     22  C   LIG A   1      -6.911  -2.168 129.026  0.00  0.00    -0.063 C 
ATOM     23  C   LIG A   1      -7.668  -1.687 127.777  0.00  0.00    +0.033 C 
ATOM     24  C   LIG A   1      -7.579  -2.605 126.526  0.00  0.00    +0.015 C 
ATOM     25  C   LIG A   1      -5.922  -3.891 133.440  0.00  0.00    +0.012 C 
ATOM     26  C   LIG A   1      -3.902  -2.621 136.027  0.00  0.00    +0.014 C 
ATOM     27  C   LIG A   1      -4.273  -1.010 129.890  0.00  0.00    +0.012 C 
ATOM     28  C   LIG A   1      -7.979  -1.641 131.210  0.00  0.00    +0.016 C 
ATOM     29  C   LIG A   1      -9.365  -3.266 124.867  0.00  0.00    +0.011 C 
ENDROOT
BRANCH  16  30
ATOM     30  O   LIG A   1      -2.216  -6.155 133.803  0.00  0.00    -0.389 OA
ATOM     31  H   LIG A   1      -2.799  -6.846 133.427  0.00  0.00    +0.210 HD
ENDBRANCH  16  30
BRANCH  15  32
ATOM     32  O   LIG A   1      -1.652  -4.336 135.774  0.00  0.00    -0.389 OA
ATOM     33  H   LIG A   1      -0.757  -4.654 135.569  0.00  0.00    +0.210 HD
ENDBRANCH  15  32
BRANCH  11  34
ATOM     34  O   LIG A   1      -5.949  -1.233 134.275  0.00  0.00    -0.392 OA
ATOM     35  H   LIG A   1      -6.561  -0.492 134.124  0.00  0.00    +0.210 HD
ENDBRANCH  11  34
BRANCH   5  36
ATOM     36  C   LIG A   1      -5.959   0.137 127.003  0.00  0.00    +0.316 C 
ATOM     37  O   LIG A   1      -5.144  -0.675 126.623  0.00  0.00    -0.250 OA
BRANCH  36  38
ATOM     38  O   LIG A   1      -5.689   1.490 127.134  0.00  0.00    -0.432 OA
BRANCH  38  39
ATOM     39  C   LIG A   1      -5.079   2.133 125.981  0.00  0.00    +0.342 C 
ATOM     40  C   LIG A   1      -5.993   3.275 125.396  0.00  0.00    +0.214 C 
ATOM     41  C   LIG A   1      -6.011   4.558 126.268  0.00  0.00    +0.180 C 
ATOM     42  C   LIG A   1      -5.036   4.434 127.440  0.00  0.00    +0.177 C 
ATOM     43  C   LIG A   1      -3.718   3.985 126.805  0.00  0.00    +0.179 C 
ATOM     44  O   LIG A   1      -3.779   2.606 126.394  0.00  0.00    -0.331 OA
BRANCH  40  45
ATOM     45  O   LIG A   1      -5.507   3.639 124.086  0.00  0.00    -0.383 OA
ATOM     46  H   LIG A   1      -6.252   3.998 123.570  0.00  0.00    +0.210 HD
ENDBRANCH  40  45
BRANCH  41  47
ATOM     47  O   LIG A   1      -7.315   4.914 126.744  0.00  0.00    -0.386 OA
ATOM     48  H   LIG A   1      -7.859   4.115 126.843  0.00  0.00    +0.210 HD
ENDBRANCH  41  47
BRANCH  42  49
ATOM     49  O   LIG A   1      -4.933   5.669 128.140  0.00  0.00    -0.387 OA
ATOM     50  H   LIG A   1      -4.360   5.492 128.913  0.00  0.00    +0.210 HD
ENDBRANCH  42  49
BRANCH  43  51
ATOM     51  C   LIG A   1      -2.503   4.191 127.710  0.00  0.00    +0.190 C 
BRANCH  51  52
ATOM     52  O   LIG A   1      -2.208   5.587 127.815  0.00  0.00    -0.392 OA
ATOM     53  H   LIG A   1      -1.364   5.711 127.339  0.00  0.00    +0.209 HD
ENDBRANCH  51  52
ENDBRANCH  43  51
ENDBRANCH  38  39
ENDBRANCH  36  38
ENDBRANCH   5  36
TORSDOF 11
ENDMDL
MODEL 7
REMARK VINA RESULT:      -8.8      7.242      9.179
REMARK  Name = NuBBE_1173
REMARK  18 active torsions:
REMARK  status: ('A' for Active; 'I' for Inactive)
REMARK    1  A    between atoms: C_1  and  C_2
REMARK    2  A    between atoms: C_2  and  C_57
REMARK    3  A    between atoms: C_5  and  C_38
REMARK    4  A    between atoms: C_8  and  C_37
REMARK    5  A    between atoms: C_9  and  C_36
REMARK    6  A    between atoms: C_11  and  O_35
REMARK    7  A    between atoms: C_15  and  C_16
REMARK    8  A    between atoms: C_15  and  C_34
REMARK    9  A    between atoms: C_17  and  O_33
REMARK   10  A    between atoms: C_19  and  O_32
REMARK   11  A    between atoms: C_22  and  C_31
REMARK   12  A    between atoms: C_38  and  O_39
REMARK   13  A    between atoms: O_39  and  C_40
REMARK   14  A    between atoms: C_42  and  O_44
REMARK   15  A    between atoms: C_45  and  O_47
REMARK   16  A    between atoms: C_48  and  O_50
REMARK   17  A    between atoms: C_51  and  C_53
REMARK   18  A    between atoms: C_53  and  O_54
REMARK                            x       y       z     vdW  Elec       q    Type
REMARK                         _______ _______ _______ _____ _____    ______ ____
ROOT
ATOM      1  C   LIG A   1      -6.351  -1.392 123.704  0.00  0.00    +0.011 C 
ATOM      2  C   LIG A   1      -6.092  -2.714 124.455  0.00  0.00    -0.034 C 
ATOM      3  C   LIG A   1      -7.407  -3.498 124.589  0.00  0.00    +0.007 C 
ATOM      4  C   LIG A   1      -8.402  -2.824 125.538  0.00  0.00    +0.019 C 
ATOM      5  C   LIG A   1      -7.810  -2.425 126.927  0.00  0.00    +0.074 C 
ATOM      6  C   LIG A   1      -8.604  -3.187 128.007  0.00  0.00    +0.019 C 
ATOM      7  C   LIG A   1      -8.113  -2.975 129.434  0.00  0.00    +0.012 C 
ATOM      8  C   LIG A   1      -6.563  -3.018 129.699  0.00  0.00    -0.005 C 
ATOM      9  C   LIG A   1      -6.164  -1.958 130.867  0.00  0.00    -0.017 C 
ATOM     10  C   LIG A   1      -7.074  -2.130 132.130  0.00  0.00    +0.039 C 
ATOM     11  C   LIG A   1      -6.423  -2.335 133.493  0.00  0.00    +0.119 C 
ATOM     12  C   LIG A   1      -5.088  -1.585 133.626  0.00  0.00    +0.032 C 
ATOM     13  C   LIG A   1      -4.611  -1.356 135.126  0.00  0.00    -0.001 C 
ATOM     14  C   LIG A   1      -5.612  -0.383 135.822  0.00  0.00    +0.014 C 
ATOM     15  C   LIG A   1      -3.223  -0.655 135.137  0.00  0.00    +0.149 C 
ATOM     16  C   LIG A   1      -2.201  -1.321 134.212  0.00  0.00    +0.144 C 
ATOM     17  C   LIG A   1      -2.705  -1.340 132.776  0.00  0.00    +0.041 C 
ATOM     18  C   LIG A   1      -4.035  -2.136 132.594  0.00  0.00    -0.020 C 
ATOM     19  C   LIG A   1      -4.595  -1.850 131.135  0.00  0.00    +0.006 C 
ATOM     20  C   LIG A   1      -3.729  -2.404 129.978  0.00  0.00    +0.031 C 
ATOM     21  C   LIG A   1      -4.402  -2.436 128.635  0.00  0.00    -0.026 C 
ATOM     22  C   LIG A   1      -5.709  -2.728 128.450  0.00  0.00    -0.063 C 
ATOM     23  C   LIG A   1      -6.332  -2.912 127.056  0.00  0.00    +0.033 C 
ATOM     24  C   LIG A   1      -5.467  -2.443 125.853  0.00  0.00    +0.015 C 
ATOM     25  C   LIG A   1      -3.683  -3.632 132.751  0.00  0.00    +0.012 C 
ATOM     26  C   LIG A   1      -4.589  -2.625 136.000  0.00  0.00    +0.014 C 
ATOM     27  C   LIG A   1      -6.510  -0.513 130.322  0.00  0.00    +0.012 C 
ATOM     28  C   LIG A   1      -6.257  -4.485 130.123  0.00  0.00    +0.016 C 
ATOM     29  C   LIG A   1      -5.096  -3.527 123.601  0.00  0.00    +0.011 C 
ENDROOT
BRANCH  16  30
ATOM     30  O   LIG A   1      -0.987  -0.558 134.259  0.00  0.00    -0.389 OA
ATOM     31  H   LIG A   1      -0.326  -1.176 134.633  0.00  0.00    +0.210 HD
ENDBRANCH  16  30
BRANCH  15  32
ATOM     32  O   LIG A   1      -2.636  -0.612 136.448  0.00  0.00    -0.389 OA
ATOM     33  H   LIG A   1      -2.890  -1.427 136.914  0.00  0.00    +0.210 HD
ENDBRANCH  15  32
BRANCH  11  34
ATOM     34  O   LIG A   1      -6.285  -3.728 133.744  0.00  0.00    -0.392 OA
ATOM     35  H   LIG A   1      -6.071  -3.842 134.686  0.00  0.00    +0.210 HD
ENDBRANCH  11  34
BRANCH   5  36
ATOM     36  C   LIG A   1      -7.976  -0.878 127.127  0.00  0.00    +0.316 C 
ATOM     37  O   LIG A   1      -7.839  -0.289 128.176  0.00  0.00    -0.250 OA
BRANCH  36  38
ATOM     38  O   LIG A   1      -8.305  -0.252 125.934  0.00  0.00    -0.432 OA
BRANCH  38  39
ATOM     39  C   LIG A   1      -8.938   1.052 126.052  0.00  0.00    +0.342 C 
ATOM     40  C   LIG A   1      -7.878   2.201 126.245  0.00  0.00    +0.214 C 
ATOM     41  C   LIG A   1      -7.102   2.548 124.948  0.00  0.00    +0.180 C 
ATOM     42  C   LIG A   1      -7.643   1.752 123.758  0.00  0.00    +0.177 C 
ATOM     43  C   LIG A   1      -9.157   1.970 123.800  0.00  0.00    +0.179 C 
ATOM     44  O   LIG A   1      -9.762   1.234 124.880  0.00  0.00    -0.331 OA
BRANCH  40  45
ATOM     45  O   LIG A   1      -8.559   3.396 126.684  0.00  0.00    -0.383 OA
ATOM     46  H   LIG A   1      -8.188   3.662 127.546  0.00  0.00    +0.210 HD
ENDBRANCH  40  45
BRANCH  41  47
ATOM     47  O   LIG A   1      -5.684   2.371 125.058  0.00  0.00    -0.386 OA
ATOM     48  H   LIG A   1      -5.412   1.579 124.566  0.00  0.00    +0.210 HD
ENDBRANCH  41  47
BRANCH  42  49
ATOM     49  O   LIG A   1      -7.042   2.191 122.545  0.00  0.00    -0.387 OA
ATOM     50  H   LIG A   1      -6.133   2.462 122.780  0.00  0.00    +0.210 HD
ENDBRANCH  42  49
BRANCH  43  51
ATOM     51  C   LIG A   1      -9.861   1.616 122.489  0.00  0.00    +0.190 C 
BRANCH  51  52
ATOM     52  O   LIG A   1     -10.674   0.454 122.674  0.00  0.00    -0.392 OA
ATOM     53  H   LIG A   1     -11.596   0.768 122.599  0.00  0.00    +0.209 HD
ENDBRANCH  51  52
ENDBRANCH  43  51
ENDBRANCH  38  39
ENDBRANCH  36  38
ENDBRANCH   5  36
TORSDOF 11
ENDMDL
MODEL 8
REMARK VINA RESULT:      -8.7      5.667      8.314
REMARK  Name = NuBBE_1173
REMARK  18 active torsions:
REMARK  status: ('A' for Active; 'I' for Inactive)
REMARK    1  A    between atoms: C_1  and  C_2
REMARK    2  A    between atoms: C_2  and  C_57
REMARK    3  A    between atoms: C_5  and  C_38
REMARK    4  A    between atoms: C_8  and  C_37
REMARK    5  A    between atoms: C_9  and  C_36
REMARK    6  A    between atoms: C_11  and  O_35
REMARK    7  A    between atoms: C_15  and  C_16
REMARK    8  A    between atoms: C_15  and  C_34
REMARK    9  A    between atoms: C_17  and  O_33
REMARK   10  A    between atoms: C_19  and  O_32
REMARK   11  A    between atoms: C_22  and  C_31
REMARK   12  A    between atoms: C_38  and  O_39
REMARK   13  A    between atoms: O_39  and  C_40
REMARK   14  A    between atoms: C_42  and  O_44
REMARK   15  A    between atoms: C_45  and  O_47
REMARK   16  A    between atoms: C_48  and  O_50
REMARK   17  A    between atoms: C_51  and  C_53
REMARK   18  A    between atoms: C_53  and  O_54
REMARK                            x       y       z     vdW  Elec       q    Type
REMARK                         _______ _______ _______ _____ _____    ______ ____
ROOT
ATOM      1  C   LIG A   1      -4.867  -2.327 123.302  0.00  0.00    +0.011 C 
ATOM      2  C   LIG A   1      -5.522  -3.274 124.326  0.00  0.00    -0.034 C 
ATOM      3  C   LIG A   1      -7.052  -3.167 124.225  0.00  0.00    +0.007 C 
ATOM      4  C   LIG A   1      -7.581  -1.814 124.711  0.00  0.00    +0.019 C 
ATOM      5  C   LIG A   1      -7.051  -1.371 126.111  0.00  0.00    +0.074 C 
ATOM      6  C   LIG A   1      -8.271  -1.221 127.043  0.00  0.00    +0.019 C 
ATOM      7  C   LIG A   1      -7.935  -0.862 128.486  0.00  0.00    +0.012 C 
ATOM      8  C   LIG A   1      -6.748  -1.623 129.183  0.00  0.00    -0.005 C 
ATOM      9  C   LIG A   1      -5.961  -0.625 130.198  0.00  0.00    -0.017 C 
ATOM     10  C   LIG A   1      -6.954   0.111 131.160  0.00  0.00    +0.039 C 
ATOM     11  C   LIG A   1      -6.724   0.036 132.665  0.00  0.00    +0.119 C 
ATOM     12  C   LIG A   1      -5.232  -0.025 133.030  0.00  0.00    +0.032 C 
ATOM     13  C   LIG A   1      -4.908   0.378 134.534  0.00  0.00    -0.001 C 
ATOM     14  C   LIG A   1      -5.236   1.890 134.724  0.00  0.00    +0.014 C 
ATOM     15  C   LIG A   1      -3.386   0.211 134.808  0.00  0.00    +0.149 C 
ATOM     16  C   LIG A   1      -2.833  -1.141 134.352  0.00  0.00    +0.144 C 
ATOM     17  C   LIG A   1      -3.066  -1.344 132.861  0.00  0.00    +0.041 C 
ATOM     18  C   LIG A   1      -4.574  -1.337 132.461  0.00  0.00    -0.020 C 
ATOM     19  C   LIG A   1      -4.671  -1.275 130.876  0.00  0.00    +0.006 C 
ATOM     20  C   LIG A   1      -4.148  -2.530 130.135  0.00  0.00    +0.031 C 
ATOM     21  C   LIG A   1      -4.537  -2.625 128.687  0.00  0.00    -0.026 C 
ATOM     22  C   LIG A   1      -5.733  -2.232 128.196  0.00  0.00    -0.063 C 
ATOM     23  C   LIG A   1      -6.162  -2.489 126.742  0.00  0.00    +0.033 C 
ATOM     24  C   LIG A   1      -5.041  -2.948 125.769  0.00  0.00    +0.015 C 
ATOM     25  C   LIG A   1      -5.180  -2.657 132.986  0.00  0.00    +0.012 C 
ATOM     26  C   LIG A   1      -5.739  -0.366 135.598  0.00  0.00    +0.014 C 
ATOM     27  C   LIG A   1      -5.330   0.530 129.320  0.00  0.00    +0.012 C 
ATOM     28  C   LIG A   1      -7.408  -2.813 129.940  0.00  0.00    +0.016 C 
ATOM     29  C   LIG A   1      -5.084  -4.708 123.957  0.00  0.00    +0.011 C 
ENDROOT
BRANCH  16  30
ATOM     30  O   LIG A   1      -1.420  -1.156 134.599  0.00  0.00    -0.389 OA
ATOM     31  H   LIG A   1      -1.276  -0.421 135.228  0.00  0.00    +0.210 HD
ENDBRANCH  16  30
BRANCH  15  32
ATOM     32  O   LIG A   1      -3.057   0.350 136.201  0.00  0.00    -0.389 OA
ATOM     33  H   LIG A   1      -3.852   0.132 136.716  0.00  0.00    +0.210 HD
ENDBRANCH  15  32
BRANCH  11  34
ATOM     34  O   LIG A   1      -7.454  -1.061 133.198  0.00  0.00    -0.392 OA
ATOM     35  H   LIG A   1      -6.848  -1.582 133.753  0.00  0.00    +0.210 HD
ENDBRANCH  11  34
BRANCH   5  36
ATOM     36  C   LIG A   1      -6.312   0.004 125.965  0.00  0.00    +0.316 C 
ATOM     37  O   LIG A   1      -5.119   0.144 125.805  0.00  0.00    -0.250 OA
BRANCH  36  38
ATOM     38  O   LIG A   1      -7.204   1.062 126.040  0.00  0.00    -0.432 OA
BRANCH  38  39
ATOM     39  C   LIG A   1      -7.081   2.075 125.005  0.00  0.00    +0.342 C 
ATOM     40  C   LIG A   1      -8.074   3.276 125.240  0.00  0.00    +0.214 C 
ATOM     41  C   LIG A   1      -7.643   4.216 126.395  0.00  0.00    +0.180 C 
ATOM     42  C   LIG A   1      -6.281   3.801 126.957  0.00  0.00    +0.177 C 
ATOM     43  C   LIG A   1      -5.377   3.667 125.730  0.00  0.00    +0.179 C 
ATOM     44  O   LIG A   1      -5.698   2.486 124.971  0.00  0.00    -0.331 OA
BRANCH  40  45
ATOM     45  O   LIG A   1      -8.147   4.065 124.033  0.00  0.00    -0.383 OA
ATOM     46  H   LIG A   1      -7.533   4.818 124.120  0.00  0.00    +0.210 HD
ENDBRANCH  40  45
BRANCH  41  47
ATOM     47  O   LIG A   1      -8.606   4.313 127.452  0.00  0.00    -0.386 OA
ATOM     48  H   LIG A   1      -9.068   3.464 127.554  0.00  0.00    +0.210 HD
ENDBRANCH  41  47
BRANCH  42  49
ATOM     49  O   LIG A   1      -5.815   4.758 127.901  0.00  0.00    -0.387 OA
ATOM     50  H   LIG A   1      -5.263   5.386 127.394  0.00  0.00    +0.210 HD
ENDBRANCH  42  49
BRANCH  43  51
ATOM     51  C   LIG A   1      -3.886   3.664 126.068  0.00  0.00    +0.190 C 
BRANCH  51  52
ATOM     52  O   LIG A   1      -3.491   2.359 126.502  0.00  0.00    -0.392 OA
ATOM     53  H   LIG A   1      -4.321   1.897 126.726  0.00  0.00    +0.209 HD
ENDBRANCH  51  52
ENDBRANCH  43  51
ENDBRANCH  38  39
ENDBRANCH  36  38
ENDBRANCH   5  36
TORSDOF 11
ENDMDL
MODEL 9
REMARK VINA RESULT:      -8.5      4.318      9.741
REMARK  Name = NuBBE_1173
REMARK  18 active torsions:
REMARK  status: ('A' for Active; 'I' for Inactive)
REMARK    1  A    between atoms: C_1  and  C_2
REMARK    2  A    between atoms: C_2  and  C_57
REMARK    3  A    between atoms: C_5  and  C_38
REMARK    4  A    between atoms: C_8  and  C_37
REMARK    5  A    between atoms: C_9  and  C_36
REMARK    6  A    between atoms: C_11  and  O_35
REMARK    7  A    between atoms: C_15  and  C_16
REMARK    8  A    between atoms: C_15  and  C_34
REMARK    9  A    between atoms: C_17  and  O_33
REMARK   10  A    between atoms: C_19  and  O_32
REMARK   11  A    between atoms: C_22  and  C_31
REMARK   12  A    between atoms: C_38  and  O_39
REMARK   13  A    between atoms: O_39  and  C_40
REMARK   14  A    between atoms: C_42  and  O_44
REMARK   15  A    between atoms: C_45  and  O_47
REMARK   16  A    between atoms: C_48  and  O_50
REMARK   17  A    between atoms: C_51  and  C_53
REMARK   18  A    between atoms: C_53  and  O_54
REMARK                            x       y       z     vdW  Elec       q    Type
REMARK                         _______ _______ _______ _____ _____    ______ ____
ROOT
ATOM      1  C   LIG A   1      -7.740   5.011 135.438  0.00  0.00    +0.011 C 
ATOM      2  C   LIG A   1      -6.430   4.516 134.792  0.00  0.00    -0.034 C 
ATOM      3  C   LIG A   1      -5.736   5.683 134.072  0.00  0.00    +0.007 C 
ATOM      4  C   LIG A   1      -6.504   6.151 132.832  0.00  0.00    +0.019 C 
ATOM      5  C   LIG A   1      -6.910   5.009 131.847  0.00  0.00    +0.074 C 
ATOM      6  C   LIG A   1      -6.236   5.303 130.492  0.00  0.00    +0.019 C 
ATOM      7  C   LIG A   1      -6.463   4.245 129.419  0.00  0.00    +0.012 C 
ATOM      8  C   LIG A   1      -6.329   2.732 129.830  0.00  0.00    -0.005 C 
ATOM      9  C   LIG A   1      -7.399   1.829 129.002  0.00  0.00    -0.017 C 
ATOM     10  C   LIG A   1      -7.328   2.124 127.466  0.00  0.00    +0.039 C 
ATOM     11  C   LIG A   1      -7.126   0.966 126.495  0.00  0.00    +0.119 C 
ATOM     12  C   LIG A   1      -7.793  -0.331 126.979  0.00  0.00    +0.032 C 
ATOM     13  C   LIG A   1      -8.041  -1.408 125.836  0.00  0.00    -0.001 C 
ATOM     14  C   LIG A   1      -9.098  -0.841 124.840  0.00  0.00    +0.014 C 
ATOM     15  C   LIG A   1      -8.651  -2.700 126.451  0.00  0.00    +0.149 C 
ATOM     16  C   LIG A   1      -7.891  -3.203 127.681  0.00  0.00    +0.144 C 
ATOM     17  C   LIG A   1      -7.857  -2.137 128.767  0.00  0.00    +0.041 C 
ATOM     18  C   LIG A   1      -7.142  -0.822 128.326  0.00  0.00    -0.020 C 
ATOM     19  C   LIG A   1      -7.416   0.291 129.427  0.00  0.00    +0.006 C 
ATOM     20  C   LIG A   1      -6.769   0.023 130.808  0.00  0.00    +0.031 C 
ATOM     21  C   LIG A   1      -6.736   1.203 131.738  0.00  0.00    -0.026 C 
ATOM     22  C   LIG A   1      -6.523   2.476 131.337  0.00  0.00    -0.063 C 
ATOM     23  C   LIG A   1      -6.333   3.639 132.326  0.00  0.00    +0.033 C 
ATOM     24  C   LIG A   1      -6.705   3.346 133.806  0.00  0.00    +0.015 C 
ATOM     25  C   LIG A   1      -5.633  -1.141 128.247  0.00  0.00    +0.012 C 
ATOM     26  C   LIG A   1      -6.801  -1.743 124.982  0.00  0.00    +0.014 C 
ATOM     27  C   LIG A   1      -8.844   2.309 129.431  0.00  0.00    +0.012 C 
ATOM     28  C   LIG A   1      -4.861   2.340 129.493  0.00  0.00    +0.016 C 
ATOM     29  C   LIG A   1      -5.527   4.013 135.939  0.00  0.00    +0.011 C 
ENDROOT
BRANCH  16  30
ATOM     30  O   LIG A   1      -8.576  -4.355 128.194  0.00  0.00    -0.389 OA
ATOM     31  H   LIG A   1      -8.470  -5.031 127.494  0.00  0.00    +0.210 HD
ENDBRANCH  16  30
BRANCH  15  32
ATOM     32  O   LIG A   1      -8.699  -3.789 125.514  0.00  0.00    -0.389 OA
ATOM     33  H   LIG A   1      -7.973  -3.666 124.879  0.00  0.00    +0.210 HD
ENDBRANCH  15  32
BRANCH  11  34
ATOM     34  O   LIG A   1      -5.736   0.797 126.247  0.00  0.00    -0.392 OA
ATOM     35  H   LIG A   1      -5.319   0.504 127.075  0.00  0.00    +0.210 HD
ENDBRANCH  11  34
BRANCH   5  36
ATOM     36  C   LIG A   1      -8.470   5.007 131.685  0.00  0.00    +0.316 C 
ATOM     37  O   LIG A   1      -9.246   4.403 132.392  0.00  0.00    -0.250 OA
BRANCH  36  38
ATOM     38  O   LIG A   1      -8.862   5.794 130.614  0.00  0.00    -0.432 OA
BRANCH  38  39
ATOM     39  C   LIG A   1      -9.861   5.216 129.730  0.00  0.00    +0.342 C 
ATOM     40  C   LIG A   1     -11.234   4.988 130.469  0.00  0.00    +0.214 C 
ATOM     41  C   LIG A   1     -12.025   6.298 130.721  0.00  0.00    +0.180 C 
ATOM     42  C   LIG A   1     -11.315   7.494 130.082  0.00  0.00    +0.177 C 
ATOM     43  C   LIG A   1     -11.037   7.059 128.642  0.00  0.00    +0.179 C 
ATOM     44  O   LIG A   1      -9.975   6.088 128.585  0.00  0.00    -0.331 OA
BRANCH  40  45
ATOM     45  O   LIG A   1     -12.061   4.122 129.661  0.00  0.00    -0.383 OA
ATOM     46  H   LIG A   1     -12.981   4.189 129.980  0.00  0.00    +0.210 HD
ENDBRANCH  40  45
BRANCH  41  47
ATOM     47  O   LIG A   1     -12.284   6.558 132.106  0.00  0.00    -0.386 OA
ATOM     48  H   LIG A   1     -13.152   6.196 132.352  0.00  0.00    +0.210 HD
ENDBRANCH  41  47
BRANCH  42  49
ATOM     49  O   LIG A   1     -12.122   8.663 130.174  0.00  0.00    -0.387 OA
ATOM     50  H   LIG A   1     -11.557   9.346 130.587  0.00  0.00    +0.210 HD
ENDBRANCH  42  49
BRANCH  43  51
ATOM     51  C   LIG A   1     -10.712   8.223 127.705  0.00  0.00    +0.190 C 
BRANCH  51  52
ATOM     52  O   LIG A   1     -10.986   7.847 126.352  0.00  0.00    -0.392 OA
ATOM     53  H   LIG A   1     -11.658   8.481 126.037  0.00  0.00    +0.209 HD
ENDBRANCH  51  52
ENDBRANCH  43  51
ENDBRANCH  38  39
ENDBRANCH  36  38
ENDBRANCH   5  36
TORSDOF 11
ENDMDL
