MODEL 1
REMARK VINA RESULT:      -6.8      0.000      0.000
REMARK  Name = NuBBE_1818
REMARK  6 active torsions:
REMARK  status: ('A' for Active; 'I' for Inactive)
REMARK    1  A    between atoms: O_1  and  C_2
REMARK    2  A    between atoms: C_6  and  C_11
REMARK    3  A    between atoms: C_7  and  C_8
REMARK    4  A    between atoms: C_8  and  C_10
REMARK    5  A    between atoms: C_13  and  O_17
REMARK    6  A    between atoms: C_15  and  O_16
REMARK                            x       y       z     vdW  Elec       q    Type
REMARK                         _______ _______ _______ _____ _____    ______ ____
ROOT
ATOM      1  C   LIG A   1      -9.570   5.760 132.529  0.00  0.00    +0.139 A 
ATOM      2  C   LIG A   1     -10.013   6.514 131.407  0.00  0.00    +0.066 A 
ATOM      3  C   LIG A   1      -9.030   7.117 130.589  0.00  0.00    -0.007 A 
ATOM      4  C   LIG A   1      -7.669   6.961 130.898  0.00  0.00    +0.013 A 
ATOM      5  C   LIG A   1      -7.240   6.225 132.013  0.00  0.00    -0.036 A 
ATOM      6  C   LIG A   1      -8.206   5.616 132.833  0.00  0.00    +0.062 A 
ATOM      7  C   LIG A   1      -5.763   6.094 132.275  0.00  0.00    +0.044 C 
ATOM      8  C   LIG A   1      -9.413   7.871 129.464  0.00  0.00    +0.054 A 
ATOM      9  C   LIG A   1     -10.757   8.030 129.146  0.00  0.00    +0.121 A 
ATOM     10  C   LIG A   1     -11.745   7.451 129.926  0.00  0.00    +0.091 A 
ATOM     11  C   LIG A   1     -11.373   6.701 131.040  0.00  0.00    +0.132 A 
ENDROOT
BRANCH   6  12
ATOM     12  C   LIG A   1      -7.781   4.805 134.007  0.00  0.00    +0.164 C 
ATOM     13  O   LIG A   1      -7.618   3.592 133.889  0.00  0.00    -0.292 OA
ATOM     14  C   LIG A   1      -7.522   5.513 135.312  0.00  0.00    +0.091 C 
ENDBRANCH   6  12
BRANCH   1  15
ATOM     15  O   LIG A   1     -10.487   5.125 133.336  0.00  0.00    -0.505 OA
ATOM     16  H   LIG A   1     -10.117   4.244 133.553  0.00  0.00    +0.292 HD
ENDBRANCH   1  15
BRANCH  11  17
ATOM     17  O   LIG A   1     -12.355   6.122 131.812  0.00  0.00    -0.506 OA
ATOM     18  H   LIG A   1     -12.915   5.576 131.231  0.00  0.00    +0.292 HD
ENDBRANCH  11  17
BRANCH   9  19
ATOM     19  O   LIG A   1     -11.153   8.755 128.062  0.00  0.00    -0.507 OA
ATOM     20  H   LIG A   1     -11.290   8.154 127.311  0.00  0.00    +0.292 HD
ENDBRANCH   9  19
TORSDOF 4
ENDMDL
MODEL 2
REMARK VINA RESULT:      -6.8      1.337      5.071
REMARK  Name = NuBBE_1818
REMARK  6 active torsions:
REMARK  status: ('A' for Active; 'I' for Inactive)
REMARK    1  A    between atoms: O_1  and  C_2
REMARK    2  A    between atoms: C_6  and  C_11
REMARK    3  A    between atoms: C_7  and  C_8
REMARK    4  A    between atoms: C_8  and  C_10
REMARK    5  A    between atoms: C_13  and  O_17
REMARK    6  A    between atoms: C_15  and  O_16
REMARK                            x       y       z     vdW  Elec       q    Type
REMARK                         _______ _______ _______ _____ _____    ______ ____
ROOT
ATOM      1  C   LIG A   1     -10.837   6.401 131.349  0.00  0.00    +0.139 A 
ATOM      2  C   LIG A   1      -9.479   6.223 131.734  0.00  0.00    +0.066 A 
ATOM      3  C   LIG A   1      -8.482   6.849 130.948  0.00  0.00    -0.007 A 
ATOM      4  C   LIG A   1      -8.851   7.615 129.830  0.00  0.00    +0.013 A 
ATOM      5  C   LIG A   1     -10.193   7.777 129.450  0.00  0.00    -0.036 A 
ATOM      6  C   LIG A   1     -11.193   7.163 130.224  0.00  0.00    +0.062 A 
ATOM      7  C   LIG A   1     -10.510   8.621 128.245  0.00  0.00    +0.044 C 
ATOM      8  C   LIG A   1      -7.124   6.709 131.287  0.00  0.00    +0.054 A 
ATOM      9  C   LIG A   1      -6.747   5.956 132.394  0.00  0.00    +0.121 A 
ATOM     10  C   LIG A   1      -7.698   5.330 133.184  0.00  0.00    +0.091 A 
ATOM     11  C   LIG A   1      -9.045   5.466 132.856  0.00  0.00    +0.132 A 
ENDROOT
BRANCH   6  12
ATOM     12  C   LIG A   1     -12.626   7.340 129.863  0.00  0.00    +0.164 C 
ATOM     13  O   LIG A   1     -13.320   8.145 130.481  0.00  0.00    -0.292 OA
ATOM     14  C   LIG A   1     -13.179   6.545 128.709  0.00  0.00    +0.091 C 
ENDBRANCH   6  12
BRANCH   1  15
ATOM     15  O   LIG A   1     -11.843   5.839 132.101  0.00  0.00    -0.505 OA
ATOM     16  H   LIG A   1     -11.537   5.834 133.032  0.00  0.00    +0.292 HD
ENDBRANCH   1  15
BRANCH  11  17
ATOM     17  O   LIG A   1      -9.988   4.849 133.646  0.00  0.00    -0.506 OA
ATOM     18  H   LIG A   1     -10.377   4.114 133.136  0.00  0.00    +0.292 HD
ENDBRANCH  11  17
BRANCH   9  19
ATOM     19  O   LIG A   1      -5.438   5.805 132.741  0.00  0.00    -0.507 OA
ATOM     20  H   LIG A   1      -5.364   5.818 133.710  0.00  0.00    +0.292 HD
ENDBRANCH   9  19
TORSDOF 4
ENDMDL
MODEL 3
REMARK VINA RESULT:      -6.4      2.589      3.581
REMARK  Name = NuBBE_1818
REMARK  6 active torsions:
REMARK  status: ('A' for Active; 'I' for Inactive)
REMARK    1  A    between atoms: O_1  and  C_2
REMARK    2  A    between atoms: C_6  and  C_11
REMARK    3  A    between atoms: C_7  and  C_8
REMARK    4  A    between atoms: C_8  and  C_10
REMARK    5  A    between atoms: C_13  and  O_17
REMARK    6  A    between atoms: C_15  and  O_16
REMARK                            x       y       z     vdW  Elec       q    Type
REMARK                         _______ _______ _______ _____ _____    ______ ____
ROOT
ATOM      1  C   LIG A   1      -9.491   5.678 129.066  0.00  0.00    +0.139 A 
ATOM      2  C   LIG A   1     -10.460   6.701 128.871  0.00  0.00    +0.066 A 
ATOM      3  C   LIG A   1     -11.087   7.243 130.017  0.00  0.00    -0.007 A 
ATOM      4  C   LIG A   1     -10.746   6.767 131.294  0.00  0.00    +0.013 A 
ATOM      5  C   LIG A   1      -9.797   5.749 131.477  0.00  0.00    -0.036 A 
ATOM      6  C   LIG A   1      -9.163   5.205 130.347  0.00  0.00    +0.062 A 
ATOM      7  C   LIG A   1      -9.477   5.298 132.877  0.00  0.00    +0.044 C 
ATOM      8  C   LIG A   1     -12.050   8.261 129.880  0.00  0.00    +0.054 A 
ATOM      9  C   LIG A   1     -12.394   8.742 128.623  0.00  0.00    +0.121 A 
ATOM     10  C   LIG A   1     -11.798   8.234 127.480  0.00  0.00    +0.091 A 
ATOM     11  C   LIG A   1     -10.842   7.228 127.607  0.00  0.00    +0.132 A 
ENDROOT
BRANCH   6  12
ATOM     12  C   LIG A   1      -8.132   4.144 130.512  0.00  0.00    +0.164 C 
ATOM     13  O   LIG A   1      -6.942   4.447 130.568  0.00  0.00    -0.292 OA
ATOM     14  C   LIG A   1      -8.588   2.714 130.648  0.00  0.00    +0.091 C 
ENDBRANCH   6  12
BRANCH   1  15
ATOM     15  O   LIG A   1      -8.829   5.143 127.984  0.00  0.00    -0.505 OA
ATOM     16  H   LIG A   1      -7.955   5.583 127.937  0.00  0.00    +0.292 HD
ENDBRANCH   1  15
BRANCH  11  17
ATOM     17  O   LIG A   1     -10.247   6.727 126.471  0.00  0.00    -0.506 OA
ATOM     18  H   LIG A   1     -10.563   7.245 125.709  0.00  0.00    +0.292 HD
ENDBRANCH  11  17
BRANCH   9  19
ATOM     19  O   LIG A   1     -13.324   9.726 128.465  0.00  0.00    -0.507 OA
ATOM     20  H   LIG A   1     -14.048   9.391 127.910  0.00  0.00    +0.292 HD
ENDBRANCH   9  19
TORSDOF 4
ENDMDL
MODEL 4
REMARK VINA RESULT:      -6.3      2.046      5.978
REMARK  Name = NuBBE_1818
REMARK  6 active torsions:
REMARK  status: ('A' for Active; 'I' for Inactive)
REMARK    1  A    between atoms: O_1  and  C_2
REMARK    2  A    between atoms: C_6  and  C_11
REMARK    3  A    between atoms: C_7  and  C_8
REMARK    4  A    between atoms: C_8  and  C_10
REMARK    5  A    between atoms: C_13  and  O_17
REMARK    6  A    between atoms: C_15  and  O_16
REMARK                            x       y       z     vdW  Elec       q    Type
REMARK                         _______ _______ _______ _____ _____    ______ ____
ROOT
ATOM      1  C   LIG A   1     -10.093   6.315 128.881  0.00  0.00    +0.139 A 
ATOM      2  C   LIG A   1      -9.796   5.900 130.209  0.00  0.00    +0.066 A 
ATOM      3  C   LIG A   1     -10.592   6.418 131.256  0.00  0.00    -0.007 A 
ATOM      4  C   LIG A   1     -11.636   7.312 130.966  0.00  0.00    +0.013 A 
ATOM      5  C   LIG A   1     -11.917   7.725 129.654  0.00  0.00    -0.036 A 
ATOM      6  C   LIG A   1     -11.135   7.215 128.603  0.00  0.00    +0.062 A 
ATOM      7  C   LIG A   1     -13.058   8.679 129.420  0.00  0.00    +0.044 C 
ATOM      8  C   LIG A   1     -10.343   6.037 132.588  0.00  0.00    +0.054 A 
ATOM      9  C   LIG A   1      -9.315   5.151 132.887  0.00  0.00    +0.121 A 
ATOM     10  C   LIG A   1      -8.517   4.624 131.885  0.00  0.00    +0.091 A 
ATOM     11  C   LIG A   1      -8.759   4.994 130.564  0.00  0.00    +0.132 A 
ENDROOT
BRANCH   6  12
ATOM     12  C   LIG A   1     -11.426   7.612 127.198  0.00  0.00    +0.164 C 
ATOM     13  O   LIG A   1     -10.676   8.391 126.613  0.00  0.00    -0.292 OA
ATOM     14  C   LIG A   1     -12.625   7.008 126.515  0.00  0.00    +0.091 C 
ENDBRANCH   6  12
BRANCH   1  15
ATOM     15  O   LIG A   1      -9.368   5.812 127.825  0.00  0.00    -0.505 OA
ATOM     16  H   LIG A   1      -8.455   5.662 128.149  0.00  0.00    +0.292 HD
ENDBRANCH   1  15
BRANCH  11  17
ATOM     17  O   LIG A   1      -7.968   4.466 129.568  0.00  0.00    -0.506 OA
ATOM     18  H   LIG A   1      -8.534   3.927 128.985  0.00  0.00    +0.292 HD
ENDBRANCH  11  17
BRANCH   9  19
ATOM     19  O   LIG A   1      -9.054   4.768 134.169  0.00  0.00    -0.507 OA
ATOM     20  H   LIG A   1      -9.150   5.538 134.755  0.00  0.00    +0.292 HD
ENDBRANCH   9  19
TORSDOF 4
ENDMDL
MODEL 5
REMARK VINA RESULT:      -6.2     10.239     10.768
REMARK  Name = NuBBE_1818
REMARK  6 active torsions:
REMARK  status: ('A' for Active; 'I' for Inactive)
REMARK    1  A    between atoms: O_1  and  C_2
REMARK    2  A    between atoms: C_6  and  C_11
REMARK    3  A    between atoms: C_7  and  C_8
REMARK    4  A    between atoms: C_8  and  C_10
REMARK    5  A    between atoms: C_13  and  O_17
REMARK    6  A    between atoms: C_15  and  O_16
REMARK                            x       y       z     vdW  Elec       q    Type
REMARK                         _______ _______ _______ _____ _____    ______ ____
ROOT
ATOM      1  C   LIG A   1      -6.142  -1.837 126.836  0.00  0.00    +0.139 A 
ATOM      2  C   LIG A   1      -7.152  -2.239 125.918  0.00  0.00    +0.066 A 
ATOM      3  C   LIG A   1      -8.259  -2.957 126.427  0.00  0.00    -0.007 A 
ATOM      4  C   LIG A   1      -8.332  -3.251 127.799  0.00  0.00    +0.013 A 
ATOM      5  C   LIG A   1      -7.326  -2.861 128.697  0.00  0.00    -0.036 A 
ATOM      6  C   LIG A   1      -6.223  -2.144 128.205  0.00  0.00    +0.062 A 
ATOM      7  C   LIG A   1      -7.479  -3.205 130.154  0.00  0.00    +0.044 C 
ATOM      8  C   LIG A   1      -9.288  -3.374 125.563  0.00  0.00    +0.054 A 
ATOM      9  C   LIG A   1      -9.229  -3.086 124.204  0.00  0.00    +0.121 A 
ATOM     10  C   LIG A   1      -8.159  -2.384 123.673  0.00  0.00    +0.091 A 
ATOM     11  C   LIG A   1      -7.137  -1.965 124.523  0.00  0.00    +0.132 A 
ENDROOT
BRANCH   6  12
ATOM     12  C   LIG A   1      -5.153  -1.692 129.137  0.00  0.00    +0.164 C 
ATOM     13  O   LIG A   1      -5.207  -0.569 129.635  0.00  0.00    -0.292 OA
ATOM     14  C   LIG A   1      -4.045  -2.654 129.478  0.00  0.00    +0.091 C 
ENDBRANCH   6  12
BRANCH   1  15
ATOM     15  O   LIG A   1      -5.063  -1.107 126.394  0.00  0.00    -0.505 OA
ATOM     16  H   LIG A   1      -4.314  -1.733 126.296  0.00  0.00    +0.292 HD
ENDBRANCH   1  15
BRANCH  11  17
ATOM     17  O   LIG A   1      -6.078  -1.263 123.995  0.00  0.00    -0.506 OA
ATOM     18  H   LIG A   1      -6.013  -1.478 123.047  0.00  0.00    +0.292 HD
ENDBRANCH  11  17
BRANCH   9  19
ATOM     19  O   LIG A   1     -10.213  -3.481 123.348  0.00  0.00    -0.507 OA
ATOM     20  H   LIG A   1      -9.942  -4.307 122.913  0.00  0.00    +0.292 HD
ENDBRANCH   9  19
TORSDOF 4
ENDMDL
MODEL 6
REMARK VINA RESULT:      -5.9     10.071     11.511
REMARK  Name = NuBBE_1818
REMARK  6 active torsions:
REMARK  status: ('A' for Active; 'I' for Inactive)
REMARK    1  A    between atoms: O_1  and  C_2
REMARK    2  A    between atoms: C_6  and  C_11
REMARK    3  A    between atoms: C_7  and  C_8
REMARK    4  A    between atoms: C_8  and  C_10
REMARK    5  A    between atoms: C_13  and  O_17
REMARK    6  A    between atoms: C_15  and  O_16
REMARK                            x       y       z     vdW  Elec       q    Type
REMARK                         _______ _______ _______ _____ _____    ______ ____
ROOT
ATOM      1  C   LIG A   1      -6.297  -1.635 126.085  0.00  0.00    +0.139 A 
ATOM      2  C   LIG A   1      -6.617  -2.009 127.420  0.00  0.00    +0.066 A 
ATOM      3  C   LIG A   1      -7.746  -2.837 127.621  0.00  0.00    -0.007 A 
ATOM      4  C   LIG A   1      -8.509  -3.260 126.520  0.00  0.00    +0.013 A 
ATOM      5  C   LIG A   1      -8.193  -2.878 125.207  0.00  0.00    -0.036 A 
ATOM      6  C   LIG A   1      -7.072  -2.058 124.993  0.00  0.00    +0.062 A 
ATOM      7  C   LIG A   1      -9.053  -3.379 124.077  0.00  0.00    +0.044 C 
ATOM      8  C   LIG A   1      -8.104  -3.239 128.921  0.00  0.00    +0.054 A 
ATOM      9  C   LIG A   1      -7.355  -2.829 130.018  0.00  0.00    +0.121 A 
ATOM     10  C   LIG A   1      -6.243  -2.020 129.856  0.00  0.00    +0.091 A 
ATOM     11  C   LIG A   1      -5.881  -1.618 128.572  0.00  0.00    +0.132 A 
ENDROOT
BRANCH   6  12
ATOM     12  C   LIG A   1      -6.695  -1.659 123.609  0.00  0.00    +0.164 C 
ATOM     13  O   LIG A   1      -7.118  -0.605 123.138  0.00  0.00    -0.292 OA
ATOM     14  C   LIG A   1      -5.762  -2.552 122.833  0.00  0.00    +0.091 C 
ENDBRANCH   6  12
BRANCH   1  15
ATOM     15  O   LIG A   1      -5.188  -0.858 125.836  0.00  0.00    -0.505 OA
ATOM     16  H   LIG A   1      -5.501   0.066 125.740  0.00  0.00    +0.292 HD
ENDBRANCH   1  15
BRANCH  11  17
ATOM     17  O   LIG A   1      -4.772  -0.818 128.412  0.00  0.00    -0.506 OA
ATOM     18  H   LIG A   1      -4.057  -1.361 128.035  0.00  0.00    +0.292 HD
ENDBRANCH  11  17
BRANCH   9  19
ATOM     19  O   LIG A   1      -7.683  -3.206 131.286  0.00  0.00    -0.507 OA
ATOM     20  H   LIG A   1      -8.161  -2.478 131.719  0.00  0.00    +0.292 HD
ENDBRANCH   9  19
TORSDOF 4
ENDMDL
MODEL 7
REMARK VINA RESULT:      -5.8      1.493      2.318
REMARK  Name = NuBBE_1818
REMARK  6 active torsions:
REMARK  status: ('A' for Active; 'I' for Inactive)
REMARK    1  A    between atoms: O_1  and  C_2
REMARK    2  A    between atoms: C_6  and  C_11
REMARK    3  A    between atoms: C_7  and  C_8
REMARK    4  A    between atoms: C_8  and  C_10
REMARK    5  A    between atoms: C_13  and  O_17
REMARK    6  A    between atoms: C_15  and  O_16
REMARK                            x       y       z     vdW  Elec       q    Type
REMARK                         _______ _______ _______ _____ _____    ______ ____
ROOT
ATOM      1  C   LIG A   1      -7.363   5.563 133.046  0.00  0.00    +0.139 A 
ATOM      2  C   LIG A   1      -8.449   5.995 132.234  0.00  0.00    +0.066 A 
ATOM      3  C   LIG A   1      -8.154   6.801 131.110  0.00  0.00    -0.007 A 
ATOM      4  C   LIG A   1      -6.823   7.150 130.829  0.00  0.00    +0.013 A 
ATOM      5  C   LIG A   1      -5.757   6.729 131.641  0.00  0.00    -0.036 A 
ATOM      6  C   LIG A   1      -6.036   5.924 132.758  0.00  0.00    +0.062 A 
ATOM      7  C   LIG A   1      -4.356   7.136 131.270  0.00  0.00    +0.044 C 
ATOM      8  C   LIG A   1      -9.191   7.251 130.273  0.00  0.00    +0.054 A 
ATOM      9  C   LIG A   1     -10.512   6.910 130.539  0.00  0.00    +0.121 A 
ATOM     10  C   LIG A   1     -10.835   6.121 131.631  0.00  0.00    +0.091 A 
ATOM     11  C   LIG A   1      -9.814   5.669 132.464  0.00  0.00    +0.132 A 
ENDROOT
BRANCH   6  12
ATOM     12  C   LIG A   1      -4.925   5.440 133.622  0.00  0.00    +0.164 C 
ATOM     13  O   LIG A   1      -4.444   4.324 133.435  0.00  0.00    -0.292 OA
ATOM     14  C   LIG A   1      -4.389   6.362 134.687  0.00  0.00    +0.091 C 
ENDBRANCH   6  12
BRANCH   1  15
ATOM     15  O   LIG A   1      -7.596   4.749 134.131  0.00  0.00    -0.505 OA
ATOM     16  H   LIG A   1      -6.824   4.839 134.728  0.00  0.00    +0.292 HD
ENDBRANCH   1  15
BRANCH  11  17
ATOM     17  O   LIG A   1     -10.136   4.881 133.546  0.00  0.00    -0.506 OA
ATOM     18  H   LIG A   1     -10.179   3.955 133.245  0.00  0.00    +0.292 HD
ENDBRANCH  11  17
BRANCH   9  19
ATOM     19  O   LIG A   1     -11.533   7.335 129.742  0.00  0.00    -0.507 OA
ATOM     20  H   LIG A   1     -11.590   8.304 129.792  0.00  0.00    +0.292 HD
ENDBRANCH   9  19
TORSDOF 4
ENDMDL
MODEL 8
REMARK VINA RESULT:      -5.7      1.572      2.430
REMARK  Name = NuBBE_1818
REMARK  6 active torsions:
REMARK  status: ('A' for Active; 'I' for Inactive)
REMARK    1  A    between atoms: O_1  and  C_2
REMARK    2  A    between atoms: C_6  and  C_11
REMARK    3  A    between atoms: C_7  and  C_8
REMARK    4  A    between atoms: C_8  and  C_10
REMARK    5  A    between atoms: C_13  and  O_17
REMARK    6  A    between atoms: C_15  and  O_16
REMARK                            x       y       z     vdW  Elec       q    Type
REMARK                         _______ _______ _______ _____ _____    ______ ____
ROOT
ATOM      1  C   LIG A   1      -7.828   5.119 133.906  0.00  0.00    +0.139 A 
ATOM      2  C   LIG A   1      -8.296   5.787 132.740  0.00  0.00    +0.066 A 
ATOM      3  C   LIG A   1      -7.335   6.395 131.898  0.00  0.00    -0.007 A 
ATOM      4  C   LIG A   1      -5.972   6.327 132.228  0.00  0.00    +0.013 A 
ATOM      5  C   LIG A   1      -5.519   5.674 133.386  0.00  0.00    -0.036 A 
ATOM      6  C   LIG A   1      -6.462   5.062 134.229  0.00  0.00    +0.062 A 
ATOM      7  C   LIG A   1      -4.041   5.635 133.667  0.00  0.00    +0.044 C 
ATOM      8  C   LIG A   1      -7.744   7.066 130.731  0.00  0.00    +0.054 A 
ATOM      9  C   LIG A   1      -9.090   7.138 130.393  0.00  0.00    +0.121 A 
ATOM     10  C   LIG A   1     -10.056   6.552 131.195  0.00  0.00    +0.091 A 
ATOM     11  C   LIG A   1      -9.660   5.885 132.352  0.00  0.00    +0.132 A 
ENDROOT
BRANCH   6  12
ATOM     12  C   LIG A   1      -6.011   4.339 135.449  0.00  0.00    +0.164 C 
ATOM     13  O   LIG A   1      -6.094   4.881 136.550  0.00  0.00    -0.292 OA
ATOM     14  C   LIG A   1      -5.496   2.931 135.300  0.00  0.00    +0.091 C 
ENDBRANCH   6  12
BRANCH   1  15
ATOM     15  O   LIG A   1      -8.721   4.483 134.738  0.00  0.00    -0.505 OA
ATOM     16  H   LIG A   1      -9.235   5.182 135.195  0.00  0.00    +0.292 HD
ENDBRANCH   1  15
BRANCH  11  17
ATOM     17  O   LIG A   1     -10.620   5.298 133.145  0.00  0.00    -0.506 OA
ATOM     18  H   LIG A   1     -10.175   4.683 133.756  0.00  0.00    +0.292 HD
ENDBRANCH  11  17
BRANCH   9  19
ATOM     19  O   LIG A   1      -9.510   7.783 129.268  0.00  0.00    -0.507 OA
ATOM     20  H   LIG A   1     -10.131   7.210 128.788  0.00  0.00    +0.292 HD
ENDBRANCH   9  19
TORSDOF 4
ENDMDL
MODEL 9
REMARK VINA RESULT:      -5.7     10.327     10.885
REMARK  Name = NuBBE_1818
REMARK  6 active torsions:
REMARK  status: ('A' for Active; 'I' for Inactive)
REMARK    1  A    between atoms: O_1  and  C_2
REMARK    2  A    between atoms: C_6  and  C_11
REMARK    3  A    between atoms: C_7  and  C_8
REMARK    4  A    between atoms: C_8  and  C_10
REMARK    5  A    between atoms: C_13  and  O_17
REMARK    6  A    between atoms: C_15  and  O_16
REMARK                            x       y       z     vdW  Elec       q    Type
REMARK                         _______ _______ _______ _____ _____    ______ ____
ROOT
ATOM      1  C   LIG A   1      -6.733  -2.136 127.388  0.00  0.00    +0.139 A 
ATOM      2  C   LIG A   1      -6.973  -2.093 125.986  0.00  0.00    +0.066 A 
ATOM      3  C   LIG A   1      -8.093  -2.799 125.487  0.00  0.00    -0.007 A 
ATOM      4  C   LIG A   1      -8.923  -3.510 126.370  0.00  0.00    +0.013 A 
ATOM      5  C   LIG A   1      -8.673  -3.556 127.751  0.00  0.00    -0.036 A 
ATOM      6  C   LIG A   1      -7.566  -2.856 128.260  0.00  0.00    +0.062 A 
ATOM      7  C   LIG A   1      -9.613  -4.332 128.634  0.00  0.00    +0.044 C 
ATOM      8  C   LIG A   1      -8.379  -2.787 124.110  0.00  0.00    +0.054 A 
ATOM      9  C   LIG A   1      -7.567  -2.084 123.227  0.00  0.00    +0.121 A 
ATOM     10  C   LIG A   1      -6.463  -1.382 123.683  0.00  0.00    +0.091 A 
ATOM     11  C   LIG A   1      -6.175  -1.387 125.046  0.00  0.00    +0.132 A 
ENDROOT
BRANCH   6  12
ATOM     12  C   LIG A   1      -7.290  -2.863 129.723  0.00  0.00    +0.164 C 
ATOM     13  O   LIG A   1      -7.766  -1.986 130.441  0.00  0.00    -0.292 OA
ATOM     14  C   LIG A   1      -6.459  -3.984 130.292  0.00  0.00    +0.091 C 
ENDBRANCH   6  12
BRANCH   1  15
ATOM     15  O   LIG A   1      -5.675  -1.438 127.925  0.00  0.00    -0.505 OA
ATOM     16  H   LIG A   1      -5.370  -1.939 128.711  0.00  0.00    +0.292 HD
ENDBRANCH   1  15
BRANCH  11  17
ATOM     17  O   LIG A   1      -5.080  -0.685 125.498  0.00  0.00    -0.506 OA
ATOM     18  H   LIG A   1      -5.339  -0.207 126.307  0.00  0.00    +0.292 HD
ENDBRANCH  11  17
BRANCH   9  19
ATOM     19  O   LIG A   1      -7.823  -2.058 121.889  0.00  0.00    -0.507 OA
ATOM     20  H   LIG A   1      -8.427  -1.321 121.696  0.00  0.00    +0.292 HD
ENDBRANCH   9  19
TORSDOF 4
ENDMDL
