MODEL 1
REMARK VINA RESULT:      -7.8      0.000      0.000
REMARK  Name = NuBBE_2406
REMARK  7 active torsions:
REMARK  status: ('A' for Active; 'I' for Inactive)
REMARK    1  A    between atoms: C_1  and  C_2
REMARK    2  A    between atoms: C_2  and  C_3
REMARK    3  A    between atoms: C_18  and  O_19
REMARK    4  A    between atoms: O_19  and  C_20
REMARK    5  A    between atoms: C_24  and  C_25
REMARK    6  A    between atoms: C_25  and  O_27
REMARK    7  A    between atoms: O_27  and  C_28
REMARK                            x       y       z     vdW  Elec       q    Type
REMARK                         _______ _______ _______ _____ _____    ______ ____
ROOT
ATOM      1  C   LIG A   1      -8.131   0.552 124.988  0.00  0.00    +0.008 C 
ATOM      2  C   LIG A   1      -7.722   0.698 123.519  0.00  0.00    +0.010 C 
ATOM      3  C   LIG A   1      -7.190  -0.673 123.105  0.00  0.00    +0.005 C 
ATOM      4  C   LIG A   1      -8.482  -1.659 123.172  0.00  0.00    +0.088 C 
ATOM      5  N   LIG A   1      -9.100  -1.679 124.536  0.00  0.00    -0.297 NA
ATOM      6  C   LIG A   1      -9.398  -2.976 125.221  0.00  0.00    +0.089 C 
ATOM      7  C   LIG A   1      -8.893  -3.328 126.738  0.00  0.00    +0.053 C 
ATOM      8  C   LIG A   1      -7.548  -2.802 127.343  0.00  0.00    -0.017 A 
ATOM      9  C   LIG A   1      -6.572  -2.074 126.660  0.00  0.00    +0.039 A 
ATOM     10  N   LIG A   1      -5.568  -1.716 127.493  0.00  0.00    -0.357 N 
ATOM     11  H   LIG A   1      -4.733  -1.200 127.244  0.00  0.00    +0.166 HD
ATOM     12  C   LIG A   1      -5.894  -2.122 128.768  0.00  0.00    +0.050 A 
ATOM     13  C   LIG A   1      -5.205  -1.899 129.968  0.00  0.00    +0.072 A 
ATOM     14  C   LIG A   1      -5.777  -2.382 131.148  0.00  0.00    +0.122 A 
ATOM     15  C   LIG A   1      -6.995  -3.060 131.115  0.00  0.00    +0.046 A 
ATOM     16  C   LIG A   1      -7.665  -3.296 129.906  0.00  0.00    +0.014 A 
ATOM     17  C   LIG A   1      -7.114  -2.811 128.706  0.00  0.00    +0.003 A 
ATOM     18  C   LIG A   1      -6.757  -1.790 125.228  0.00  0.00    +0.123 C 
ATOM     19  C   LIG A   1      -6.042  -1.003 124.162  0.00  0.00    +0.030 C 
ATOM     20  C   LIG A   1      -8.163  -0.981 125.363  0.00  0.00    +0.082 C 
ENDROOT
BRANCH   1  22
ATOM     21  C   LIG A   1     -10.268   1.606 124.037  0.00  0.00    +0.004 C 
ATOM     22  C   LIG A   1      -9.482   1.239 125.287  0.00  0.00    +0.002 C 
ENDBRANCH   1  22
BRANCH  14  23
ATOM     23  O   LIG A   1      -5.247  -2.195 132.398  0.00  0.00    -0.495 OA
ATOM     24  C   LIG A   1      -3.854  -2.468 132.521  0.00  0.00    +0.277 C 
ENDBRANCH  14  23
BRANCH  18  25
ATOM     25  C   LIG A   1      -6.429  -3.283 124.694  0.00  0.00    +0.321 C 
ATOM     26  O   LIG A   1      -7.177  -4.137 124.208  0.00  0.00    -0.250 OA
BRANCH  25  27
ATOM     27  O   LIG A   1      -5.063  -3.538 124.820  0.00  0.00    -0.467 OA
ATOM     28  C   LIG A   1      -4.540  -4.360 123.769  0.00  0.00    +0.280 C 
ENDBRANCH  25  27
ENDBRANCH  18  25
TORSDOF 4
ENDMDL
MODEL 2
REMARK VINA RESULT:      -7.5      3.909      7.813
REMARK  Name = NuBBE_2406
REMARK  7 active torsions:
REMARK  status: ('A' for Active; 'I' for Inactive)
REMARK    1  A    between atoms: C_1  and  C_2
REMARK    2  A    between atoms: C_2  and  C_3
REMARK    3  A    between atoms: C_18  and  O_19
REMARK    4  A    between atoms: O_19  and  C_20
REMARK    5  A    between atoms: C_24  and  C_25
REMARK    6  A    between atoms: C_25  and  O_27
REMARK    7  A    between atoms: O_27  and  C_28
REMARK                            x       y       z     vdW  Elec       q    Type
REMARK                         _______ _______ _______ _____ _____    ______ ____
ROOT
ATOM      1  C   LIG A   1      -6.203  -1.419 125.097  0.00  0.00    +0.008 C 
ATOM      2  C   LIG A   1      -5.715  -1.733 126.515  0.00  0.00    +0.010 C 
ATOM      3  C   LIG A   1      -6.248  -0.599 127.390  0.00  0.00    +0.005 C 
ATOM      4  C   LIG A   1      -7.865  -0.776 127.363  0.00  0.00    +0.088 C 
ATOM      5  N   LIG A   1      -8.410  -0.720 125.969  0.00  0.00    -0.297 NA
ATOM      6  C   LIG A   1      -9.560   0.177 125.634  0.00  0.00    +0.089 C 
ATOM      7  C   LIG A   1      -9.531   1.252 124.399  0.00  0.00    +0.053 C 
ATOM      8  C   LIG A   1      -8.233   1.995 123.934  0.00  0.00    -0.017 A 
ATOM      9  C   LIG A   1      -6.984   1.929 124.554  0.00  0.00    +0.039 A 
ATOM     10  N   LIG A   1      -6.062   2.634 123.857  0.00  0.00    -0.357 N 
ATOM     11  H   LIG A   1      -5.089   2.761 124.103  0.00  0.00    +0.166 HD
ATOM     12  C   LIG A   1      -6.657   3.112 122.710  0.00  0.00    +0.050 A 
ATOM     13  C   LIG A   1      -6.079   3.820 121.647  0.00  0.00    +0.072 A 
ATOM     14  C   LIG A   1      -6.898   4.155 120.565  0.00  0.00    +0.122 A 
ATOM     15  C   LIG A   1      -8.243   3.789 120.559  0.00  0.00    +0.046 A 
ATOM     16  C   LIG A   1      -8.815   3.099 121.638  0.00  0.00    +0.014 A 
ATOM     17  C   LIG A   1      -8.009   2.742 122.734  0.00  0.00    +0.003 A 
ATOM     18  C   LIG A   1      -6.834   1.140 125.787  0.00  0.00    +0.123 C 
ATOM     19  C   LIG A   1      -5.710   0.735 126.703  0.00  0.00    +0.030 C 
ATOM     20  C   LIG A   1      -7.303  -0.290 125.169  0.00  0.00    +0.082 C 
ENDROOT
BRANCH   1  22
ATOM     21  C   LIG A   1      -7.485  -2.369 123.088  0.00  0.00    +0.004 C 
ATOM     22  C   LIG A   1      -6.726  -2.678 124.369  0.00  0.00    +0.002 C 
ENDBRANCH   1  22
BRANCH  14  23
ATOM     23  O   LIG A   1      -6.463   4.797 119.435  0.00  0.00    -0.495 OA
ATOM     24  C   LIG A   1      -7.294   4.652 118.288  0.00  0.00    +0.277 C 
ENDBRANCH  14  23
BRANCH  18  25
ATOM     25  C   LIG A   1      -7.590   2.181 126.771  0.00  0.00    +0.321 C 
ATOM     26  O   LIG A   1      -8.542   2.003 127.538  0.00  0.00    -0.250 OA
BRANCH  25  27
ATOM     27  O   LIG A   1      -6.983   3.434 126.688  0.00  0.00    -0.467 OA
ATOM     28  C   LIG A   1      -7.833   4.506 127.114  0.00  0.00    +0.280 C 
ENDBRANCH  25  27
ENDBRANCH  18  25
TORSDOF 4
ENDMDL
MODEL 3
REMARK VINA RESULT:      -7.4      1.425      1.624
REMARK  Name = NuBBE_2406
REMARK  7 active torsions:
REMARK  status: ('A' for Active; 'I' for Inactive)
REMARK    1  A    between atoms: C_1  and  C_2
REMARK    2  A    between atoms: C_2  and  C_3
REMARK    3  A    between atoms: C_18  and  O_19
REMARK    4  A    between atoms: O_19  and  C_20
REMARK    5  A    between atoms: C_24  and  C_25
REMARK    6  A    between atoms: C_25  and  O_27
REMARK    7  A    between atoms: O_27  and  C_28
REMARK                            x       y       z     vdW  Elec       q    Type
REMARK                         _______ _______ _______ _____ _____    ______ ____
ROOT
ATOM      1  C   LIG A   1      -7.733   0.933 126.438  0.00  0.00    +0.008 C 
ATOM      2  C   LIG A   1      -7.691   1.401 124.979  0.00  0.00    +0.010 C 
ATOM      3  C   LIG A   1      -7.394   0.147 124.157  0.00  0.00    +0.005 C 
ATOM      4  C   LIG A   1      -8.706  -0.796 124.347  0.00  0.00    +0.088 C 
ATOM      5  N   LIG A   1      -8.965  -1.111 125.787  0.00  0.00    -0.297 NA
ATOM      6  C   LIG A   1      -9.190  -2.522 126.232  0.00  0.00    +0.089 C 
ATOM      7  C   LIG A   1      -8.355  -3.223 127.454  0.00  0.00    +0.053 C 
ATOM      8  C   LIG A   1      -6.863  -2.882 127.784  0.00  0.00    -0.017 A 
ATOM      9  C   LIG A   1      -6.030  -2.042 127.043  0.00  0.00    +0.039 A 
ATOM     10  N   LIG A   1      -4.824  -1.908 127.642  0.00  0.00    -0.357 N 
ATOM     11  H   LIG A   1      -4.038  -1.370 127.300  0.00  0.00    +0.166 HD
ATOM     12  C   LIG A   1      -4.856  -2.586 128.840  0.00  0.00    +0.050 A 
ATOM     13  C   LIG A   1      -3.874  -2.660 129.838  0.00  0.00    +0.072 A 
ATOM     14  C   LIG A   1      -4.172  -3.385 130.995  0.00  0.00    +0.122 A 
ATOM     15  C   LIG A   1      -5.412  -4.008 131.136  0.00  0.00    +0.046 A 
ATOM     16  C   LIG A   1      -6.379  -3.944 130.123  0.00  0.00    +0.014 A 
ATOM     17  C   LIG A   1      -6.105  -3.212 128.953  0.00  0.00    +0.003 A 
ATOM     18  C   LIG A   1      -6.541  -1.434 125.804  0.00  0.00    +0.123 C 
ATOM     19  C   LIG A   1      -6.051  -0.443 124.783  0.00  0.00    +0.030 C 
ATOM     20  C   LIG A   1      -7.798  -0.643 126.471  0.00  0.00    +0.082 C 
ENDROOT
BRANCH   1  22
ATOM     21  C   LIG A   1      -8.548   1.956 128.646  0.00  0.00    +0.004 C 
ATOM     22  C   LIG A   1      -8.906   1.567 127.219  0.00  0.00    +0.002 C 
ENDBRANCH   1  22
BRANCH  14  23
ATOM     23  O   LIG A   1      -3.334  -3.501 132.073  0.00  0.00    -0.495 OA
ATOM     24  C   LIG A   1      -3.723  -4.459 133.052  0.00  0.00    +0.277 C 
ENDBRANCH  14  23
BRANCH  18  25
ATOM     25  C   LIG A   1      -6.480  -2.774 124.896  0.00  0.00    +0.321 C 
ATOM     26  O   LIG A   1      -7.361  -3.320 124.224  0.00  0.00    -0.250 OA
BRANCH  25  27
ATOM     27  O   LIG A   1      -5.189  -3.300 124.921  0.00  0.00    -0.467 OA
ATOM     28  C   LIG A   1      -4.721  -3.714 123.631  0.00  0.00    +0.280 C 
ENDBRANCH  25  27
ENDBRANCH  18  25
TORSDOF 4
ENDMDL
MODEL 4
REMARK VINA RESULT:      -7.3      2.613      4.101
REMARK  Name = NuBBE_2406
REMARK  7 active torsions:
REMARK  status: ('A' for Active; 'I' for Inactive)
REMARK    1  A    between atoms: C_1  and  C_2
REMARK    2  A    between atoms: C_2  and  C_3
REMARK    3  A    between atoms: C_18  and  O_19
REMARK    4  A    between atoms: O_19  and  C_20
REMARK    5  A    between atoms: C_24  and  C_25
REMARK    6  A    between atoms: C_25  and  O_27
REMARK    7  A    between atoms: O_27  and  C_28
REMARK                            x       y       z     vdW  Elec       q    Type
REMARK                         _______ _______ _______ _____ _____    ______ ____
ROOT
ATOM      1  C   LIG A   1      -7.900  -1.363 123.823  0.00  0.00    +0.008 C 
ATOM      2  C   LIG A   1      -9.040  -0.534 123.221  0.00  0.00    +0.010 C 
ATOM      3  C   LIG A   1      -9.303   0.588 124.226  0.00  0.00    +0.005 C 
ATOM      4  C   LIG A   1      -7.953   1.495 124.200  0.00  0.00    +0.088 C 
ATOM      5  N   LIG A   1      -6.736   0.696 124.549  0.00  0.00    -0.297 NA
ATOM      6  C   LIG A   1      -5.776   1.181 125.590  0.00  0.00    +0.089 C 
ATOM      7  C   LIG A   1      -5.289   0.268 126.860  0.00  0.00    +0.053 C 
ATOM      8  C   LIG A   1      -6.203  -0.797 127.555  0.00  0.00    -0.017 A 
ATOM      9  C   LIG A   1      -7.549  -1.034 127.271  0.00  0.00    +0.039 A 
ATOM     10  N   LIG A   1      -8.021  -2.069 128.003  0.00  0.00    -0.357 N 
ATOM     11  H   LIG A   1      -8.967  -2.428 127.998  0.00  0.00    +0.166 HD
ATOM     12  C   LIG A   1      -6.978  -2.602 128.727  0.00  0.00    +0.050 A 
ATOM     13  C   LIG A   1      -6.967  -3.731 129.558  0.00  0.00    +0.072 A 
ATOM     14  C   LIG A   1      -5.754  -4.093 130.150  0.00  0.00    +0.122 A 
ATOM     15  C   LIG A   1      -4.601  -3.344 129.911  0.00  0.00    +0.046 A 
ATOM     16  C   LIG A   1      -4.629  -2.205 129.095  0.00  0.00    +0.014 A 
ATOM     17  C   LIG A   1      -5.836  -1.826 128.480  0.00  0.00    +0.003 A 
ATOM     18  C   LIG A   1      -8.229  -0.200 126.266  0.00  0.00    +0.123 C 
ATOM     19  C   LIG A   1      -9.582  -0.158 125.607  0.00  0.00    +0.030 C 
ATOM     20  C   LIG A   1      -7.251  -0.556 125.014  0.00  0.00    +0.082 C 
ENDROOT
BRANCH   1  22
ATOM     21  C   LIG A   1      -5.680  -2.552 123.334  0.00  0.00    +0.004 C 
ATOM     22  C   LIG A   1      -6.847  -1.759 122.764  0.00  0.00    +0.002 C 
ENDBRANCH   1  22
BRANCH  14  23
ATOM     23  O   LIG A   1      -5.578  -5.198 130.941  0.00  0.00    -0.495 OA
ATOM     24  C   LIG A   1      -5.200  -4.934 132.289  0.00  0.00    +0.277 C 
ENDBRANCH  14  23
BRANCH  18  25
ATOM     25  C   LIG A   1      -8.357   1.131 127.179  0.00  0.00    +0.321 C 
ATOM     26  O   LIG A   1      -8.492   2.313 126.847  0.00  0.00    -0.250 OA
BRANCH  25  27
ATOM     27  O   LIG A   1      -8.327   0.781 128.529  0.00  0.00    -0.467 OA
ATOM     28  C   LIG A   1      -8.460   1.904 129.409  0.00  0.00    +0.280 C 
ENDBRANCH  25  27
ENDBRANCH  18  25
TORSDOF 4
ENDMDL
MODEL 5
REMARK VINA RESULT:      -7.3      2.613      7.301
REMARK  Name = NuBBE_2406
REMARK  7 active torsions:
REMARK  status: ('A' for Active; 'I' for Inactive)
REMARK    1  A    between atoms: C_1  and  C_2
REMARK    2  A    between atoms: C_2  and  C_3
REMARK    3  A    between atoms: C_18  and  O_19
REMARK    4  A    between atoms: O_19  and  C_20
REMARK    5  A    between atoms: C_24  and  C_25
REMARK    6  A    between atoms: C_25  and  O_27
REMARK    7  A    between atoms: O_27  and  C_28
REMARK                            x       y       z     vdW  Elec       q    Type
REMARK                         _______ _______ _______ _____ _____    ______ ____
ROOT
ATOM      1  C   LIG A   1      -3.899  -1.165 130.414  0.00  0.00    +0.008 C 
ATOM      2  C   LIG A   1      -3.521  -0.232 131.569  0.00  0.00    +0.010 C 
ATOM      3  C   LIG A   1      -4.821   0.021 132.331  0.00  0.00    +0.005 C 
ATOM      4  C   LIG A   1      -5.224  -1.424 132.961  0.00  0.00    +0.088 C 
ATOM      5  N   LIG A   1      -5.383  -2.471 131.902  0.00  0.00    -0.297 NA
ATOM      6  C   LIG A   1      -6.605  -3.333 131.857  0.00  0.00    +0.089 C 
ATOM      7  C   LIG A   1      -7.523  -3.522 130.514  0.00  0.00    +0.053 C 
ATOM      8  C   LIG A   1      -7.732  -2.394 129.448  0.00  0.00    -0.017 A 
ATOM      9  C   LIG A   1      -7.268  -1.080 129.542  0.00  0.00    +0.039 A 
ATOM     10  N   LIG A   1      -7.559  -0.385 128.418  0.00  0.00    -0.357 N 
ATOM     11  H   LIG A   1      -7.350   0.589 128.242  0.00  0.00    +0.166 HD
ATOM     12  C   LIG A   1      -8.145  -1.244 127.515  0.00  0.00    +0.050 A 
ATOM     13  C   LIG A   1      -8.538  -0.998 126.191  0.00  0.00    +0.072 A 
ATOM     14  C   LIG A   1      -9.073  -2.063 125.461  0.00  0.00    +0.122 A 
ATOM     15  C   LIG A   1      -9.204  -3.322 126.045  0.00  0.00    +0.046 A 
ATOM     16  C   LIG A   1      -8.827  -3.551 127.376  0.00  0.00    +0.014 A 
ATOM     17  C   LIG A   1      -8.277  -2.497 128.129  0.00  0.00    +0.003 A 
ATOM     18  C   LIG A   1      -6.554  -0.656 130.757  0.00  0.00    +0.123 C 
ATOM     19  C   LIG A   1      -5.836   0.578 131.234  0.00  0.00    +0.030 C 
ATOM     20  C   LIG A   1      -5.346  -1.742 130.670  0.00  0.00    +0.082 C 
ENDROOT
BRANCH   1  22
ATOM     21  C   LIG A   1      -3.319  -3.373 129.243  0.00  0.00    +0.004 C 
ATOM     22  C   LIG A   1      -2.863  -2.294 130.214  0.00  0.00    +0.002 C 
ENDBRANCH   1  22
BRANCH  14  23
ATOM     23  O   LIG A   1      -9.450  -1.987 124.146  0.00  0.00    -0.495 OA
ATOM     24  C   LIG A   1      -9.424  -3.217 123.428  0.00  0.00    +0.277 C 
ENDBRANCH  14  23
BRANCH  18  25
ATOM     25  C   LIG A   1      -7.853  -0.574 131.721  0.00  0.00    +0.321 C 
ATOM     26  O   LIG A   1      -8.000  -0.945 132.890  0.00  0.00    -0.250 OA
BRANCH  25  27
ATOM     27  O   LIG A   1      -8.901   0.052 131.047  0.00  0.00    -0.467 OA
ATOM     28  C   LIG A   1      -9.556   1.061 131.827  0.00  0.00    +0.280 C 
ENDBRANCH  25  27
ENDBRANCH  18  25
TORSDOF 4
ENDMDL
MODEL 6
REMARK VINA RESULT:      -7.2      4.027      5.422
REMARK  Name = NuBBE_2406
REMARK  7 active torsions:
REMARK  status: ('A' for Active; 'I' for Inactive)
REMARK    1  A    between atoms: C_1  and  C_2
REMARK    2  A    between atoms: C_2  and  C_3
REMARK    3  A    between atoms: C_18  and  O_19
REMARK    4  A    between atoms: O_19  and  C_20
REMARK    5  A    between atoms: C_24  and  C_25
REMARK    6  A    between atoms: C_25  and  O_27
REMARK    7  A    between atoms: O_27  and  C_28
REMARK                            x       y       z     vdW  Elec       q    Type
REMARK                         _______ _______ _______ _____ _____    ______ ____
ROOT
ATOM      1  C   LIG A   1      -4.362   3.214 126.049  0.00  0.00    +0.008 C 
ATOM      2  C   LIG A   1      -4.400   4.026 124.750  0.00  0.00    +0.010 C 
ATOM      3  C   LIG A   1      -5.879   4.146 124.387  0.00  0.00    +0.005 C 
ATOM      4  C   LIG A   1      -6.526   5.057 125.570  0.00  0.00    +0.088 C 
ATOM      5  N   LIG A   1      -6.322   4.445 126.921  0.00  0.00    -0.297 NA
ATOM      6  C   LIG A   1      -7.471   4.280 127.866  0.00  0.00    +0.089 C 
ATOM      7  C   LIG A   1      -7.846   2.857 128.585  0.00  0.00    +0.053 C 
ATOM      8  C   LIG A   1      -7.621   1.463 127.907  0.00  0.00    -0.017 A 
ATOM      9  C   LIG A   1      -7.183   1.249 126.598  0.00  0.00    +0.039 A 
ATOM     10  N   LIG A   1      -7.026  -0.072 126.352  0.00  0.00    -0.357 N 
ATOM     11  H   LIG A   1      -6.738  -0.492 125.478  0.00  0.00    +0.166 HD
ATOM     12  C   LIG A   1      -7.271  -0.763 127.518  0.00  0.00    +0.050 A 
ATOM     13  C   LIG A   1      -7.151  -2.137 127.770  0.00  0.00    +0.072 A 
ATOM     14  C   LIG A   1      -7.417  -2.588 129.066  0.00  0.00    +0.122 A 
ATOM     15  C   LIG A   1      -7.789  -1.687 130.064  0.00  0.00    +0.046 A 
ATOM     16  C   LIG A   1      -7.927  -0.318 129.794  0.00  0.00    +0.014 A 
ATOM     17  C   LIG A   1      -7.654   0.161 128.500  0.00  0.00    +0.003 A 
ATOM     18  C   LIG A   1      -6.945   2.407 125.722  0.00  0.00    +0.123 C 
ATOM     19  C   LIG A   1      -6.411   2.644 124.334  0.00  0.00    +0.030 C 
ATOM     20  C   LIG A   1      -5.820   3.132 126.648  0.00  0.00    +0.082 C 
ENDROOT
BRANCH   1  22
ATOM     21  C   LIG A   1      -1.962   3.202 126.956  0.00  0.00    +0.004 C 
ATOM     22  C   LIG A   1      -3.359   3.795 127.070  0.00  0.00    +0.002 C 
ENDBRANCH   1  22
BRANCH  14  23
ATOM     23  O   LIG A   1      -7.291  -3.890 129.473  0.00  0.00    -0.495 OA
ATOM     24  C   LIG A   1      -6.150  -4.173 130.277  0.00  0.00    +0.277 C 
ENDBRANCH  14  23
BRANCH  18  25
ATOM     25  C   LIG A   1      -8.501   2.765 125.451  0.00  0.00    +0.321 C 
ATOM     26  O   LIG A   1      -9.039   3.852 125.220  0.00  0.00    -0.250 OA
BRANCH  25  27
ATOM     27  O   LIG A   1      -9.263   1.597 125.476  0.00  0.00    -0.467 OA
ATOM     28  C   LIG A   1     -10.106   1.444 124.327  0.00  0.00    +0.280 C 
ENDBRANCH  25  27
ENDBRANCH  18  25
TORSDOF 4
ENDMDL
MODEL 7
REMARK VINA RESULT:      -7.1      7.591     10.472
REMARK  Name = NuBBE_2406
REMARK  7 active torsions:
REMARK  status: ('A' for Active; 'I' for Inactive)
REMARK    1  A    between atoms: C_1  and  C_2
REMARK    2  A    between atoms: C_2  and  C_3
REMARK    3  A    between atoms: C_18  and  O_19
REMARK    4  A    between atoms: O_19  and  C_20
REMARK    5  A    between atoms: C_24  and  C_25
REMARK    6  A    between atoms: C_25  and  O_27
REMARK    7  A    between atoms: O_27  and  C_28
REMARK                            x       y       z     vdW  Elec       q    Type
REMARK                         _______ _______ _______ _____ _____    ______ ____
ROOT
ATOM      1  C   LIG A   1      -8.255   1.810 130.966  0.00  0.00    +0.008 C 
ATOM      2  C   LIG A   1      -6.795   1.361 130.836  0.00  0.00    +0.010 C 
ATOM      3  C   LIG A   1      -5.958   2.583 131.216  0.00  0.00    +0.005 C 
ATOM      4  C   LIG A   1      -6.272   2.830 132.793  0.00  0.00    +0.088 C 
ATOM      5  N   LIG A   1      -7.733   3.043 133.046  0.00  0.00    -0.297 NA
ATOM      6  C   LIG A   1      -8.205   4.211 133.853  0.00  0.00    +0.089 C 
ATOM      7  C   LIG A   1      -9.351   5.259 133.332  0.00  0.00    +0.053 C 
ATOM      8  C   LIG A   1      -9.543   5.648 131.827  0.00  0.00    -0.017 A 
ATOM      9  C   LIG A   1      -8.723   5.253 130.768  0.00  0.00    +0.039 A 
ATOM     10  N   LIG A   1      -9.210   5.705 129.589  0.00  0.00    -0.357 N 
ATOM     11  H   LIG A   1      -8.794   5.574 128.676  0.00  0.00    +0.166 HD
ATOM     12  C   LIG A   1     -10.411   6.336 129.826  0.00  0.00    +0.050 A 
ATOM     13  C   LIG A   1     -11.316   6.885 128.907  0.00  0.00    +0.072 A 
ATOM     14  C   LIG A   1     -12.500   7.435 129.406  0.00  0.00    +0.122 A 
ATOM     15  C   LIG A   1     -12.757   7.429 130.777  0.00  0.00    +0.046 A 
ATOM     16  C   LIG A   1     -11.835   6.895 131.689  0.00  0.00    +0.014 A 
ATOM     17  C   LIG A   1     -10.640   6.328 131.210  0.00  0.00    +0.003 A 
ATOM     18  C   LIG A   1      -7.532   4.436 131.046  0.00  0.00    +0.123 C 
ATOM     19  C   LIG A   1      -6.463   3.742 130.244  0.00  0.00    +0.030 C 
ATOM     20  C   LIG A   1      -8.305   3.183 131.741  0.00  0.00    +0.082 C 
ENDROOT
BRANCH   1  22
ATOM     21  C   LIG A   1      -8.358  -0.490 132.098  0.00  0.00    +0.004 C 
ATOM     22  C   LIG A   1      -9.135   0.739 131.649  0.00  0.00    +0.002 C 
ENDBRANCH   1  22
BRANCH  14  23
ATOM     23  O   LIG A   1     -13.498   7.958 128.627  0.00  0.00    -0.495 OA
ATOM     24  C   LIG A   1     -13.492   9.376 128.493  0.00  0.00    +0.277 C 
ENDBRANCH  14  23
BRANCH  18  25
ATOM     25  C   LIG A   1      -6.631   5.623 131.681  0.00  0.00    +0.321 C 
ATOM     26  O   LIG A   1      -6.004   5.664 132.744  0.00  0.00    -0.250 OA
BRANCH  25  27
ATOM     27  O   LIG A   1      -6.601   6.709 130.806  0.00  0.00    -0.467 OA
ATOM     28  C   LIG A   1      -5.295   7.283 130.660  0.00  0.00    +0.280 C 
ENDBRANCH  25  27
ENDBRANCH  18  25
TORSDOF 4
ENDMDL
MODEL 8
REMARK VINA RESULT:      -7.1      6.844      9.028
REMARK  Name = NuBBE_2406
REMARK  7 active torsions:
REMARK  status: ('A' for Active; 'I' for Inactive)
REMARK    1  A    between atoms: C_1  and  C_2
REMARK    2  A    between atoms: C_2  and  C_3
REMARK    3  A    between atoms: C_18  and  O_19
REMARK    4  A    between atoms: O_19  and  C_20
REMARK    5  A    between atoms: C_24  and  C_25
REMARK    6  A    between atoms: C_25  and  O_27
REMARK    7  A    between atoms: O_27  and  C_28
REMARK                            x       y       z     vdW  Elec       q    Type
REMARK                         _______ _______ _______ _____ _____    ______ ____
ROOT
ATOM      1  C   LIG A   1     -10.165   6.451 129.276  0.00  0.00    +0.008 C 
ATOM      2  C   LIG A   1     -11.496   5.980 129.871  0.00  0.00    +0.010 C 
ATOM      3  C   LIG A   1     -11.123   4.978 130.963  0.00  0.00    +0.005 C 
ATOM      4  C   LIG A   1     -10.350   5.859 132.091  0.00  0.00    +0.088 C 
ATOM      5  N   LIG A   1      -9.151   6.558 131.530  0.00  0.00    -0.297 NA
ATOM      6  C   LIG A   1      -7.822   6.461 132.211  0.00  0.00    +0.089 C 
ATOM      7  C   LIG A   1      -6.448   6.012 131.442  0.00  0.00    +0.053 C 
ATOM      8  C   LIG A   1      -6.420   4.987 130.257  0.00  0.00    -0.017 A 
ATOM      9  C   LIG A   1      -7.509   4.257 129.779  0.00  0.00    +0.039 A 
ATOM     10  N   LIG A   1      -7.157   3.517 128.702  0.00  0.00    -0.357 N 
ATOM     11  H   LIG A   1      -7.755   2.887 128.183  0.00  0.00    +0.166 HD
ATOM     12  C   LIG A   1      -5.848   3.804 128.386  0.00  0.00    +0.050 A 
ATOM     13  C   LIG A   1      -5.081   3.347 127.305  0.00  0.00    +0.072 A 
ATOM     14  C   LIG A   1      -3.775   3.828 127.181  0.00  0.00    +0.122 A 
ATOM     15  C   LIG A   1      -3.267   4.735 128.111  0.00  0.00    +0.046 A 
ATOM     16  C   LIG A   1      -4.036   5.169 129.200  0.00  0.00    +0.014 A 
ATOM     17  C   LIG A   1      -5.358   4.706 129.341  0.00  0.00    +0.003 A 
ATOM     18  C   LIG A   1      -8.814   4.393 130.445  0.00  0.00    +0.123 C 
ATOM     19  C   LIG A   1     -10.217   3.891 130.228  0.00  0.00    +0.030 C 
ATOM     20  C   LIG A   1      -8.988   5.996 130.224  0.00  0.00    +0.082 C 
ENDROOT
BRANCH   1  22
ATOM     21  C   LIG A   1     -10.809   8.397 127.732  0.00  0.00    +0.004 C 
ATOM     22  C   LIG A   1     -10.143   7.977 129.034  0.00  0.00    +0.002 C 
ENDBRANCH   1  22
BRANCH  14  23
ATOM     23  O   LIG A   1      -2.928   3.513 126.151  0.00  0.00    -0.495 OA
ATOM     24  C   LIG A   1      -1.635   3.059 126.538  0.00  0.00    +0.277 C 
ENDBRANCH  14  23
BRANCH  18  25
ATOM     25  C   LIG A   1      -8.445   3.529 131.764  0.00  0.00    +0.321 C 
ATOM     26  O   LIG A   1      -8.677   3.756 132.955  0.00  0.00    -0.250 OA
BRANCH  25  27
ATOM     27  O   LIG A   1      -7.790   2.356 131.389  0.00  0.00    -0.467 OA
ATOM     28  C   LIG A   1      -8.264   1.195 132.084  0.00  0.00    +0.280 C 
ENDBRANCH  25  27
ENDBRANCH  18  25
TORSDOF 4
ENDMDL
MODEL 9
REMARK VINA RESULT:      -7.1      3.371      5.501
REMARK  Name = NuBBE_2406
REMARK  7 active torsions:
REMARK  status: ('A' for Active; 'I' for Inactive)
REMARK    1  A    between atoms: C_1  and  C_2
REMARK    2  A    between atoms: C_2  and  C_3
REMARK    3  A    between atoms: C_18  and  O_19
REMARK    4  A    between atoms: O_19  and  C_20
REMARK    5  A    between atoms: C_24  and  C_25
REMARK    6  A    between atoms: C_25  and  O_27
REMARK    7  A    between atoms: O_27  and  C_28
REMARK                            x       y       z     vdW  Elec       q    Type
REMARK                         _______ _______ _______ _____ _____    ______ ____
ROOT
ATOM      1  C   LIG A   1      -8.102  -2.570 127.699  0.00  0.00    +0.008 C 
ATOM      2  C   LIG A   1      -9.250  -3.408 127.127  0.00  0.00    +0.010 C 
ATOM      3  C   LIG A   1      -9.328  -3.038 125.647  0.00  0.00    +0.005 C 
ATOM      4  C   LIG A   1      -7.936  -3.585 125.006  0.00  0.00    +0.088 C 
ATOM      5  N   LIG A   1      -6.738  -2.988 125.678  0.00  0.00    -0.297 NA
ATOM      6  C   LIG A   1      -5.638  -2.371 124.871  0.00  0.00    +0.089 C 
ATOM      7  C   LIG A   1      -5.068  -0.859 125.137  0.00  0.00    +0.053 C 
ATOM      8  C   LIG A   1      -5.960   0.320 125.652  0.00  0.00    -0.017 A 
ATOM      9  C   LIG A   1      -7.342   0.278 125.847  0.00  0.00    +0.039 A 
ATOM     10  N   LIG A   1      -7.790   1.444 126.367  0.00  0.00    -0.357 N 
ATOM     11  H   LIG A   1      -8.751   1.677 126.583  0.00  0.00    +0.166 HD
ATOM     12  C   LIG A   1      -6.706   2.257 126.611  0.00  0.00    +0.050 A 
ATOM     13  C   LIG A   1      -6.669   3.520 127.220  0.00  0.00    +0.072 A 
ATOM     14  C   LIG A   1      -5.422   4.125 127.393  0.00  0.00    +0.122 A 
ATOM     15  C   LIG A   1      -4.260   3.479 126.971  0.00  0.00    +0.046 A 
ATOM     16  C   LIG A   1      -4.310   2.225 126.345  0.00  0.00    +0.014 A 
ATOM     17  C   LIG A   1      -5.554   1.592 126.167  0.00  0.00    +0.003 A 
ATOM     18  C   LIG A   1      -8.079  -0.950 125.508  0.00  0.00    +0.123 C 
ATOM     19  C   LIG A   1      -9.493  -1.452 125.630  0.00  0.00    +0.030 C 
ATOM     20  C   LIG A   1      -7.273  -1.951 126.507  0.00  0.00    +0.082 C 
ENDROOT
BRANCH   1  22
ATOM     21  C   LIG A   1      -7.573  -3.234 130.120  0.00  0.00    +0.004 C 
ATOM     22  C   LIG A   1      -7.203  -3.388 128.653  0.00  0.00    +0.002 C 
ENDBRANCH   1  22
BRANCH  14  23
ATOM     23  O   LIG A   1      -5.226   5.329 128.017  0.00  0.00    -0.495 OA
ATOM     24  C   LIG A   1      -3.888   5.819 127.999  0.00  0.00    +0.277 C 
ENDBRANCH  14  23
BRANCH  18  25
ATOM     25  C   LIG A   1      -8.020  -0.768 123.900  0.00  0.00    +0.321 C 
ATOM     26  O   LIG A   1      -7.808  -1.600 123.012  0.00  0.00    -0.250 OA
BRANCH  25  27
ATOM     27  O   LIG A   1      -8.290   0.559 123.566  0.00  0.00    -0.467 OA
ATOM     28  C   LIG A   1      -9.576   0.742 122.960  0.00  0.00    +0.280 C 
ENDBRANCH  25  27
ENDBRANCH  18  25
TORSDOF 4
ENDMDL
