MODEL 1
REMARK VINA RESULT:      -5.5      0.000      0.000
REMARK  Name = NuBBE_40
REMARK  8 active torsions:
REMARK  status: ('A' for Active; 'I' for Inactive)
REMARK    1  A    between atoms: C_1  and  C_2
REMARK    2  A    between atoms: C_2  and  C_3
REMARK    3  A    between atoms: C_3  and  C_4
REMARK    4  A    between atoms: C_4  and  C_5
REMARK    5  A    between atoms: C_6  and  C_7
REMARK    6  A    between atoms: C_6  and  C_8
REMARK    7  A    between atoms: C_9  and  C_10
REMARK    8  A    between atoms: C_10  and  N_11
REMARK                            x       y       z     vdW  Elec       q    Type
REMARK                         _______ _______ _______ _____ _____    ______ ____
ROOT
ATOM      1  C   LIG A   1      -7.960  -0.736 127.042  0.00  0.00    +0.038 C 
ATOM      2  C   LIG A   1      -8.802  -1.028 125.830  0.00  0.00    -0.073 C 
ATOM      3  C   LIG A   1      -9.094  -0.102 124.892  0.00  0.00    +0.012 C 
ENDROOT
BRANCH   2   4
ATOM      4  C   LIG A   1      -9.305  -2.456 125.689  0.00  0.00    +0.034 C 
BRANCH   4   5
ATOM      5  C   LIG A   1      -8.859  -3.127 124.379  0.00  0.00    +0.031 C 
BRANCH   5   6
ATOM      6  C   LIG A   1      -7.416  -3.566 124.419  0.00  0.00    -0.028 C 
ATOM      7  C   LIG A   1      -6.364  -2.996 123.797  0.00  0.00    -0.080 C 
ATOM      8  C   LIG A   1      -6.425  -1.776 122.918  0.00  0.00    +0.038 C 
ATOM      9  C   LIG A   1      -4.977  -3.572 123.940  0.00  0.00    +0.038 C 
ENDBRANCH   5   6
ENDBRANCH   4   5
ENDBRANCH   2   4
BRANCH   3  10
ATOM     10  C   LIG A   1      -8.632   1.328 124.827  0.00  0.00    +0.271 C 
BRANCH  10  11
ATOM     11  N   LIG A   1      -8.849   1.800 123.460  0.00  0.00    -0.110 NA
ATOM     12  C   LIG A   1      -8.369   2.925 123.107  0.00  0.00    +0.377 C 
ATOM     13  N   LIG A   1      -7.639   3.828 123.801  0.00  0.00    -0.289 N 
ATOM     14  N   LIG A   1      -8.581   3.383 121.852  0.00  0.00    -0.289 N 
ATOM     15  H   LIG A   1      -7.255   3.480 124.670  0.00  0.00    +0.255 HD
ATOM     16  H   LIG A   1      -6.918   4.251 123.229  0.00  0.00    +0.255 HD
ATOM     17  H   LIG A   1      -9.270   2.800 121.386  0.00  0.00    +0.255 HD
ATOM     18  H   LIG A   1      -8.864   4.355 121.835  0.00  0.00    +0.255 HD
ENDBRANCH  10  11
ENDBRANCH   3  10
TORSDOF 5
ENDMDL
MODEL 2
REMARK VINA RESULT:      -5.4      7.888      9.730
REMARK  Name = NuBBE_40
REMARK  8 active torsions:
REMARK  status: ('A' for Active; 'I' for Inactive)
REMARK    1  A    between atoms: C_1  and  C_2
REMARK    2  A    between atoms: C_2  and  C_3
REMARK    3  A    between atoms: C_3  and  C_4
REMARK    4  A    between atoms: C_4  and  C_5
REMARK    5  A    between atoms: C_6  and  C_7
REMARK    6  A    between atoms: C_6  and  C_8
REMARK    7  A    between atoms: C_9  and  C_10
REMARK    8  A    between atoms: C_10  and  N_11
REMARK                            x       y       z     vdW  Elec       q    Type
REMARK                         _______ _______ _______ _____ _____    ______ ____
ROOT
ATOM      1  C   LIG A   1      -9.379   7.109 130.366  0.00  0.00    +0.038 C 
ATOM      2  C   LIG A   1     -10.404   6.427 131.229  0.00  0.00    -0.073 C 
ATOM      3  C   LIG A   1     -11.670   6.187 130.826  0.00  0.00    +0.012 C 
ENDROOT
BRANCH   2   4
ATOM      4  C   LIG A   1      -9.936   5.985 132.607  0.00  0.00    +0.034 C 
BRANCH   4   5
ATOM      5  C   LIG A   1      -8.736   5.024 132.557  0.00  0.00    +0.031 C 
BRANCH   5   6
ATOM      6  C   LIG A   1      -9.152   3.578 132.661  0.00  0.00    -0.028 C 
ATOM      7  C   LIG A   1      -9.428   2.726 131.652  0.00  0.00    -0.080 C 
ATOM      8  C   LIG A   1      -9.372   3.061 130.186  0.00  0.00    +0.038 C 
ATOM      9  C   LIG A   1      -9.840   1.302 131.934  0.00  0.00    +0.038 C 
ENDBRANCH   5   6
ENDBRANCH   4   5
ENDBRANCH   2   4
BRANCH   3  10
ATOM     10  C   LIG A   1     -12.287   6.487 129.487  0.00  0.00    +0.271 C 
BRANCH  10  11
ATOM     11  N   LIG A   1     -12.920   7.802 129.579  0.00  0.00    -0.110 NA
ATOM     12  C   LIG A   1     -12.448   8.769 128.899  0.00  0.00    +0.377 C 
ATOM     13  N   LIG A   1     -11.402   8.813 128.042  0.00  0.00    -0.289 N 
ATOM     14  N   LIG A   1     -13.009   9.996 128.992  0.00  0.00    -0.289 N 
ATOM     15  H   LIG A   1     -11.058   7.908 127.749  0.00  0.00    +0.255 HD
ATOM     16  H   LIG A   1     -11.594   9.404 127.241  0.00  0.00    +0.255 HD
ATOM     17  H   LIG A   1     -13.675  10.010 129.759  0.00  0.00    +0.255 HD
ATOM     18  H   LIG A   1     -12.322  10.732 129.099  0.00  0.00    +0.255 HD
ENDBRANCH  10  11
ENDBRANCH   3  10
TORSDOF 5
ENDMDL
MODEL 3
REMARK VINA RESULT:      -5.3      3.108      4.450
REMARK  Name = NuBBE_40
REMARK  8 active torsions:
REMARK  status: ('A' for Active; 'I' for Inactive)
REMARK    1  A    between atoms: C_1  and  C_2
REMARK    2  A    between atoms: C_2  and  C_3
REMARK    3  A    between atoms: C_3  and  C_4
REMARK    4  A    between atoms: C_4  and  C_5
REMARK    5  A    between atoms: C_6  and  C_7
REMARK    6  A    between atoms: C_6  and  C_8
REMARK    7  A    between atoms: C_9  and  C_10
REMARK    8  A    between atoms: C_10  and  N_11
REMARK                            x       y       z     vdW  Elec       q    Type
REMARK                         _______ _______ _______ _____ _____    ______ ____
ROOT
ATOM      1  C   LIG A   1      -6.941  -2.551 125.937  0.00  0.00    +0.038 C 
ATOM      2  C   LIG A   1      -8.330  -3.116 126.062  0.00  0.00    -0.073 C 
ATOM      3  C   LIG A   1      -9.158  -3.284 125.008  0.00  0.00    +0.012 C 
ENDROOT
BRANCH   2   4
ATOM      4  C   LIG A   1      -8.767  -3.524 127.460  0.00  0.00    +0.034 C 
BRANCH   4   5
ATOM      5  C   LIG A   1      -8.044  -2.744 128.571  0.00  0.00    +0.031 C 
BRANCH   5   6
ATOM      6  C   LIG A   1      -7.376  -3.654 129.572  0.00  0.00    -0.028 C 
ATOM      7  C   LIG A   1      -6.057  -3.762 129.834  0.00  0.00    -0.080 C 
ATOM      8  C   LIG A   1      -4.966  -2.975 129.162  0.00  0.00    +0.038 C 
ATOM      9  C   LIG A   1      -5.553  -4.736 130.871  0.00  0.00    +0.038 C 
ENDBRANCH   5   6
ENDBRANCH   4   5
ENDBRANCH   2   4
BRANCH   3  10
ATOM     10  C   LIG A   1      -8.877  -3.005 123.557  0.00  0.00    +0.271 C 
BRANCH  10  11
ATOM     11  N   LIG A   1      -9.713  -1.874 123.157  0.00  0.00    -0.110 NA
ATOM     12  C   LIG A   1      -9.192  -0.716 123.067  0.00  0.00    +0.377 C 
ATOM     13  N   LIG A   1      -7.921  -0.304 123.279  0.00  0.00    -0.289 N 
ATOM     14  N   LIG A   1      -9.959   0.343 122.720  0.00  0.00    -0.289 N 
ATOM     15  H   LIG A   1      -7.240  -1.050 123.334  0.00  0.00    +0.255 HD
ATOM     16  H   LIG A   1      -7.635   0.400 122.609  0.00  0.00    +0.255 HD
ATOM     17  H   LIG A   1     -10.939   0.075 122.733  0.00  0.00    +0.255 HD
ATOM     18  H   LIG A   1      -9.800   1.150 123.311  0.00  0.00    +0.255 HD
ENDBRANCH  10  11
ENDBRANCH   3  10
TORSDOF 5
ENDMDL
MODEL 4
REMARK VINA RESULT:      -5.3      4.020      5.128
REMARK  Name = NuBBE_40
REMARK  8 active torsions:
REMARK  status: ('A' for Active; 'I' for Inactive)
REMARK    1  A    between atoms: C_1  and  C_2
REMARK    2  A    between atoms: C_2  and  C_3
REMARK    3  A    between atoms: C_3  and  C_4
REMARK    4  A    between atoms: C_4  and  C_5
REMARK    5  A    between atoms: C_6  and  C_7
REMARK    6  A    between atoms: C_6  and  C_8
REMARK    7  A    between atoms: C_9  and  C_10
REMARK    8  A    between atoms: C_10  and  N_11
REMARK                            x       y       z     vdW  Elec       q    Type
REMARK                         _______ _______ _______ _____ _____    ______ ____
ROOT
ATOM      1  C   LIG A   1      -8.190  -1.084 126.517  0.00  0.00    +0.038 C 
ATOM      2  C   LIG A   1      -8.503  -2.515 126.859  0.00  0.00    -0.073 C 
ATOM      3  C   LIG A   1      -8.114  -3.103 128.010  0.00  0.00    +0.012 C 
ENDROOT
BRANCH   2   4
ATOM      4  C   LIG A   1      -9.321  -3.287 125.835  0.00  0.00    +0.034 C 
BRANCH   4   5
ATOM      5  C   LIG A   1      -8.740  -3.208 124.414  0.00  0.00    +0.031 C 
BRANCH   5   6
ATOM      6  C   LIG A   1      -7.304  -3.665 124.353  0.00  0.00    -0.028 C 
ATOM      7  C   LIG A   1      -6.275  -3.066 123.718  0.00  0.00    -0.080 C 
ATOM      8  C   LIG A   1      -6.362  -1.790 122.925  0.00  0.00    +0.038 C 
ATOM      9  C   LIG A   1      -4.891  -3.666 123.752  0.00  0.00    +0.038 C 
ENDBRANCH   5   6
ENDBRANCH   4   5
ENDBRANCH   2   4
BRANCH   3  10
ATOM     10  C   LIG A   1      -7.366  -2.483 129.159  0.00  0.00    +0.271 C 
BRANCH  10  11
ATOM     11  N   LIG A   1      -6.073  -3.160 129.260  0.00  0.00    -0.110 NA
ATOM     12  C   LIG A   1      -5.035  -2.593 128.789  0.00  0.00    +0.377 C 
ATOM     13  N   LIG A   1      -4.888  -1.396 128.177  0.00  0.00    -0.289 N 
ATOM     14  N   LIG A   1      -3.838  -3.218 128.854  0.00  0.00    -0.289 N 
ATOM     15  H   LIG A   1      -5.680  -0.774 128.272  0.00  0.00    +0.255 HD
ATOM     16  H   LIG A   1      -4.029  -0.934 128.451  0.00  0.00    +0.255 HD
ATOM     17  H   LIG A   1      -3.970  -4.182 129.149  0.00  0.00    +0.255 HD
ATOM     18  H   LIG A   1      -3.328  -3.178 127.980  0.00  0.00    +0.255 HD
ENDBRANCH  10  11
ENDBRANCH   3  10
TORSDOF 5
ENDMDL
MODEL 5
REMARK VINA RESULT:      -5.2      1.458      2.203
REMARK  Name = NuBBE_40
REMARK  8 active torsions:
REMARK  status: ('A' for Active; 'I' for Inactive)
REMARK    1  A    between atoms: C_1  and  C_2
REMARK    2  A    between atoms: C_2  and  C_3
REMARK    3  A    between atoms: C_3  and  C_4
REMARK    4  A    between atoms: C_4  and  C_5
REMARK    5  A    between atoms: C_6  and  C_7
REMARK    6  A    between atoms: C_6  and  C_8
REMARK    7  A    between atoms: C_9  and  C_10
REMARK    8  A    between atoms: C_10  and  N_11
REMARK                            x       y       z     vdW  Elec       q    Type
REMARK                         _______ _______ _______ _____ _____    ______ ____
ROOT
ATOM      1  C   LIG A   1      -8.759  -0.792 125.333  0.00  0.00    +0.038 C 
ATOM      2  C   LIG A   1      -8.723  -0.598 123.842  0.00  0.00    -0.073 C 
ATOM      3  C   LIG A   1      -9.231   0.490 123.225  0.00  0.00    +0.012 C 
ENDROOT
BRANCH   2   4
ATOM      4  C   LIG A   1      -8.048  -1.698 123.037  0.00  0.00    +0.034 C 
BRANCH   4   5
ATOM      5  C   LIG A   1      -6.586  -1.378 122.685  0.00  0.00    +0.031 C 
BRANCH   5   6
ATOM      6  C   LIG A   1      -5.697  -2.595 122.757  0.00  0.00    -0.028 C 
ATOM      7  C   LIG A   1      -5.199  -3.187 123.862  0.00  0.00    -0.080 C 
ATOM      8  C   LIG A   1      -5.441  -2.738 125.277  0.00  0.00    +0.038 C 
ATOM      9  C   LIG A   1      -4.313  -4.404 123.754  0.00  0.00    +0.038 C 
ENDBRANCH   5   6
ENDBRANCH   4   5
ENDBRANCH   2   4
BRANCH   3  10
ATOM     10  C   LIG A   1      -9.868   1.699 123.854  0.00  0.00    +0.271 C 
BRANCH  10  11
ATOM     11  N   LIG A   1      -8.976   2.835 123.627  0.00  0.00    -0.110 NA
ATOM     12  C   LIG A   1      -8.242   3.250 124.580  0.00  0.00    +0.377 C 
ATOM     13  N   LIG A   1      -8.115   2.806 125.852  0.00  0.00    -0.289 N 
ATOM     14  N   LIG A   1      -7.428   4.315 124.390  0.00  0.00    -0.289 N 
ATOM     15  H   LIG A   1      -8.520   1.894 126.021  0.00  0.00    +0.255 HD
ATOM     16  H   LIG A   1      -7.154   2.841 126.171  0.00  0.00    +0.255 HD
ATOM     17  H   LIG A   1      -7.648   4.758 123.503  0.00  0.00    +0.255 HD
ATOM     18  H   LIG A   1      -7.480   4.984 125.148  0.00  0.00    +0.255 HD
ENDBRANCH  10  11
ENDBRANCH   3  10
TORSDOF 5
ENDMDL
MODEL 6
REMARK VINA RESULT:      -5.1      3.158      3.572
REMARK  Name = NuBBE_40
REMARK  8 active torsions:
REMARK  status: ('A' for Active; 'I' for Inactive)
REMARK    1  A    between atoms: C_1  and  C_2
REMARK    2  A    between atoms: C_2  and  C_3
REMARK    3  A    between atoms: C_3  and  C_4
REMARK    4  A    between atoms: C_4  and  C_5
REMARK    5  A    between atoms: C_6  and  C_7
REMARK    6  A    between atoms: C_6  and  C_8
REMARK    7  A    between atoms: C_9  and  C_10
REMARK    8  A    between atoms: C_10  and  N_11
REMARK                            x       y       z     vdW  Elec       q    Type
REMARK                         _______ _______ _______ _____ _____    ______ ____
ROOT
ATOM      1  C   LIG A   1      -7.940  -3.177 128.631  0.00  0.00    +0.038 C 
ATOM      2  C   LIG A   1      -8.273  -2.604 127.281  0.00  0.00    -0.073 C 
ATOM      3  C   LIG A   1      -8.154  -1.292 126.983  0.00  0.00    +0.012 C 
ENDROOT
BRANCH   2   4
ATOM      4  C   LIG A   1      -8.738  -3.596 126.226  0.00  0.00    +0.034 C 
BRANCH   4   5
ATOM      5  C   LIG A   1      -8.313  -3.206 124.800  0.00  0.00    +0.031 C 
BRANCH   5   6
ATOM      6  C   LIG A   1      -7.036  -3.886 124.374  0.00  0.00    -0.028 C 
ATOM      7  C   LIG A   1      -5.816  -3.330 124.225  0.00  0.00    -0.080 C 
ATOM      8  C   LIG A   1      -5.482  -1.883 124.463  0.00  0.00    +0.038 C 
ATOM      9  C   LIG A   1      -4.637  -4.160 123.781  0.00  0.00    +0.038 C 
ENDBRANCH   5   6
ENDBRANCH   4   5
ENDBRANCH   2   4
BRANCH   3  10
ATOM     10  C   LIG A   1      -7.649  -0.185 127.867  0.00  0.00    +0.271 C 
BRANCH  10  11
ATOM     11  N   LIG A   1      -6.699   0.605 127.085  0.00  0.00    -0.110 NA
ATOM     12  C   LIG A   1      -5.451   0.458 127.289  0.00  0.00    +0.377 C 
ATOM     13  N   LIG A   1      -4.788  -0.351 128.147  0.00  0.00    -0.289 N 
ATOM     14  N   LIG A   1      -4.562   1.199 126.588  0.00  0.00    -0.289 N 
ATOM     15  H   LIG A   1      -5.353  -1.084 128.555  0.00  0.00    +0.255 HD
ATOM     16  H   LIG A   1      -3.944  -0.730 127.733  0.00  0.00    +0.255 HD
ATOM     17  H   LIG A   1      -5.052   1.927 126.076  0.00  0.00    +0.255 HD
ATOM     18  H   LIG A   1      -3.839   1.598 127.174  0.00  0.00    +0.255 HD
ENDBRANCH  10  11
ENDBRANCH   3  10
TORSDOF 5
ENDMDL
MODEL 7
REMARK VINA RESULT:      -5.1      5.374      6.574
REMARK  Name = NuBBE_40
REMARK  8 active torsions:
REMARK  status: ('A' for Active; 'I' for Inactive)
REMARK    1  A    between atoms: C_1  and  C_2
REMARK    2  A    between atoms: C_2  and  C_3
REMARK    3  A    between atoms: C_3  and  C_4
REMARK    4  A    between atoms: C_4  and  C_5
REMARK    5  A    between atoms: C_6  and  C_7
REMARK    6  A    between atoms: C_6  and  C_8
REMARK    7  A    between atoms: C_9  and  C_10
REMARK    8  A    between atoms: C_10  and  N_11
REMARK                            x       y       z     vdW  Elec       q    Type
REMARK                         _______ _______ _______ _____ _____    ______ ____
ROOT
ATOM      1  C   LIG A   1      -8.030  -1.752 129.203  0.00  0.00    +0.038 C 
ATOM      2  C   LIG A   1      -7.824  -3.235 129.058  0.00  0.00    -0.073 C 
ATOM      3  C   LIG A   1      -6.826  -3.906 129.671  0.00  0.00    +0.012 C 
ENDROOT
BRANCH   2   4
ATOM      4  C   LIG A   1      -8.831  -3.972 128.189  0.00  0.00    +0.034 C 
BRANCH   4   5
ATOM      5  C   LIG A   1      -9.121  -3.255 126.860  0.00  0.00    +0.031 C 
BRANCH   5   6
ATOM      6  C   LIG A   1      -7.908  -3.186 125.967  0.00  0.00    -0.028 C 
ATOM      7  C   LIG A   1      -7.878  -3.161 124.618  0.00  0.00    -0.080 C 
ATOM      8  C   LIG A   1      -9.082  -3.197 123.718  0.00  0.00    +0.038 C 
ATOM      9  C   LIG A   1      -6.566  -3.097 123.875  0.00  0.00    +0.038 C 
ENDBRANCH   5   6
ENDBRANCH   4   5
ENDBRANCH   2   4
BRANCH   3  10
ATOM     10  C   LIG A   1      -5.787  -3.363 130.614  0.00  0.00    +0.271 C 
BRANCH  10  11
ATOM     11  N   LIG A   1      -4.633  -2.957 129.811  0.00  0.00    -0.110 NA
ATOM     12  C   LIG A   1      -3.536  -2.680 130.395  0.00  0.00    +0.377 C 
ATOM     13  N   LIG A   1      -3.208  -2.698 131.707  0.00  0.00    -0.289 N 
ATOM     14  N   LIG A   1      -2.468  -2.281 129.666  0.00  0.00    -0.289 N 
ATOM     15  H   LIG A   1      -3.869  -3.182 132.300  0.00  0.00    +0.255 HD
ATOM     16  H   LIG A   1      -2.267  -3.042 131.857  0.00  0.00    +0.255 HD
ATOM     17  H   LIG A   1      -2.756  -2.096 128.710  0.00  0.00    +0.255 HD
ATOM     18  H   LIG A   1      -2.005  -1.473 130.064  0.00  0.00    +0.255 HD
ENDBRANCH  10  11
ENDBRANCH   3  10
TORSDOF 5
ENDMDL
MODEL 8
REMARK VINA RESULT:      -5.0      4.102      5.523
REMARK  Name = NuBBE_40
REMARK  8 active torsions:
REMARK  status: ('A' for Active; 'I' for Inactive)
REMARK    1  A    between atoms: C_1  and  C_2
REMARK    2  A    between atoms: C_2  and  C_3
REMARK    3  A    between atoms: C_3  and  C_4
REMARK    4  A    between atoms: C_4  and  C_5
REMARK    5  A    between atoms: C_6  and  C_7
REMARK    6  A    between atoms: C_6  and  C_8
REMARK    7  A    between atoms: C_9  and  C_10
REMARK    8  A    between atoms: C_10  and  N_11
REMARK                            x       y       z     vdW  Elec       q    Type
REMARK                         _______ _______ _______ _____ _____    ______ ____
ROOT
ATOM      1  C   LIG A   1      -7.530  -0.986 128.996  0.00  0.00    +0.038 C 
ATOM      2  C   LIG A   1      -7.953  -2.399 128.701  0.00  0.00    -0.073 C 
ATOM      3  C   LIG A   1      -8.396  -2.801 127.491  0.00  0.00    +0.012 C 
ENDROOT
BRANCH   2   4
ATOM      4  C   LIG A   1      -7.833  -3.390 129.848  0.00  0.00    +0.034 C 
BRANCH   4   5
ATOM      5  C   LIG A   1      -6.540  -3.218 130.663  0.00  0.00    +0.031 C 
BRANCH   5   6
ATOM      6  C   LIG A   1      -5.330  -3.762 129.945  0.00  0.00    -0.028 C 
ATOM      7  C   LIG A   1      -4.162  -3.133 129.705  0.00  0.00    -0.080 C 
ATOM      8  C   LIG A   1      -3.828  -1.725 130.119  0.00  0.00    +0.038 C 
ATOM      9  C   LIG A   1      -3.048  -3.827 128.960  0.00  0.00    +0.038 C 
ENDBRANCH   5   6
ENDBRANCH   4   5
ENDBRANCH   2   4
BRANCH   3  10
ATOM     10  C   LIG A   1      -8.516  -1.986 126.231  0.00  0.00    +0.271 C 
BRANCH  10  11
ATOM     11  N   LIG A   1      -9.480  -2.660 125.361  0.00  0.00    -0.110 NA
ATOM     12  C   LIG A   1      -9.136  -2.972 124.176  0.00  0.00    +0.377 C 
ATOM     13  N   LIG A   1      -7.964  -2.793 123.524  0.00  0.00    -0.289 N 
ATOM     14  N   LIG A   1     -10.025  -3.575 123.353  0.00  0.00    -0.289 N 
ATOM     15  H   LIG A   1      -7.184  -2.547 124.119  0.00  0.00    +0.255 HD
ATOM     16  H   LIG A   1      -7.735  -3.585 122.934  0.00  0.00    +0.255 HD
ATOM     17  H   LIG A   1     -10.950  -3.551 123.773  0.00  0.00    +0.255 HD
ATOM     18  H   LIG A   1     -10.040  -3.164 122.428  0.00  0.00    +0.255 HD
ENDBRANCH  10  11
ENDBRANCH   3  10
TORSDOF 5
ENDMDL
MODEL 9
REMARK VINA RESULT:      -4.9      1.478      2.195
REMARK  Name = NuBBE_40
REMARK  8 active torsions:
REMARK  status: ('A' for Active; 'I' for Inactive)
REMARK    1  A    between atoms: C_1  and  C_2
REMARK    2  A    between atoms: C_2  and  C_3
REMARK    3  A    between atoms: C_3  and  C_4
REMARK    4  A    between atoms: C_4  and  C_5
REMARK    5  A    between atoms: C_6  and  C_7
REMARK    6  A    between atoms: C_6  and  C_8
REMARK    7  A    between atoms: C_9  and  C_10
REMARK    8  A    between atoms: C_10  and  N_11
REMARK                            x       y       z     vdW  Elec       q    Type
REMARK                         _______ _______ _______ _____ _____    ______ ____
ROOT
ATOM      1  C   LIG A   1      -9.377  -2.977 125.845  0.00  0.00    +0.038 C 
ATOM      2  C   LIG A   1      -8.199  -2.067 125.628  0.00  0.00    -0.073 C 
ATOM      3  C   LIG A   1      -8.159  -1.126 124.661  0.00  0.00    +0.012 C 
ENDROOT
BRANCH   2   4
ATOM      4  C   LIG A   1      -7.031  -2.239 126.587  0.00  0.00    +0.034 C 
BRANCH   4   5
ATOM      5  C   LIG A   1      -5.667  -1.969 125.931  0.00  0.00    +0.031 C 
BRANCH   5   6
ATOM      6  C   LIG A   1      -5.083  -3.203 125.287  0.00  0.00    -0.028 C 
ATOM      7  C   LIG A   1      -4.984  -3.476 123.970  0.00  0.00    -0.080 C 
ATOM      8  C   LIG A   1      -5.448  -2.579 122.855  0.00  0.00    +0.038 C 
ATOM      9  C   LIG A   1      -4.375  -4.772 123.493  0.00  0.00    +0.038 C 
ENDBRANCH   5   6
ENDBRANCH   4   5
ENDBRANCH   2   4
BRANCH   3  10
ATOM     10  C   LIG A   1      -9.236  -0.768 123.673  0.00  0.00    +0.271 C 
BRANCH  10  11
ATOM     11  N   LIG A   1      -8.805   0.441 122.971  0.00  0.00    -0.110 NA
ATOM     12  C   LIG A   1      -9.353   1.554 123.255  0.00  0.00    +0.377 C 
ATOM     13  N   LIG A   1     -10.321   1.856 124.151  0.00  0.00    -0.289 N 
ATOM     14  N   LIG A   1      -8.980   2.676 122.597  0.00  0.00    -0.289 N 
ATOM     15  H   LIG A   1     -10.508   1.129 124.829  0.00  0.00    +0.255 HD
ATOM     16  H   LIG A   1     -10.149   2.743 124.609  0.00  0.00    +0.255 HD
ATOM     17  H   LIG A   1      -8.388   2.429 121.809  0.00  0.00    +0.255 HD
ATOM     18  H   LIG A   1      -9.771   3.230 122.292  0.00  0.00    +0.255 HD
ENDBRANCH  10  11
ENDBRANCH   3  10
TORSDOF 5
ENDMDL
