MODEL 1
REMARK VINA RESULT:      -9.7      0.000      0.000
REMARK  Name = NuBBE_74
REMARK  8 active torsions:
REMARK  status: ('A' for Active; 'I' for Inactive)
REMARK    1  A    between atoms: C_1  and  C_2
REMARK    2  A    between atoms: C_4  and  C_5
REMARK    3  A    between atoms: C_4  and  C_10
REMARK    4  A    between atoms: C_14  and  C_34
REMARK    5  A    between atoms: C_20  and  C_33
REMARK    6  A    between atoms: C_23  and  C_32
REMARK    7  A    between atoms: C_27  and  C_28
REMARK    8  A    between atoms: C_27  and  C_31
REMARK                            x       y       z     vdW  Elec       q    Type
REMARK                         _______ _______ _______ _____ _____    ______ ____
ROOT
ATOM      1  C   LIG A   1      -6.810  -2.814 125.976  0.00  0.00    +0.012 C 
ATOM      2  C   LIG A   1      -7.947  -1.880 126.525  0.00  0.00    -0.024 C 
ATOM      3  C   LIG A   1      -7.677  -1.116 127.864  0.00  0.00    +0.008 C 
ATOM      4  C   LIG A   1      -6.647  -1.815 128.793  0.00  0.00    +0.027 C 
ATOM      5  C   LIG A   1      -6.581  -1.150 130.192  0.00  0.00    +0.019 C 
ATOM      6  C   LIG A   1      -7.168  -3.265 129.016  0.00  0.00    +0.139 C 
ATOM      7  C   LIG A   1      -8.339  -3.825 128.150  0.00  0.00    +0.075 C 
ATOM      8  C   LIG A   1      -8.977  -2.930 127.043  0.00  0.00    +0.015 C 
ATOM      9  O   LIG A   1      -6.657  -3.992 129.859  0.00  0.00    -0.297 OA
ATOM     10  C   LIG A   1      -5.177  -1.768 128.314  0.00  0.00    +0.019 C 
ATOM     11  C   LIG A   1      -7.512   0.371 127.704  0.00  0.00    +0.005 C 
ATOM     12  C   LIG A   1      -8.722   1.020 127.040  0.00  0.00    +0.008 C 
ATOM     13  C   LIG A   1      -8.996   0.610 125.578  0.00  0.00    -0.019 C 
ATOM     14  C   LIG A   1      -8.464  -0.941 125.282  0.00  0.00    +0.006 C 
ATOM     15  C   LIG A   1      -7.360  -0.891 124.122  0.00  0.00    +0.031 C 
ATOM     16  C   LIG A   1      -6.329   0.180 124.416  0.00  0.00    -0.026 C 
ATOM     17  C   LIG A   1      -6.781   1.406 124.731  0.00  0.00    -0.063 C 
ATOM     18  C   LIG A   1      -8.298   1.643 124.505  0.00  0.00    -0.005 C 
ATOM     19  C   LIG A   1      -8.580   3.186 124.467  0.00  0.00    +0.012 C 
ATOM     20  C   LIG A   1      -7.685   4.175 125.191  0.00  0.00    +0.008 C 
ATOM     21  C   LIG A   1      -6.167   3.873 125.154  0.00  0.00    -0.025 C 
ATOM     22  C   LIG A   1      -6.018   2.429 125.644  0.00  0.00    +0.022 C 
ATOM     23  C   LIG A   1      -4.585   2.149 126.181  0.00  0.00    +0.014 C 
ATOM     24  C   LIG A   1      -4.265   3.000 127.459  0.00  0.00    -0.034 C 
ATOM     25  C   LIG A   1      -2.745   3.036 127.737  0.00  0.00    +0.011 C 
ATOM     26  C   LIG A   1      -4.802   4.451 127.366  0.00  0.00    +0.007 C 
ATOM     27  C   LIG A   1      -5.473   4.913 126.078  0.00  0.00    +0.008 C 
ATOM     28  C   LIG A   1      -4.867   2.362 128.736  0.00  0.00    +0.011 C 
ATOM     29  C   LIG A   1      -5.557   4.013 123.742  0.00  0.00    +0.012 C 
ATOM     30  C   LIG A   1      -8.884   1.269 123.063  0.00  0.00    +0.016 C 
ATOM     31  C   LIG A   1     -10.545   0.688 125.433  0.00  0.00    +0.012 C 
ENDROOT
TORSDOF 0
ENDMDL
MODEL 2
REMARK VINA RESULT:      -9.6      1.508      2.724
REMARK  Name = NuBBE_74
REMARK  8 active torsions:
REMARK  status: ('A' for Active; 'I' for Inactive)
REMARK    1  A    between atoms: C_1  and  C_2
REMARK    2  A    between atoms: C_4  and  C_5
REMARK    3  A    between atoms: C_4  and  C_10
REMARK    4  A    between atoms: C_14  and  C_34
REMARK    5  A    between atoms: C_20  and  C_33
REMARK    6  A    between atoms: C_23  and  C_32
REMARK    7  A    between atoms: C_27  and  C_28
REMARK    8  A    between atoms: C_27  and  C_31
REMARK                            x       y       z     vdW  Elec       q    Type
REMARK                         _______ _______ _______ _____ _____    ______ ____
ROOT
ATOM      1  C   LIG A   1      -5.184  -2.394 128.283  0.00  0.00    +0.012 C 
ATOM      2  C   LIG A   1      -6.735  -2.276 128.071  0.00  0.00    -0.024 C 
ATOM      3  C   LIG A   1      -7.459  -1.028 128.676  0.00  0.00    +0.008 C 
ATOM      4  C   LIG A   1      -6.733  -0.411 129.903  0.00  0.00    +0.027 C 
ATOM      5  C   LIG A   1      -7.594   0.672 130.603  0.00  0.00    +0.019 C 
ATOM      6  C   LIG A   1      -6.550  -1.564 130.932  0.00  0.00    +0.139 C 
ATOM      7  C   LIG A   1      -6.820  -3.044 130.517  0.00  0.00    +0.075 C 
ATOM      8  C   LIG A   1      -7.259  -3.367 129.054  0.00  0.00    +0.015 C 
ATOM      9  O   LIG A   1      -6.175  -1.332 132.074  0.00  0.00    -0.297 OA
ATOM     10  C   LIG A   1      -5.416   0.336 129.592  0.00  0.00    +0.019 C 
ATOM     11  C   LIG A   1      -7.961  -0.048 127.650  0.00  0.00    +0.005 C 
ATOM     12  C   LIG A   1      -8.916  -0.694 126.651  0.00  0.00    +0.008 C 
ATOM     13  C   LIG A   1      -8.309  -1.774 125.733  0.00  0.00    -0.019 C 
ATOM     14  C   LIG A   1      -7.043  -2.555 126.482  0.00  0.00    +0.006 C 
ATOM     15  C   LIG A   1      -5.717  -2.339 125.610  0.00  0.00    +0.031 C 
ATOM     16  C   LIG A   1      -5.550  -0.875 125.253  0.00  0.00    -0.026 C 
ATOM     17  C   LIG A   1      -6.609  -0.241 124.722  0.00  0.00    -0.063 C 
ATOM     18  C   LIG A   1      -7.795  -1.149 124.299  0.00  0.00    -0.005 C 
ATOM     19  C   LIG A   1      -8.722  -0.363 123.307  0.00  0.00    +0.012 C 
ATOM     20  C   LIG A   1      -8.805   1.152 123.331  0.00  0.00    +0.008 C 
ATOM     21  C   LIG A   1      -7.475   1.904 123.585  0.00  0.00    -0.025 C 
ATOM     22  C   LIG A   1      -6.893   1.296 124.865  0.00  0.00    +0.022 C 
ATOM     23  C   LIG A   1      -5.884   2.261 125.553  0.00  0.00    +0.014 C 
ATOM     24  C   LIG A   1      -6.584   3.570 126.060  0.00  0.00    -0.034 C 
ATOM     25  C   LIG A   1      -5.546   4.676 126.356  0.00  0.00    +0.011 C 
ATOM     26  C   LIG A   1      -7.641   4.112 125.064  0.00  0.00    +0.007 C 
ATOM     27  C   LIG A   1      -7.824   3.413 123.722  0.00  0.00    +0.008 C 
ATOM     28  C   LIG A   1      -7.296   3.347 127.418  0.00  0.00    +0.011 C 
ATOM     29  C   LIG A   1      -6.466   1.755 122.426  0.00  0.00    +0.012 C 
ATOM     30  C   LIG A   1      -7.454  -2.396 123.354  0.00  0.00    +0.016 C 
ATOM     31  C   LIG A   1      -9.479  -2.767 125.470  0.00  0.00    +0.012 C 
ENDROOT
TORSDOF 0
ENDMDL
MODEL 3
REMARK VINA RESULT:      -9.5      2.359      6.833
REMARK  Name = NuBBE_74
REMARK  8 active torsions:
REMARK  status: ('A' for Active; 'I' for Inactive)
REMARK    1  A    between atoms: C_1  and  C_2
REMARK    2  A    between atoms: C_4  and  C_5
REMARK    3  A    between atoms: C_4  and  C_10
REMARK    4  A    between atoms: C_14  and  C_34
REMARK    5  A    between atoms: C_20  and  C_33
REMARK    6  A    between atoms: C_23  and  C_32
REMARK    7  A    between atoms: C_27  and  C_28
REMARK    8  A    between atoms: C_27  and  C_31
REMARK                            x       y       z     vdW  Elec       q    Type
REMARK                         _______ _______ _______ _____ _____    ______ ____
ROOT
ATOM      1  C   LIG A   1      -5.440   2.620 125.492  0.00  0.00    +0.012 C 
ATOM      2  C   LIG A   1      -6.661   2.794 126.463  0.00  0.00    -0.024 C 
ATOM      3  C   LIG A   1      -8.037   2.194 126.017  0.00  0.00    +0.008 C 
ATOM      4  C   LIG A   1      -8.203   2.074 124.477  0.00  0.00    +0.027 C 
ATOM      5  C   LIG A   1      -9.651   1.692 124.078  0.00  0.00    +0.019 C 
ATOM      6  C   LIG A   1      -7.942   3.494 123.895  0.00  0.00    +0.139 C 
ATOM      7  C   LIG A   1      -7.340   4.618 124.794  0.00  0.00    +0.075 C 
ATOM      8  C   LIG A   1      -6.981   4.309 126.281  0.00  0.00    +0.015 C 
ATOM      9  O   LIG A   1      -8.187   3.744 122.722  0.00  0.00    -0.297 OA
ATOM     10  C   LIG A   1      -7.351   0.976 123.799  0.00  0.00    +0.019 C 
ATOM     11  C   LIG A   1      -8.478   1.000 126.820  0.00  0.00    +0.005 C 
ATOM     12  C   LIG A   1      -8.573   1.307 128.311  0.00  0.00    +0.008 C 
ATOM     13  C   LIG A   1      -7.245   1.645 129.020  0.00  0.00    -0.019 C 
ATOM     14  C   LIG A   1      -6.168   2.356 127.967  0.00  0.00    +0.006 C 
ATOM     15  C   LIG A   1      -4.856   1.442 127.881  0.00  0.00    +0.031 C 
ATOM     16  C   LIG A   1      -5.233  -0.009 127.654  0.00  0.00    -0.026 C 
ATOM     17  C   LIG A   1      -6.163  -0.542 128.464  0.00  0.00    -0.063 C 
ATOM     18  C   LIG A   1      -6.552   0.315 129.698  0.00  0.00    -0.005 C 
ATOM     19  C   LIG A   1      -7.263  -0.597 130.758  0.00  0.00    +0.012 C 
ATOM     20  C   LIG A   1      -8.014  -1.851 130.350  0.00  0.00    +0.008 C 
ATOM     21  C   LIG A   1      -7.374  -2.689 129.217  0.00  0.00    -0.025 C 
ATOM     22  C   LIG A   1      -7.131  -1.710 128.063  0.00  0.00    +0.022 C 
ATOM     23  C   LIG A   1      -7.015  -2.447 126.698  0.00  0.00    +0.014 C 
ATOM     24  C   LIG A   1      -8.359  -3.150 126.299  0.00  0.00    -0.034 C 
ATOM     25  C   LIG A   1      -8.129  -4.200 125.188  0.00  0.00    +0.011 C 
ATOM     26  C   LIG A   1      -9.065  -3.826 127.502  0.00  0.00    +0.007 C 
ATOM     27  C   LIG A   1      -8.380  -3.821 128.864  0.00  0.00    +0.008 C 
ATOM     28  C   LIG A   1      -9.362  -2.150 125.672  0.00  0.00    +0.011 C 
ATOM     29  C   LIG A   1      -6.043  -3.352 129.632  0.00  0.00    +0.012 C 
ATOM     30  C   LIG A   1      -5.355   0.845 130.620  0.00  0.00    +0.016 C 
ATOM     31  C   LIG A   1      -7.645   2.645 130.144  0.00  0.00    +0.012 C 
ENDROOT
TORSDOF 0
ENDMDL
MODEL 4
REMARK VINA RESULT:      -9.3      2.235      6.122
REMARK  Name = NuBBE_74
REMARK  8 active torsions:
REMARK  status: ('A' for Active; 'I' for Inactive)
REMARK    1  A    between atoms: C_1  and  C_2
REMARK    2  A    between atoms: C_4  and  C_5
REMARK    3  A    between atoms: C_4  and  C_10
REMARK    4  A    between atoms: C_14  and  C_34
REMARK    5  A    between atoms: C_20  and  C_33
REMARK    6  A    between atoms: C_23  and  C_32
REMARK    7  A    between atoms: C_27  and  C_28
REMARK    8  A    between atoms: C_27  and  C_31
REMARK                            x       y       z     vdW  Elec       q    Type
REMARK                         _______ _______ _______ _____ _____    ______ ____
ROOT
ATOM      1  C   LIG A   1      -8.462   2.771 124.323  0.00  0.00    +0.012 C 
ATOM      2  C   LIG A   1      -7.281   1.801 123.963  0.00  0.00    -0.024 C 
ATOM      3  C   LIG A   1      -6.099   1.685 124.982  0.00  0.00    +0.008 C 
ATOM      4  C   LIG A   1      -5.906   2.945 125.870  0.00  0.00    +0.027 C 
ATOM      5  C   LIG A   1      -4.597   2.878 126.697  0.00  0.00    +0.019 C 
ATOM      6  C   LIG A   1      -5.754   4.151 124.897  0.00  0.00    +0.139 C 
ATOM      7  C   LIG A   1      -6.070   3.985 123.378  0.00  0.00    +0.075 C 
ATOM      8  C   LIG A   1      -6.561   2.605 122.838  0.00  0.00    +0.015 C 
ATOM      9  O   LIG A   1      -5.401   5.248 125.309  0.00  0.00    -0.297 OA
ATOM     10  C   LIG A   1      -6.991   3.172 126.948  0.00  0.00    +0.019 C 
ATOM     11  C   LIG A   1      -6.026   0.363 125.695  0.00  0.00    +0.005 C 
ATOM     12  C   LIG A   1      -5.915  -0.812 124.728  0.00  0.00    +0.008 C 
ATOM     13  C   LIG A   1      -7.133  -1.054 123.813  0.00  0.00    -0.019 C 
ATOM     14  C   LIG A   1      -7.936   0.370 123.494  0.00  0.00    +0.006 C 
ATOM     15  C   LIG A   1      -9.440   0.242 124.030  0.00  0.00    +0.031 C 
ATOM     16  C   LIG A   1      -9.454  -0.291 125.450  0.00  0.00    -0.026 C 
ATOM     17  C   LIG A   1      -8.735  -1.397 125.704  0.00  0.00    -0.063 C 
ATOM     18  C   LIG A   1      -8.185  -2.143 124.459  0.00  0.00    -0.005 C 
ATOM     19  C   LIG A   1      -7.787  -3.606 124.866  0.00  0.00    +0.012 C 
ATOM     20  C   LIG A   1      -7.382  -3.952 126.286  0.00  0.00    +0.008 C 
ATOM     21  C   LIG A   1      -8.175  -3.244 127.413  0.00  0.00    -0.025 C 
ATOM     22  C   LIG A   1      -8.099  -1.747 127.095  0.00  0.00    +0.022 C 
ATOM     23  C   LIG A   1      -8.350  -0.877 128.360  0.00  0.00    +0.014 C 
ATOM     24  C   LIG A   1      -7.227  -1.076 129.437  0.00  0.00    -0.034 C 
ATOM     25  C   LIG A   1      -7.682  -0.552 130.818  0.00  0.00    +0.011 C 
ATOM     26  C   LIG A   1      -6.778  -2.553 129.572  0.00  0.00    +0.007 C 
ATOM     27  C   LIG A   1      -7.493  -3.625 128.757  0.00  0.00    +0.008 C 
ATOM     28  C   LIG A   1      -5.967  -0.235 129.110  0.00  0.00    +0.011 C 
ATOM     29  C   LIG A   1      -9.651  -3.690 127.487  0.00  0.00    +0.012 C 
ATOM     30  C   LIG A   1      -9.234  -2.504 123.305  0.00  0.00    +0.016 C 
ATOM     31  C   LIG A   1      -6.528  -1.640 122.503  0.00  0.00    +0.012 C 
ENDROOT
TORSDOF 0
ENDMDL
MODEL 5
REMARK VINA RESULT:      -9.2      3.619      5.525
REMARK  Name = NuBBE_74
REMARK  8 active torsions:
REMARK  status: ('A' for Active; 'I' for Inactive)
REMARK    1  A    between atoms: C_1  and  C_2
REMARK    2  A    between atoms: C_4  and  C_5
REMARK    3  A    between atoms: C_4  and  C_10
REMARK    4  A    between atoms: C_14  and  C_34
REMARK    5  A    between atoms: C_20  and  C_33
REMARK    6  A    between atoms: C_23  and  C_32
REMARK    7  A    between atoms: C_27  and  C_28
REMARK    8  A    between atoms: C_27  and  C_31
REMARK                            x       y       z     vdW  Elec       q    Type
REMARK                         _______ _______ _______ _____ _____    ______ ____
ROOT
ATOM      1  C   LIG A   1      -7.006   1.198 132.101  0.00  0.00    +0.012 C 
ATOM      2  C   LIG A   1      -7.689   2.008 130.942  0.00  0.00    -0.024 C 
ATOM      3  C   LIG A   1      -7.685   3.570 131.044  0.00  0.00    +0.008 C 
ATOM      4  C   LIG A   1      -7.595   4.106 132.500  0.00  0.00    +0.027 C 
ATOM      5  C   LIG A   1      -7.820   5.638 132.569  0.00  0.00    +0.019 C 
ATOM      6  C   LIG A   1      -8.768   3.449 133.284  0.00  0.00    +0.139 C 
ATOM      7  C   LIG A   1      -9.580   2.274 132.655  0.00  0.00    +0.075 C 
ATOM      8  C   LIG A   1      -9.198   1.745 131.237  0.00  0.00    +0.015 C 
ATOM      9  O   LIG A   1      -9.060   3.831 134.410  0.00  0.00    -0.297 OA
ATOM     10  C   LIG A   1      -6.225   3.921 133.194  0.00  0.00    +0.019 C 
ATOM     11  C   LIG A   1      -6.798   4.251 130.038  0.00  0.00    +0.005 C 
ATOM     12  C   LIG A   1      -7.163   3.886 128.603  0.00  0.00    +0.008 C 
ATOM     13  C   LIG A   1      -6.955   2.411 128.204  0.00  0.00    -0.019 C 
ATOM     14  C   LIG A   1      -7.136   1.404 129.518  0.00  0.00    +0.006 C 
ATOM     15  C   LIG A   1      -5.766   0.605 129.746  0.00  0.00    +0.031 C 
ATOM     16  C   LIG A   1      -4.587   1.557 129.725  0.00  0.00    -0.026 C 
ATOM     17  C   LIG A   1      -4.502   2.417 128.695  0.00  0.00    -0.063 C 
ATOM     18  C   LIG A   1      -5.481   2.157 127.519  0.00  0.00    -0.005 C 
ATOM     19  C   LIG A   1      -4.968   2.914 126.243  0.00  0.00    +0.012 C 
ATOM     20  C   LIG A   1      -4.114   4.163 126.351  0.00  0.00    +0.008 C 
ATOM     21  C   LIG A   1      -3.054   4.168 127.479  0.00  0.00    -0.025 C 
ATOM     22  C   LIG A   1      -3.814   3.825 128.765  0.00  0.00    +0.022 C 
ATOM     23  C   LIG A   1      -3.051   4.310 130.031  0.00  0.00    +0.014 C 
ATOM     24  C   LIG A   1      -2.941   5.874 130.081  0.00  0.00    -0.034 C 
ATOM     25  C   LIG A   1      -1.854   6.323 131.085  0.00  0.00    +0.011 C 
ATOM     26  C   LIG A   1      -2.647   6.502 128.695  0.00  0.00    +0.007 C 
ATOM     27  C   LIG A   1      -2.416   5.586 127.498  0.00  0.00    +0.008 C 
ATOM     28  C   LIG A   1      -4.242   6.521 130.619  0.00  0.00    +0.011 C 
ATOM     29  C   LIG A   1      -1.922   3.143 127.250  0.00  0.00    +0.012 C 
ATOM     30  C   LIG A   1      -5.508   0.677 126.910  0.00  0.00    +0.016 C 
ATOM     31  C   LIG A   1      -8.066   2.130 127.150  0.00  0.00    +0.012 C 
ENDROOT
TORSDOF 0
ENDMDL
MODEL 6
REMARK VINA RESULT:      -9.2      2.654      6.648
REMARK  Name = NuBBE_74
REMARK  8 active torsions:
REMARK  status: ('A' for Active; 'I' for Inactive)
REMARK    1  A    between atoms: C_1  and  C_2
REMARK    2  A    between atoms: C_4  and  C_5
REMARK    3  A    between atoms: C_4  and  C_10
REMARK    4  A    between atoms: C_14  and  C_34
REMARK    5  A    between atoms: C_20  and  C_33
REMARK    6  A    between atoms: C_23  and  C_32
REMARK    7  A    between atoms: C_27  and  C_28
REMARK    8  A    between atoms: C_27  and  C_31
REMARK                            x       y       z     vdW  Elec       q    Type
REMARK                         _______ _______ _______ _____ _____    ______ ____
ROOT
ATOM      1  C   LIG A   1      -8.457  -2.012 126.276  0.00  0.00    +0.012 C 
ATOM      2  C   LIG A   1      -6.961  -1.730 126.663  0.00  0.00    -0.024 C 
ATOM      3  C   LIG A   1      -6.568  -0.258 127.022  0.00  0.00    +0.008 C 
ATOM      4  C   LIG A   1      -7.480   0.816 126.367  0.00  0.00    +0.027 C 
ATOM      5  C   LIG A   1      -6.922   2.249 126.563  0.00  0.00    +0.019 C 
ATOM      6  C   LIG A   1      -7.459   0.537 124.836  0.00  0.00    +0.139 C 
ATOM      7  C   LIG A   1      -6.843  -0.785 124.281  0.00  0.00    +0.075 C 
ATOM      8  C   LIG A   1      -6.263  -1.841 125.273  0.00  0.00    +0.015 C 
ATOM      9  O   LIG A   1      -7.939   1.341 124.046  0.00  0.00    -0.297 OA
ATOM     10  C   LIG A   1      -8.911   0.915 126.944  0.00  0.00    +0.019 C 
ATOM     11  C   LIG A   1      -6.240  -0.044 128.474  0.00  0.00    +0.005 C 
ATOM     12  C   LIG A   1      -5.112  -0.951 128.954  0.00  0.00    +0.008 C 
ATOM     13  C   LIG A   1      -5.411  -2.464 128.955  0.00  0.00    -0.019 C 
ATOM     14  C   LIG A   1      -6.511  -2.858 127.768  0.00  0.00    +0.006 C 
ATOM     15  C   LIG A   1      -7.801  -3.509 128.459  0.00  0.00    +0.031 C 
ATOM     16  C   LIG A   1      -8.270  -2.654 129.620  0.00  0.00    -0.026 C 
ATOM     17  C   LIG A   1      -7.350  -2.280 130.526  0.00  0.00    -0.063 C 
ATOM     18  C   LIG A   1      -5.971  -2.982 130.414  0.00  0.00    -0.005 C 
ATOM     19  C   LIG A   1      -5.189  -2.804 131.762  0.00  0.00    +0.012 C 
ATOM     20  C   LIG A   1      -5.446  -1.623 132.679  0.00  0.00    +0.008 C 
ATOM     21  C   LIG A   1      -6.922  -1.174 132.814  0.00  0.00    -0.025 C 
ATOM     22  C   LIG A   1      -7.425  -0.967 131.381  0.00  0.00    +0.022 C 
ATOM     23  C   LIG A   1      -8.659  -0.020 131.336  0.00  0.00    +0.014 C 
ATOM     24  C   LIG A   1      -8.297   1.432 131.806  0.00  0.00    -0.034 C 
ATOM     25  C   LIG A   1      -9.570   2.237 132.153  0.00  0.00    +0.011 C 
ATOM     26  C   LIG A   1      -7.334   1.449 133.021  0.00  0.00    +0.007 C 
ATOM     27  C   LIG A   1      -6.926   0.128 133.664  0.00  0.00    +0.008 C 
ATOM     28  C   LIG A   1      -7.630   2.250 130.673  0.00  0.00    +0.011 C 
ATOM     29  C   LIG A   1      -7.807  -2.213 133.536  0.00  0.00    +0.012 C 
ATOM     30  C   LIG A   1      -5.972  -4.582 130.360  0.00  0.00    +0.016 C 
ATOM     31  C   LIG A   1      -4.036  -3.136 128.665  0.00  0.00    +0.012 C 
ENDROOT
TORSDOF 0
ENDMDL
MODEL 7
REMARK VINA RESULT:      -9.1      1.615      4.952
REMARK  Name = NuBBE_74
REMARK  8 active torsions:
REMARK  status: ('A' for Active; 'I' for Inactive)
REMARK    1  A    between atoms: C_1  and  C_2
REMARK    2  A    between atoms: C_4  and  C_5
REMARK    3  A    between atoms: C_4  and  C_10
REMARK    4  A    between atoms: C_14  and  C_34
REMARK    5  A    between atoms: C_20  and  C_33
REMARK    6  A    between atoms: C_23  and  C_32
REMARK    7  A    between atoms: C_27  and  C_28
REMARK    8  A    between atoms: C_27  and  C_31
REMARK                            x       y       z     vdW  Elec       q    Type
REMARK                         _______ _______ _______ _____ _____    ______ ____
ROOT
ATOM      1  C   LIG A   1      -7.014   0.465 130.243  0.00  0.00    +0.012 C 
ATOM      2  C   LIG A   1      -5.877   0.766 129.203  0.00  0.00    -0.024 C 
ATOM      3  C   LIG A   1      -5.283  -0.443 128.405  0.00  0.00    +0.008 C 
ATOM      4  C   LIG A   1      -5.404  -1.805 129.141  0.00  0.00    +0.027 C 
ATOM      5  C   LIG A   1      -4.609  -2.926 128.424  0.00  0.00    +0.019 C 
ATOM      6  C   LIG A   1      -4.741  -1.613 130.536  0.00  0.00    +0.139 C 
ATOM      7  C   LIG A   1      -4.362  -0.185 131.041  0.00  0.00    +0.075 C 
ATOM      8  C   LIG A   1      -4.671   1.056 130.147  0.00  0.00    +0.015 C 
ATOM      9  O   LIG A   1      -4.521  -2.573 131.264  0.00  0.00    -0.297 OA
ATOM     10  C   LIG A   1      -6.833  -2.391 129.228  0.00  0.00    +0.019 C 
ATOM     11  C   LIG A   1      -5.641  -0.453 126.944  0.00  0.00    +0.005 C 
ATOM     12  C   LIG A   1      -5.207   0.825 126.232  0.00  0.00    +0.008 C 
ATOM     13  C   LIG A   1      -5.907   2.123 126.682  0.00  0.00    -0.019 C 
ATOM     14  C   LIG A   1      -6.368   2.032 128.280  0.00  0.00    +0.006 C 
ATOM     15  C   LIG A   1      -7.959   2.202 128.365  0.00  0.00    +0.031 C 
ATOM     16  C   LIG A   1      -8.644   1.291 127.365  0.00  0.00    -0.026 C 
ATOM     17  C   LIG A   1      -8.204   1.322 126.096  0.00  0.00    -0.063 C 
ATOM     18  C   LIG A   1      -7.220   2.472 125.752  0.00  0.00    -0.005 C 
ATOM     19  C   LIG A   1      -7.163   2.656 124.195  0.00  0.00    +0.012 C 
ATOM     20  C   LIG A   1      -7.459   1.508 123.248  0.00  0.00    +0.008 C 
ATOM     21  C   LIG A   1      -8.610   0.560 123.667  0.00  0.00    -0.025 C 
ATOM     22  C   LIG A   1      -8.281   0.115 125.096  0.00  0.00    +0.022 C 
ATOM     23  C   LIG A   1      -8.997  -1.217 125.463  0.00  0.00    +0.014 C 
ATOM     24  C   LIG A   1      -8.488  -2.413 124.586  0.00  0.00    -0.034 C 
ATOM     25  C   LIG A   1      -9.466  -3.609 124.655  0.00  0.00    +0.011 C 
ATOM     26  C   LIG A   1      -8.266  -2.020 123.103  0.00  0.00    +0.007 C 
ATOM     27  C   LIG A   1      -8.629  -0.612 122.645  0.00  0.00    +0.008 C 
ATOM     28  C   LIG A   1      -7.152  -2.986 125.121  0.00  0.00    +0.011 C 
ATOM     29  C   LIG A   1      -9.996   1.239 123.635  0.00  0.00    +0.012 C 
ATOM     30  C   LIG A   1      -7.673   3.957 126.141  0.00  0.00    +0.016 C 
ATOM     31  C   LIG A   1      -4.833   3.234 126.491  0.00  0.00    +0.012 C 
ENDROOT
TORSDOF 0
ENDMDL
MODEL 8
REMARK VINA RESULT:      -9.1      2.640      5.857
REMARK  Name = NuBBE_74
REMARK  8 active torsions:
REMARK  status: ('A' for Active; 'I' for Inactive)
REMARK    1  A    between atoms: C_1  and  C_2
REMARK    2  A    between atoms: C_4  and  C_5
REMARK    3  A    between atoms: C_4  and  C_10
REMARK    4  A    between atoms: C_14  and  C_34
REMARK    5  A    between atoms: C_20  and  C_33
REMARK    6  A    between atoms: C_23  and  C_32
REMARK    7  A    between atoms: C_27  and  C_28
REMARK    8  A    between atoms: C_27  and  C_31
REMARK                            x       y       z     vdW  Elec       q    Type
REMARK                         _______ _______ _______ _____ _____    ______ ____
ROOT
ATOM      1  C   LIG A   1      -9.178  -2.840 126.412  0.00  0.00    +0.012 C 
ATOM      2  C   LIG A   1      -7.643  -2.514 126.367  0.00  0.00    -0.024 C 
ATOM      3  C   LIG A   1      -7.220  -1.058 125.977  0.00  0.00    +0.008 C 
ATOM      4  C   LIG A   1      -8.260  -0.313 125.095  0.00  0.00    +0.027 C 
ATOM      5  C   LIG A   1      -7.705   1.027 124.550  0.00  0.00    +0.019 C 
ATOM      6  C   LIG A   1      -8.520  -1.222 123.859  0.00  0.00    +0.139 C 
ATOM      7  C   LIG A   1      -7.991  -2.690 123.832  0.00  0.00    +0.075 C 
ATOM      8  C   LIG A   1      -7.214  -3.253 125.063  0.00  0.00    +0.015 C 
ATOM      9  O   LIG A   1      -9.155  -0.807 122.898  0.00  0.00    -0.297 OA
ATOM     10  C   LIG A   1      -9.560   0.113 125.816  0.00  0.00    +0.019 C 
ATOM     11  C   LIG A   1      -6.631  -0.262 127.110  0.00  0.00    +0.005 C 
ATOM     12  C   LIG A   1      -5.414  -0.945 127.726  0.00  0.00    +0.008 C 
ATOM     13  C   LIG A   1      -5.676  -2.289 128.436  0.00  0.00    -0.019 C 
ATOM     14  C   LIG A   1      -6.970  -3.084 127.752  0.00  0.00    +0.006 C 
ATOM     15  C   LIG A   1      -8.095  -3.294 128.874  0.00  0.00    +0.031 C 
ATOM     16  C   LIG A   1      -8.356  -1.996 129.613  0.00  0.00    -0.026 C 
ATOM     17  C   LIG A   1      -7.291  -1.328 130.088  0.00  0.00    -0.063 C 
ATOM     18  C   LIG A   1      -5.942  -2.096 130.048  0.00  0.00    -0.005 C 
ATOM     19  C   LIG A   1      -4.926  -1.406 131.025  0.00  0.00    +0.012 C 
ATOM     20  C   LIG A   1      -5.032   0.068 131.369  0.00  0.00    +0.008 C 
ATOM     21  C   LIG A   1      -6.465   0.623 131.556  0.00  0.00    -0.025 C 
ATOM     22  C   LIG A   1      -7.231   0.227 130.289  0.00  0.00    +0.022 C 
ATOM     23  C   LIG A   1      -8.471   1.138 130.059  0.00  0.00    +0.014 C 
ATOM     24  C   LIG A   1      -8.058   2.625 129.782  0.00  0.00    -0.034 C 
ATOM     25  C   LIG A   1      -9.261   3.579 129.966  0.00  0.00    +0.011 C 
ATOM     26  C   LIG A   1      -6.886   3.101 130.677  0.00  0.00    +0.007 C 
ATOM     27  C   LIG A   1      -6.337   2.161 131.744  0.00  0.00    +0.008 C 
ATOM     28  C   LIG A   1      -7.632   2.834 128.307  0.00  0.00    +0.011 C 
ATOM     29  C   LIG A   1      -7.178   0.051 132.801  0.00  0.00    +0.012 C 
ATOM     30  C   LIG A   1      -5.921  -3.560 130.693  0.00  0.00    +0.016 C 
ATOM     31  C   LIG A   1      -4.366  -3.105 128.226  0.00  0.00    +0.012 C 
ENDROOT
TORSDOF 0
ENDMDL
MODEL 9
REMARK VINA RESULT:      -9.0      1.771      5.153
REMARK  Name = NuBBE_74
REMARK  8 active torsions:
REMARK  status: ('A' for Active; 'I' for Inactive)
REMARK    1  A    between atoms: C_1  and  C_2
REMARK    2  A    between atoms: C_4  and  C_5
REMARK    3  A    between atoms: C_4  and  C_10
REMARK    4  A    between atoms: C_14  and  C_34
REMARK    5  A    between atoms: C_20  and  C_33
REMARK    6  A    between atoms: C_23  and  C_32
REMARK    7  A    between atoms: C_27  and  C_28
REMARK    8  A    between atoms: C_27  and  C_31
REMARK                            x       y       z     vdW  Elec       q    Type
REMARK                         _______ _______ _______ _____ _____    ______ ____
ROOT
ATOM      1  C   LIG A   1      -6.682   2.286 130.223  0.00  0.00    +0.012 C 
ATOM      2  C   LIG A   1      -5.530   2.188 129.161  0.00  0.00    -0.024 C 
ATOM      3  C   LIG A   1      -5.050   0.760 128.737  0.00  0.00    +0.008 C 
ATOM      4  C   LIG A   1      -5.286  -0.331 129.817  0.00  0.00    +0.027 C 
ATOM      5  C   LIG A   1      -4.597  -1.670 129.450  0.00  0.00    +0.019 C 
ATOM      6  C   LIG A   1      -4.600   0.179 131.117  0.00  0.00    +0.139 C 
ATOM      7  C   LIG A   1      -4.094   1.652 131.217  0.00  0.00    +0.075 C 
ATOM      8  C   LIG A   1      -4.297   2.622 130.011  0.00  0.00    +0.015 C 
ATOM      9  O   LIG A   1      -4.462  -0.559 132.084  0.00  0.00    -0.297 OA
ATOM     10  C   LIG A   1      -6.761  -0.744 130.034  0.00  0.00    +0.019 C 
ATOM     11  C   LIG A   1      -5.415   0.379 127.328  0.00  0.00    +0.005 C 
ATOM     12  C   LIG A   1      -4.874   1.369 126.302  0.00  0.00    +0.008 C 
ATOM     13  C   LIG A   1      -5.454   2.797 126.364  0.00  0.00    -0.019 C 
ATOM     14  C   LIG A   1      -5.912   3.190 127.917  0.00  0.00    +0.006 C 
ATOM     15  C   LIG A   1      -7.481   3.513 127.923  0.00  0.00    +0.031 C 
ATOM     16  C   LIG A   1      -8.250   2.426 127.198  0.00  0.00    -0.026 C 
ATOM     17  C   LIG A   1      -7.816   2.068 125.978  0.00  0.00    -0.063 C 
ATOM     18  C   LIG A   1      -6.736   2.989 125.350  0.00  0.00    -0.005 C 
ATOM     19  C   LIG A   1      -6.672   2.732 123.803  0.00  0.00    +0.012 C 
ATOM     20  C   LIG A   1      -7.075   1.398 123.203  0.00  0.00    +0.008 C 
ATOM     21  C   LIG A   1      -8.302   0.705 123.845  0.00  0.00    -0.025 C 
ATOM     22  C   LIG A   1      -8.006   0.644 125.347  0.00  0.00    +0.022 C 
ATOM     23  C   LIG A   1      -8.835  -0.468 126.052  0.00  0.00    +0.014 C 
ATOM     24  C   LIG A   1      -8.439  -1.899 125.546  0.00  0.00    -0.034 C 
ATOM     25  C   LIG A   1      -9.518  -2.940 125.923  0.00  0.00    +0.011 C 
ATOM     26  C   LIG A   1      -8.192  -1.950 124.017  0.00  0.00    +0.007 C 
ATOM     27  C   LIG A   1      -8.431  -0.696 123.184  0.00  0.00    +0.008 C 
ATOM     28  C   LIG A   1      -7.156  -2.417 126.243  0.00  0.00    +0.011 C 
ATOM     29  C   LIG A   1      -9.623   1.467 123.601  0.00  0.00    +0.012 C 
ATOM     30  C   LIG A   1      -7.054   4.557 125.308  0.00  0.00    +0.016 C 
ATOM     31  C   LIG A   1      -4.287   3.715 125.895  0.00  0.00    +0.012 C 
ENDROOT
TORSDOF 0
ENDMDL
