MODEL 1
REMARK VINA RESULT:      -9.3      0.000      0.000
REMARK  Name = NuBBE_608
REMARK  10 active torsions:
REMARK  status: ('A' for Active; 'I' for Inactive)
REMARK    1  A    between atoms: C_1  and  C_2
REMARK    2  A    between atoms: C_6  and  C_48
REMARK    3  A    between atoms: C_9  and  C_13
REMARK    4  A    between atoms: C_13  and  C_14
REMARK    5  A    between atoms: C_28  and  C_32
REMARK    6  A    between atoms: C_33  and  O_35
REMARK    7  A    between atoms: O_35  and  C_36
REMARK    8  A    between atoms: C_36  and  C_37
REMARK    9  A    between atoms: C_43  and  C_44
REMARK   10  A    between atoms: C_43  and  O_45
REMARK                            x       y       z     vdW  Elec       q    Type
REMARK                         _______ _______ _______ _____ _____    ______ ____
ROOT
ATOM      1  C   LIG A   1      -6.868   4.850 134.511  0.00  0.00    +0.015 C 
ATOM      2  C   LIG A   1      -6.885   4.340 133.067  0.00  0.00    +0.056 C 
ATOM      3  C   LIG A   1      -7.084   2.849 133.033  0.00  0.00    +0.144 C 
ATOM      4  O   LIG A   1      -7.415   2.197 134.018  0.00  0.00    -0.296 OA
ATOM      5  C   LIG A   1      -8.003   4.971 132.218  0.00  0.00    +0.002 C 
ATOM      6  C   LIG A   1      -8.378   4.248 130.860  0.00  0.00    +0.033 C 
ATOM      7  C   LIG A   1      -9.926   4.296 130.607  0.00  0.00    +0.082 C 
ATOM      8  N   LIG A   1     -10.349   3.100 131.285  0.00  0.00    -0.311 N 
ATOM      9  H   LIG A   1     -11.321   2.816 131.378  0.00  0.00    +0.149 HD
ATOM     10  C   LIG A   1      -8.066   2.672 130.748  0.00  0.00    +0.104 C 
ATOM     11  C   LIG A   1      -9.394   2.107 131.253  0.00  0.00    +0.224 C 
ATOM     12  O   LIG A   1      -9.632   0.939 131.535  0.00  0.00    -0.275 OA
ATOM     13  C   LIG A   1      -6.876   2.260 131.648  0.00  0.00    +0.097 C 
ATOM     14  C   LIG A   1      -6.498   0.811 131.818  0.00  0.00    -0.019 C 
ATOM     15  C   LIG A   1      -5.225   0.379 131.885  0.00  0.00    -0.030 C 
ATOM     16  C   LIG A   1      -4.866  -1.049 132.187  0.00  0.00    +0.037 C 
ATOM     17  C   LIG A   1      -4.551  -1.889 130.945  0.00  0.00    +0.059 C 
ATOM     18  C   LIG A   1      -5.775  -1.925 130.029  0.00  0.00    +0.170 C 
ATOM     19  O   LIG A   1      -6.687  -2.718 130.309  0.00  0.00    -0.294 OA
ATOM     20  C   LIG A   1      -3.212  -1.552 130.305  0.00  0.00    +0.016 C 
ATOM     21  C   LIG A   1      -7.769   2.192 129.257  0.00  0.00    +0.224 C 
ATOM     22  C   LIG A   1      -8.141   0.745 128.943  0.00  0.00    +0.192 C 
ATOM     23  C   LIG A   1      -7.369  -0.568 128.634  0.00  0.00    +0.190 C 
ATOM     24  C   LIG A   1      -5.911  -0.974 128.791  0.00  0.00    +0.149 C 
ATOM     25  C   LIG A   1      -5.516  -1.851 127.586  0.00  0.00    +0.052 C 
ATOM     26  O   LIG A   1      -7.654   0.392 127.622  0.00  0.00    -0.361 OA
ATOM     27  C   LIG A   1      -7.628   6.438 131.931  0.00  0.00    +0.009 C 
ENDROOT
BRANCH  24  28
ATOM     28  O   LIG A   1      -5.065   0.159 128.746  0.00  0.00    -0.379 OA
ATOM     29  H   LIG A   1      -5.511   0.875 129.219  0.00  0.00    +0.211 HD
ENDBRANCH  24  28
BRANCH   7  30
ATOM     30  C   LIG A   1     -10.724   5.568 130.986  0.00  0.00    +0.057 C 
BRANCH  30  31
ATOM     31  C   LIG A   1     -11.043   6.489 129.819  0.00  0.00    -0.046 A 
ATOM     32  C   LIG A   1     -12.281   6.401 129.163  0.00  0.00    +0.003 A 
ATOM     33  C   LIG A   1     -12.600   7.272 128.118  0.00  0.00    +0.000 A 
ATOM     34  C   LIG A   1     -11.689   8.242 127.712  0.00  0.00    +0.000 A 
ATOM     35  C   LIG A   1     -10.454   8.339 128.349  0.00  0.00    +0.000 A 
ATOM     36  C   LIG A   1     -10.130   7.468 129.396  0.00  0.00    +0.003 A 
ENDBRANCH  30  31
ENDBRANCH   7  30
BRANCH  21  37
ATOM     37  O   LIG A   1      -8.518   2.989 128.290  0.00  0.00    -0.458 OA
BRANCH  37  38
ATOM     38  C   LIG A   1      -7.840   3.946 127.593  0.00  0.00    +0.304 C 
ATOM     39  C   LIG A   1      -6.354   3.694 127.635  0.00  0.00    +0.136 C 
ATOM     40  O   LIG A   1      -8.350   4.878 127.000  0.00  0.00    -0.251 OA
ENDBRANCH  37  38
ENDBRANCH  21  37
TORSDOF 5
ENDMDL
MODEL 2
REMARK VINA RESULT:      -9.1      2.700      7.273
REMARK  Name = NuBBE_608
REMARK  10 active torsions:
REMARK  status: ('A' for Active; 'I' for Inactive)
REMARK    1  A    between atoms: C_1  and  C_2
REMARK    2  A    between atoms: C_6  and  C_48
REMARK    3  A    between atoms: C_9  and  C_13
REMARK    4  A    between atoms: C_13  and  C_14
REMARK    5  A    between atoms: C_28  and  C_32
REMARK    6  A    between atoms: C_33  and  O_35
REMARK    7  A    between atoms: O_35  and  C_36
REMARK    8  A    between atoms: C_36  and  C_37
REMARK    9  A    between atoms: C_43  and  C_44
REMARK   10  A    between atoms: C_43  and  O_45
REMARK                            x       y       z     vdW  Elec       q    Type
REMARK                         _______ _______ _______ _____ _____    ______ ____
ROOT
ATOM      1  C   LIG A   1      -7.499  -3.291 131.354  0.00  0.00    +0.015 C 
ATOM      2  C   LIG A   1      -7.693  -1.970 130.605  0.00  0.00    +0.056 C 
ATOM      3  C   LIG A   1      -6.945  -0.857 131.287  0.00  0.00    +0.144 C 
ATOM      4  O   LIG A   1      -6.121  -1.053 132.175  0.00  0.00    -0.296 OA
ATOM      5  C   LIG A   1      -7.202  -2.025 129.147  0.00  0.00    +0.002 C 
ATOM      6  C   LIG A   1      -6.975  -0.644 128.405  0.00  0.00    +0.033 C 
ATOM      7  C   LIG A   1      -5.710  -0.705 127.479  0.00  0.00    +0.082 C 
ATOM      8  N   LIG A   1      -4.680  -0.305 128.399  0.00  0.00    -0.311 N 
ATOM      9  H   LIG A   1      -3.692  -0.273 128.163  0.00  0.00    +0.149 HD
ATOM     10  C   LIG A   1      -6.664   0.645 129.318  0.00  0.00    +0.104 C 
ATOM     11  C   LIG A   1      -5.137   0.575 129.355  0.00  0.00    +0.224 C 
ATOM     12  O   LIG A   1      -4.391   1.235 130.069  0.00  0.00    -0.275 OA
ATOM     13  C   LIG A   1      -7.290   0.512 130.728  0.00  0.00    +0.097 C 
ATOM     14  C   LIG A   1      -7.006   1.531 131.802  0.00  0.00    -0.019 C 
ATOM     15  C   LIG A   1      -7.932   1.968 132.675  0.00  0.00    -0.030 C 
ATOM     16  C   LIG A   1      -7.602   2.881 133.821  0.00  0.00    +0.037 C 
ATOM     17  C   LIG A   1      -7.901   4.359 133.546  0.00  0.00    +0.059 C 
ATOM     18  C   LIG A   1      -7.075   4.833 132.350  0.00  0.00    +0.170 C 
ATOM     19  O   LIG A   1      -5.888   5.132 132.546  0.00  0.00    -0.294 OA
ATOM     20  C   LIG A   1      -9.387   4.689 133.541  0.00  0.00    +0.016 C 
ATOM     21  C   LIG A   1      -7.159   2.014 128.666  0.00  0.00    +0.224 C 
ATOM     22  C   LIG A   1      -6.356   3.255 129.049  0.00  0.00    +0.192 C 
ATOM     23  C   LIG A   1      -6.606   4.533 129.897  0.00  0.00    +0.190 C 
ATOM     24  C   LIG A   1      -7.679   4.913 130.906  0.00  0.00    +0.149 C 
ATOM     25  C   LIG A   1      -8.023   6.404 130.714  0.00  0.00    +0.052 C 
ATOM     26  O   LIG A   1      -7.019   4.441 128.538  0.00  0.00    -0.361 OA
ATOM     27  C   LIG A   1      -8.185  -2.889 128.333  0.00  0.00    +0.009 C 
ENDROOT
BRANCH  24  28
ATOM     28  O   LIG A   1      -8.875   4.200 130.662  0.00  0.00    -0.379 OA
ATOM     29  H   LIG A   1      -9.033   4.210 129.709  0.00  0.00    +0.211 HD
ENDBRANCH  24  28
BRANCH   7  30
ATOM     30  C   LIG A   1      -5.402  -2.002 126.690  0.00  0.00    +0.057 C 
BRANCH  30  31
ATOM     31  C   LIG A   1      -5.768  -1.951 125.215  0.00  0.00    -0.046 A 
ATOM     32  C   LIG A   1      -6.560  -0.904 124.717  0.00  0.00    +0.003 A 
ATOM     33  C   LIG A   1      -6.867  -0.824 123.355  0.00  0.00    +0.000 A 
ATOM     34  C   LIG A   1      -6.387  -1.788 122.472  0.00  0.00    +0.000 A 
ATOM     35  C   LIG A   1      -5.605  -2.836 122.952  0.00  0.00    +0.000 A 
ATOM     36  C   LIG A   1      -5.297  -2.919 124.315  0.00  0.00    +0.003 A 
ENDBRANCH  30  31
ENDBRANCH   7  30
BRANCH  21  37
ATOM     37  O   LIG A   1      -7.089   1.957 127.210  0.00  0.00    -0.458 OA
BRANCH  37  38
ATOM     38  C   LIG A   1      -8.263   1.978 126.515  0.00  0.00    +0.304 C 
ATOM     39  C   LIG A   1      -8.062   2.542 125.131  0.00  0.00    +0.136 C 
ATOM     40  O   LIG A   1      -9.336   1.587 126.935  0.00  0.00    -0.251 OA
ENDBRANCH  37  38
ENDBRANCH  21  37
TORSDOF 5
ENDMDL
MODEL 3
REMARK VINA RESULT:      -9.0      3.032      5.960
REMARK  Name = NuBBE_608
REMARK  10 active torsions:
REMARK  status: ('A' for Active; 'I' for Inactive)
REMARK    1  A    between atoms: C_1  and  C_2
REMARK    2  A    between atoms: C_6  and  C_48
REMARK    3  A    between atoms: C_9  and  C_13
REMARK    4  A    between atoms: C_13  and  C_14
REMARK    5  A    between atoms: C_28  and  C_32
REMARK    6  A    between atoms: C_33  and  O_35
REMARK    7  A    between atoms: O_35  and  C_36
REMARK    8  A    between atoms: C_36  and  C_37
REMARK    9  A    between atoms: C_43  and  C_44
REMARK   10  A    between atoms: C_43  and  O_45
REMARK                            x       y       z     vdW  Elec       q    Type
REMARK                         _______ _______ _______ _____ _____    ______ ____
ROOT
ATOM      1  C   LIG A   1      -2.983  -2.022 130.377  0.00  0.00    +0.015 C 
ATOM      2  C   LIG A   1      -4.049  -1.209 129.639  0.00  0.00    +0.056 C 
ATOM      3  C   LIG A   1      -4.923  -2.109 128.809  0.00  0.00    +0.144 C 
ATOM      4  O   LIG A   1      -4.910  -3.332 128.910  0.00  0.00    -0.296 OA
ATOM      5  C   LIG A   1      -4.971  -0.422 130.587  0.00  0.00    +0.002 C 
ATOM      6  C   LIG A   1      -6.334   0.120 129.989  0.00  0.00    +0.033 C 
ATOM      7  C   LIG A   1      -7.494   0.005 131.039  0.00  0.00    +0.082 C 
ATOM      8  N   LIG A   1      -7.978  -1.321 130.766  0.00  0.00    -0.311 N 
ATOM      9  H   LIG A   1      -8.716  -1.775 131.297  0.00  0.00    +0.149 HD
ATOM     10  C   LIG A   1      -6.949  -0.658 128.720  0.00  0.00    +0.104 C 
ATOM     11  C   LIG A   1      -7.833  -1.675 129.442  0.00  0.00    +0.224 C 
ATOM     12  O   LIG A   1      -8.400  -2.638 128.940  0.00  0.00    -0.275 OA
ATOM     13  C   LIG A   1      -5.843  -1.339 127.877  0.00  0.00    +0.097 C 
ATOM     14  C   LIG A   1      -6.194  -2.246 126.725  0.00  0.00    -0.019 C 
ATOM     15  C   LIG A   1      -5.510  -2.275 125.567  0.00  0.00    -0.030 C 
ATOM     16  C   LIG A   1      -5.790  -3.276 124.483  0.00  0.00    +0.037 C 
ATOM     17  C   LIG A   1      -6.679  -2.742 123.355  0.00  0.00    +0.059 C 
ATOM     18  C   LIG A   1      -8.033  -2.321 123.929  0.00  0.00    +0.170 C 
ATOM     19  O   LIG A   1      -8.873  -3.208 124.143  0.00  0.00    -0.294 OA
ATOM     20  C   LIG A   1      -5.973  -1.752 122.439  0.00  0.00    +0.016 C 
ATOM     21  C   LIG A   1      -7.816   0.279 127.765  0.00  0.00    +0.224 C 
ATOM     22  C   LIG A   1      -8.942  -0.417 127.003  0.00  0.00    +0.192 C 
ATOM     23  C   LIG A   1      -9.230  -0.786 125.521  0.00  0.00    +0.190 C 
ATOM     24  C   LIG A   1      -8.357  -0.828 124.275  0.00  0.00    +0.149 C 
ATOM     25  C   LIG A   1      -9.191  -0.327 123.078  0.00  0.00    +0.052 C 
ATOM     26  O   LIG A   1      -9.524   0.505 126.045  0.00  0.00    -0.361 OA
ATOM     27  C   LIG A   1      -4.170   0.751 131.184  0.00  0.00    +0.009 C 
ENDROOT
BRANCH  24  28
ATOM     28  O   LIG A   1      -7.265   0.063 124.394  0.00  0.00    -0.379 OA
ATOM     29  H   LIG A   1      -7.490   0.867 123.907  0.00  0.00    +0.211 HD
ENDBRANCH  24  28
BRANCH   7  30
ATOM     30  C   LIG A   1      -7.203   0.289 132.534  0.00  0.00    +0.057 C 
BRANCH  30  31
ATOM     31  C   LIG A   1      -7.700   1.638 133.032  0.00  0.00    -0.046 A 
ATOM     32  C   LIG A   1      -9.006   2.064 132.742  0.00  0.00    +0.003 A 
ATOM     33  C   LIG A   1      -9.485   3.283 133.231  0.00  0.00    +0.000 A 
ATOM     34  C   LIG A   1      -8.668   4.092 134.016  0.00  0.00    +0.000 A 
ATOM     35  C   LIG A   1      -7.369   3.686 134.308  0.00  0.00    +0.000 A 
ATOM     36  C   LIG A   1      -6.885   2.467 133.818  0.00  0.00    +0.003 A 
ENDBRANCH  30  31
ENDBRANCH   7  30
BRANCH  21  37
ATOM     37  O   LIG A   1      -8.476   1.336 128.524  0.00  0.00    -0.458 OA
BRANCH  37  38
ATOM     38  C   LIG A   1      -8.148   2.628 128.233  0.00  0.00    +0.304 C 
ATOM     39  C   LIG A   1      -7.807   3.395 129.485  0.00  0.00    +0.136 C 
ATOM     40  O   LIG A   1      -8.118   3.111 127.117  0.00  0.00    -0.251 OA
ENDBRANCH  37  38
ENDBRANCH  21  37
TORSDOF 5
ENDMDL
MODEL 4
REMARK VINA RESULT:      -9.0      2.980      5.711
REMARK  Name = NuBBE_608
REMARK  10 active torsions:
REMARK  status: ('A' for Active; 'I' for Inactive)
REMARK    1  A    between atoms: C_1  and  C_2
REMARK    2  A    between atoms: C_6  and  C_48
REMARK    3  A    between atoms: C_9  and  C_13
REMARK    4  A    between atoms: C_13  and  C_14
REMARK    5  A    between atoms: C_28  and  C_32
REMARK    6  A    between atoms: C_33  and  O_35
REMARK    7  A    between atoms: O_35  and  C_36
REMARK    8  A    between atoms: C_36  and  C_37
REMARK    9  A    between atoms: C_43  and  C_44
REMARK   10  A    between atoms: C_43  and  O_45
REMARK                            x       y       z     vdW  Elec       q    Type
REMARK                         _______ _______ _______ _____ _____    ______ ____
ROOT
ATOM      1  C   LIG A   1      -5.975  -0.161 131.826  0.00  0.00    +0.015 C 
ATOM      2  C   LIG A   1      -5.847   0.785 130.629  0.00  0.00    +0.056 C 
ATOM      3  C   LIG A   1      -7.107   0.775 129.807  0.00  0.00    +0.144 C 
ATOM      4  O   LIG A   1      -8.151   0.255 130.191  0.00  0.00    -0.296 OA
ATOM      5  C   LIG A   1      -5.581   2.245 131.040  0.00  0.00    +0.002 C 
ATOM      6  C   LIG A   1      -5.830   3.363 129.946  0.00  0.00    +0.033 C 
ATOM      7  C   LIG A   1      -6.455   4.650 130.590  0.00  0.00    +0.082 C 
ATOM      8  N   LIG A   1      -7.858   4.343 130.501  0.00  0.00    -0.311 N 
ATOM      9  H   LIG A   1      -8.591   4.940 130.872  0.00  0.00    +0.149 HD
ATOM     10  C   LIG A   1      -6.877   3.030 128.770  0.00  0.00    +0.104 C 
ATOM     11  C   LIG A   1      -8.161   3.565 129.405  0.00  0.00    +0.224 C 
ATOM     12  O   LIG A   1      -9.303   3.402 128.994  0.00  0.00    -0.275 OA
ATOM     13  C   LIG A   1      -6.954   1.509 128.487  0.00  0.00    +0.097 C 
ATOM     14  C   LIG A   1      -7.975   0.950 127.529  0.00  0.00    -0.019 C 
ATOM     15  C   LIG A   1      -7.717  -0.057 126.674  0.00  0.00    -0.030 C 
ATOM     16  C   LIG A   1      -8.780  -0.691 125.822  0.00  0.00    +0.037 C 
ATOM     17  C   LIG A   1      -8.825  -0.161 124.385  0.00  0.00    +0.059 C 
ATOM     18  C   LIG A   1      -9.112   1.342 124.405  0.00  0.00    +0.170 C 
ATOM     19  O   LIG A   1     -10.287   1.707 124.554  0.00  0.00    -0.294 OA
ATOM     20  C   LIG A   1      -7.665  -0.637 123.522  0.00  0.00    +0.016 C 
ATOM     21  C   LIG A   1      -6.554   3.788 127.405  0.00  0.00    +0.224 C 
ATOM     22  C   LIG A   1      -7.761   4.098 126.521  0.00  0.00    +0.192 C 
ATOM     23  C   LIG A   1      -8.303   3.603 125.151  0.00  0.00    +0.190 C 
ATOM     24  C   LIG A   1      -7.967   2.404 124.276  0.00  0.00    +0.149 C 
ATOM     25  C   LIG A   1      -8.017   2.848 122.800  0.00  0.00    +0.052 C 
ATOM     26  O   LIG A   1      -7.309   4.618 125.243  0.00  0.00    -0.361 OA
ATOM     27  C   LIG A   1      -4.134   2.348 131.560  0.00  0.00    +0.009 C 
ENDROOT
BRANCH  24  28
ATOM     28  O   LIG A   1      -6.644   1.965 124.510  0.00  0.00    -0.379 OA
ATOM     29  H   LIG A   1      -6.052   2.704 124.316  0.00  0.00    +0.211 HD
ENDBRANCH  24  28
BRANCH   7  30
ATOM     30  C   LIG A   1      -5.984   5.110 131.992  0.00  0.00    +0.057 C 
BRANCH  30  31
ATOM     31  C   LIG A   1      -4.914   6.191 131.980  0.00  0.00    -0.046 A 
ATOM     32  C   LIG A   1      -4.091   6.387 133.100  0.00  0.00    +0.003 A 
ATOM     33  C   LIG A   1      -3.077   7.348 133.083  0.00  0.00    +0.000 A 
ATOM     34  C   LIG A   1      -2.870   8.127 131.947  0.00  0.00    +0.000 A 
ATOM     35  C   LIG A   1      -3.681   7.948 130.830  0.00  0.00    +0.000 A 
ATOM     36  C   LIG A   1      -4.699   6.987 130.844  0.00  0.00    +0.003 A 
ENDBRANCH  30  31
ENDBRANCH   7  30
BRANCH  21  37
ATOM     37  O   LIG A   1      -5.934   5.084 127.658  0.00  0.00    -0.458 OA
BRANCH  37  38
ATOM     38  C   LIG A   1      -4.631   5.248 127.286  0.00  0.00    +0.304 C 
ATOM     39  C   LIG A   1      -4.104   4.014 126.599  0.00  0.00    +0.136 C 
ATOM     40  O   LIG A   1      -3.970   6.254 127.465  0.00  0.00    -0.251 OA
ENDBRANCH  37  38
ENDBRANCH  21  37
TORSDOF 5
ENDMDL
MODEL 5
REMARK VINA RESULT:      -9.0      3.265      7.762
REMARK  Name = NuBBE_608
REMARK  10 active torsions:
REMARK  status: ('A' for Active; 'I' for Inactive)
REMARK    1  A    between atoms: C_1  and  C_2
REMARK    2  A    between atoms: C_6  and  C_48
REMARK    3  A    between atoms: C_9  and  C_13
REMARK    4  A    between atoms: C_13  and  C_14
REMARK    5  A    between atoms: C_28  and  C_32
REMARK    6  A    between atoms: C_33  and  O_35
REMARK    7  A    between atoms: O_35  and  C_36
REMARK    8  A    between atoms: C_36  and  C_37
REMARK    9  A    between atoms: C_43  and  C_44
REMARK   10  A    between atoms: C_43  and  O_45
REMARK                            x       y       z     vdW  Elec       q    Type
REMARK                         _______ _______ _______ _____ _____    ______ ____
ROOT
ATOM      1  C   LIG A   1      -9.136   3.279 130.729  0.00  0.00    +0.015 C 
ATOM      2  C   LIG A   1      -8.972   1.969 129.954  0.00  0.00    +0.056 C 
ATOM      3  C   LIG A   1      -8.258   2.209 128.651  0.00  0.00    +0.144 C 
ATOM      4  O   LIG A   1      -7.695   3.266 128.383  0.00  0.00    -0.296 OA
ATOM      5  C   LIG A   1      -8.170   0.907 130.727  0.00  0.00    +0.002 C 
ATOM      6  C   LIG A   1      -7.593  -0.313 129.897  0.00  0.00    +0.033 C 
ATOM      7  C   LIG A   1      -6.169  -0.721 130.414  0.00  0.00    +0.082 C 
ATOM      8  N   LIG A   1      -5.335   0.133 129.613  0.00  0.00    -0.311 N 
ATOM      9  H   LIG A   1      -4.324   0.184 129.706  0.00  0.00    +0.149 HD
ATOM     10  C   LIG A   1      -7.329  -0.082 128.326  0.00  0.00    +0.104 C 
ATOM     11  C   LIG A   1      -5.876   0.391 128.373  0.00  0.00    +0.224 C 
ATOM     12  O   LIG A   1      -5.233   0.872 127.448  0.00  0.00    -0.275 OA
ATOM     13  C   LIG A   1      -8.276   0.994 127.739  0.00  0.00    +0.097 C 
ATOM     14  C   LIG A   1      -8.111   1.482 126.322  0.00  0.00    -0.019 C 
ATOM     15  C   LIG A   1      -9.147   1.756 125.507  0.00  0.00    -0.030 C 
ATOM     16  C   LIG A   1      -8.969   2.367 124.146  0.00  0.00    +0.037 C 
ATOM     17  C   LIG A   1      -8.994   1.351 122.999  0.00  0.00    +0.059 C 
ATOM     18  C   LIG A   1      -7.858   0.344 123.184  0.00  0.00    +0.170 C 
ATOM     19  O   LIG A   1      -6.719   0.683 122.831  0.00  0.00    -0.294 OA
ATOM     20  C   LIG A   1     -10.380   0.792 122.710  0.00  0.00    +0.016 C 
ATOM     21  C   LIG A   1      -7.471  -1.414 127.460  0.00  0.00    +0.224 C 
ATOM     22  C   LIG A   1      -6.617  -1.472 126.195  0.00  0.00    +0.192 C 
ATOM     23  C   LIG A   1      -6.881  -1.440 124.663  0.00  0.00    +0.190 C 
ATOM     24  C   LIG A   1      -8.097  -1.064 123.829  0.00  0.00    +0.149 C 
ATOM     25  C   LIG A   1      -8.182  -2.028 122.629  0.00  0.00    +0.052 C 
ATOM     26  O   LIG A   1      -6.978  -2.644 125.417  0.00  0.00    -0.361 OA
ATOM     27  C   LIG A   1      -9.046   0.376 131.877  0.00  0.00    +0.009 C 
ENDROOT
BRANCH  24  28
ATOM     28  O   LIG A   1      -9.290  -1.246 124.566  0.00  0.00    -0.379 OA
ATOM     29  H   LIG A   1      -9.176  -2.034 125.115  0.00  0.00    +0.211 HD
ENDBRANCH  24  28
BRANCH   7  30
ATOM     30  C   LIG A   1      -5.865  -0.679 131.932  0.00  0.00    +0.057 C 
BRANCH  30  31
ATOM     31  C   LIG A   1      -6.133  -1.982 132.670  0.00  0.00    -0.046 A 
ATOM     32  C   LIG A   1      -7.036  -2.016 133.745  0.00  0.00    +0.003 A 
ATOM     33  C   LIG A   1      -7.321  -3.216 134.402  0.00  0.00    +0.000 A 
ATOM     34  C   LIG A   1      -6.710  -4.399 133.995  0.00  0.00    +0.000 A 
ATOM     35  C   LIG A   1      -5.809  -4.381 132.933  0.00  0.00    +0.000 A 
ATOM     36  C   LIG A   1      -5.519  -3.180 132.274  0.00  0.00    +0.003 A 
ENDBRANCH  30  31
ENDBRANCH   7  30
BRANCH  21  37
ATOM     37  O   LIG A   1      -7.075  -2.586 128.232  0.00  0.00    -0.458 OA
BRANCH  37  38
ATOM     38  C   LIG A   1      -8.064  -3.346 128.787  0.00  0.00    +0.304 C 
ATOM     39  C   LIG A   1      -8.968  -3.916 127.724  0.00  0.00    +0.136 C 
ATOM     40  O   LIG A   1      -8.205  -3.557 129.977  0.00  0.00    -0.251 OA
ENDBRANCH  37  38
ENDBRANCH  21  37
TORSDOF 5
ENDMDL
MODEL 6
REMARK VINA RESULT:      -8.6      3.006      7.261
REMARK  Name = NuBBE_608
REMARK  10 active torsions:
REMARK  status: ('A' for Active; 'I' for Inactive)
REMARK    1  A    between atoms: C_1  and  C_2
REMARK    2  A    between atoms: C_6  and  C_48
REMARK    3  A    between atoms: C_9  and  C_13
REMARK    4  A    between atoms: C_13  and  C_14
REMARK    5  A    between atoms: C_28  and  C_32
REMARK    6  A    between atoms: C_33  and  O_35
REMARK    7  A    between atoms: O_35  and  C_36
REMARK    8  A    between atoms: C_36  and  C_37
REMARK    9  A    between atoms: C_43  and  C_44
REMARK   10  A    between atoms: C_43  and  O_45
REMARK                            x       y       z     vdW  Elec       q    Type
REMARK                         _______ _______ _______ _____ _____    ______ ____
ROOT
ATOM      1  C   LIG A   1      -3.099   3.851 126.220  0.00  0.00    +0.015 C 
ATOM      2  C   LIG A   1      -4.123   3.222 127.168  0.00  0.00    +0.056 C 
ATOM      3  C   LIG A   1      -4.995   4.280 127.787  0.00  0.00    +0.144 C 
ATOM      4  O   LIG A   1      -5.016   5.442 127.393  0.00  0.00    -0.296 OA
ATOM      5  C   LIG A   1      -5.052   2.213 126.469  0.00  0.00    +0.002 C 
ATOM      6  C   LIG A   1      -6.383   1.808 127.226  0.00  0.00    +0.033 C 
ATOM      7  C   LIG A   1      -7.575   1.645 126.218  0.00  0.00    +0.082 C 
ATOM      8  N   LIG A   1      -8.084   2.990 126.181  0.00  0.00    -0.311 N 
ATOM      9  H   LIG A   1      -8.848   3.289 125.582  0.00  0.00    +0.149 HD
ATOM     10  C   LIG A   1      -6.980   2.857 128.290  0.00  0.00    +0.104 C 
ATOM     11  C   LIG A   1      -7.910   3.655 127.375  0.00  0.00    +0.224 C 
ATOM     12  O   LIG A   1      -8.487   4.700 127.650  0.00  0.00    -0.275 OA
ATOM     13  C   LIG A   1      -5.868   3.741 128.907  0.00  0.00    +0.097 C 
ATOM     14  C   LIG A   1      -6.209   4.893 129.818  0.00  0.00    -0.019 C 
ATOM     15  C   LIG A   1      -5.493   5.212 130.911  0.00  0.00    -0.030 C 
ATOM     16  C   LIG A   1      -5.766   6.440 131.732  0.00  0.00    +0.037 C 
ATOM     17  C   LIG A   1      -6.609   6.178 132.984  0.00  0.00    +0.059 C 
ATOM     18  C   LIG A   1      -7.968   5.608 132.575  0.00  0.00    +0.170 C 
ATOM     19  O   LIG A   1      -8.836   6.401 132.182  0.00  0.00    -0.294 OA
ATOM     20  C   LIG A   1      -5.852   5.451 134.087  0.00  0.00    +0.016 C 
ATOM     21  C   LIG A   1      -7.796   2.163 129.472  0.00  0.00    +0.224 C 
ATOM     22  C   LIG A   1      -8.916   3.002 130.081  0.00  0.00    +0.192 C 
ATOM     23  C   LIG A   1      -9.171   3.713 131.441  0.00  0.00    +0.190 C 
ATOM     24  C   LIG A   1      -8.264   4.069 132.609  0.00  0.00    +0.149 C 
ATOM     25  C   LIG A   1      -9.050   3.857 133.919  0.00  0.00    +0.052 C 
ATOM     26  O   LIG A   1      -9.447   2.329 131.253  0.00  0.00    -0.361 OA
ATOM     27  C   LIG A   1      -4.239   0.945 126.145  0.00  0.00    +0.009 C 
ENDROOT
BRANCH  24  28
ATOM     28  O   LIG A   1      -7.154   3.195 132.671  0.00  0.00    -0.379 OA
ATOM     29  H   LIG A   1      -6.700   3.240 131.819  0.00  0.00    +0.211 HD
ENDBRANCH  24  28
BRANCH   7  30
ATOM     30  C   LIG A   1      -7.320   1.014 124.827  0.00  0.00    +0.057 C 
BRANCH  30  31
ATOM     31  C   LIG A   1      -7.519  -0.493 124.767  0.00  0.00    -0.046 A 
ATOM     32  C   LIG A   1      -8.771  -1.055 125.066  0.00  0.00    +0.003 A 
ATOM     33  C   LIG A   1      -8.976  -2.434 124.972  0.00  0.00    +0.000 A 
ATOM     34  C   LIG A   1      -7.935  -3.271 124.579  0.00  0.00    +0.000 A 
ATOM     35  C   LIG A   1      -6.686  -2.730 124.285  0.00  0.00    +0.000 A 
ATOM     36  C   LIG A   1      -6.477  -1.348 124.379  0.00  0.00    +0.003 A 
ENDBRANCH  30  31
ENDBRANCH   7  30
BRANCH  21  37
ATOM     37  O   LIG A   1      -8.450   0.943 129.011  0.00  0.00    -0.458 OA
BRANCH  37  38
ATOM     38  C   LIG A   1      -8.054  -0.239 129.566  0.00  0.00    +0.304 C 
ATOM     39  C   LIG A   1      -7.734  -1.256 128.500  0.00  0.00    +0.136 C 
ATOM     40  O   LIG A   1      -7.954  -0.458 130.759  0.00  0.00    -0.251 OA
ENDBRANCH  37  38
ENDBRANCH  21  37
TORSDOF 5
ENDMDL
MODEL 7
REMARK VINA RESULT:      -8.5      3.081      6.957
REMARK  Name = NuBBE_608
REMARK  10 active torsions:
REMARK  status: ('A' for Active; 'I' for Inactive)
REMARK    1  A    between atoms: C_1  and  C_2
REMARK    2  A    between atoms: C_6  and  C_48
REMARK    3  A    between atoms: C_9  and  C_13
REMARK    4  A    between atoms: C_13  and  C_14
REMARK    5  A    between atoms: C_28  and  C_32
REMARK    6  A    between atoms: C_33  and  O_35
REMARK    7  A    between atoms: O_35  and  C_36
REMARK    8  A    between atoms: C_36  and  C_37
REMARK    9  A    between atoms: C_43  and  C_44
REMARK   10  A    between atoms: C_43  and  O_45
REMARK                            x       y       z     vdW  Elec       q    Type
REMARK                         _______ _______ _______ _____ _____    ______ ____
ROOT
ATOM      1  C   LIG A   1      -9.614   3.622 130.519  0.00  0.00    +0.015 C 
ATOM      2  C   LIG A   1      -9.315   2.277 129.853  0.00  0.00    +0.056 C 
ATOM      3  C   LIG A   1      -8.578   2.477 128.557  0.00  0.00    +0.144 C 
ATOM      4  O   LIG A   1      -8.096   3.555 128.223  0.00  0.00    -0.296 OA
ATOM      5  C   LIG A   1      -8.455   1.348 130.730  0.00  0.00    +0.002 C 
ATOM      6  C   LIG A   1      -7.750   0.123 130.014  0.00  0.00    +0.033 C 
ATOM      7  C   LIG A   1      -6.316  -0.121 130.602  0.00  0.00    +0.082 C 
ATOM      8  N   LIG A   1      -5.528   0.738 129.761  0.00  0.00    -0.311 N 
ATOM      9  H   LIG A   1      -4.529   0.883 129.878  0.00  0.00    +0.149 HD
ATOM     10  C   LIG A   1      -7.452   0.256 128.438  0.00  0.00    +0.104 C 
ATOM     11  C   LIG A   1      -6.045   0.854 128.489  0.00  0.00    +0.224 C 
ATOM     12  O   LIG A   1      -5.412   1.318 127.548  0.00  0.00    -0.275 OA
ATOM     13  C   LIG A   1      -8.463   1.201 127.742  0.00  0.00    +0.097 C 
ATOM     14  C   LIG A   1      -8.290   1.592 126.297  0.00  0.00    -0.019 C 
ATOM     15  C   LIG A   1      -9.316   1.715 125.434  0.00  0.00    -0.030 C 
ATOM     16  C   LIG A   1      -9.142   2.234 124.035  0.00  0.00    +0.037 C 
ATOM     17  C   LIG A   1      -9.042   1.137 122.970  0.00  0.00    +0.059 C 
ATOM     18  C   LIG A   1      -7.833   0.247 123.266  0.00  0.00    +0.170 C 
ATOM     19  O   LIG A   1      -6.715   0.655 122.920  0.00  0.00    -0.294 OA
ATOM     20  C   LIG A   1     -10.366   0.440 122.687  0.00  0.00    +0.016 C 
ATOM     21  C   LIG A   1      -7.452  -1.144 127.675  0.00  0.00    +0.224 C 
ATOM     22  C   LIG A   1      -6.553  -1.224 126.444  0.00  0.00    +0.192 C 
ATOM     23  C   LIG A   1      -6.764  -1.330 124.907  0.00  0.00    +0.190 C 
ATOM     24  C   LIG A   1      -7.977  -1.123 124.012  0.00  0.00    +0.149 C 
ATOM     25  C   LIG A   1      -7.940  -2.180 122.889  0.00  0.00    +0.052 C 
ATOM     26  O   LIG A   1      -6.787  -2.477 125.750  0.00  0.00    -0.361 OA
ATOM     27  C   LIG A   1      -9.324   0.833 131.893  0.00  0.00    +0.009 C 
ENDROOT
BRANCH  24  28
ATOM     28  O   LIG A   1      -9.176  -1.351 124.726  0.00  0.00    -0.379 OA
ATOM     29  H   LIG A   1      -9.565  -0.490 124.926  0.00  0.00    +0.211 HD
ENDBRANCH  24  28
BRANCH   7  30
ATOM     30  C   LIG A   1      -6.070   0.061 132.120  0.00  0.00    +0.057 C 
BRANCH  30  31
ATOM     31  C   LIG A   1      -5.093   1.170 132.477  0.00  0.00    -0.046 A 
ATOM     32  C   LIG A   1      -5.538   2.496 132.597  0.00  0.00    +0.003 A 
ATOM     33  C   LIG A   1      -4.656   3.516 132.966  0.00  0.00    +0.000 A 
ATOM     34  C   LIG A   1      -3.318   3.226 133.220  0.00  0.00    +0.000 A 
ATOM     35  C   LIG A   1      -2.860   1.916 133.100  0.00  0.00    +0.000 A 
ATOM     36  C   LIG A   1      -3.740   0.893 132.729  0.00  0.00    +0.003 A 
ENDBRANCH  30  31
ENDBRANCH   7  30
BRANCH  21  37
ATOM     37  O   LIG A   1      -6.987  -2.217 128.548  0.00  0.00    -0.458 OA
BRANCH  37  38
ATOM     38  C   LIG A   1      -7.925  -3.049 129.088  0.00  0.00    +0.304 C 
ATOM     39  C   LIG A   1      -8.803  -3.641 128.015  0.00  0.00    +0.136 C 
ATOM     40  O   LIG A   1      -8.042  -3.301 130.272  0.00  0.00    -0.251 OA
ENDBRANCH  37  38
ENDBRANCH  21  37
TORSDOF 5
ENDMDL
MODEL 8
REMARK VINA RESULT:      -8.3      3.058      7.080
REMARK  Name = NuBBE_608
REMARK  10 active torsions:
REMARK  status: ('A' for Active; 'I' for Inactive)
REMARK    1  A    between atoms: C_1  and  C_2
REMARK    2  A    between atoms: C_6  and  C_48
REMARK    3  A    between atoms: C_9  and  C_13
REMARK    4  A    between atoms: C_13  and  C_14
REMARK    5  A    between atoms: C_28  and  C_32
REMARK    6  A    between atoms: C_33  and  O_35
REMARK    7  A    between atoms: O_35  and  C_36
REMARK    8  A    between atoms: C_36  and  C_37
REMARK    9  A    between atoms: C_43  and  C_44
REMARK   10  A    between atoms: C_43  and  O_45
REMARK                            x       y       z     vdW  Elec       q    Type
REMARK                         _______ _______ _______ _____ _____    ______ ____
ROOT
ATOM      1  C   LIG A   1      -5.323  -3.714 130.129  0.00  0.00    +0.015 C 
ATOM      2  C   LIG A   1      -5.981  -2.347 130.339  0.00  0.00    +0.056 C 
ATOM      3  C   LIG A   1      -4.945  -1.256 130.357  0.00  0.00    +0.144 C 
ATOM      4  O   LIG A   1      -3.779  -1.437 130.018  0.00  0.00    -0.296 OA
ATOM      5  C   LIG A   1      -7.000  -1.993 129.241  0.00  0.00    +0.002 C 
ATOM      6  C   LIG A   1      -7.436  -0.475 129.119  0.00  0.00    +0.033 C 
ATOM      7  C   LIG A   1      -7.611  -0.060 127.616  0.00  0.00    +0.082 C 
ATOM      8  N   LIG A   1      -6.275   0.367 127.296  0.00  0.00    -0.311 N 
ATOM      9  H   LIG A   1      -5.985   0.669 126.370  0.00  0.00    +0.149 HD
ATOM     10  C   LIG A   1      -6.408   0.639 129.660  0.00  0.00    +0.104 C 
ATOM     11  C   LIG A   1      -5.619   0.909 128.379  0.00  0.00    +0.224 C 
ATOM     12  O   LIG A   1      -4.587   1.562 128.279  0.00  0.00    -0.275 OA
ATOM     13  C   LIG A   1      -5.510   0.084 130.794  0.00  0.00    +0.097 C 
ATOM     14  C   LIG A   1      -4.373   0.902 131.353  0.00  0.00    -0.019 C 
ATOM     15  C   LIG A   1      -4.052   0.931 132.659  0.00  0.00    -0.030 C 
ATOM     16  C   LIG A   1      -2.837   1.644 133.181  0.00  0.00    +0.037 C 
ATOM     17  C   LIG A   1      -3.126   3.040 133.743  0.00  0.00    +0.059 C 
ATOM     18  C   LIG A   1      -3.717   3.921 132.641  0.00  0.00    +0.170 C 
ATOM     19  O   LIG A   1      -2.936   4.434 131.826  0.00  0.00    -0.294 OA
ATOM     20  C   LIG A   1      -3.850   3.020 135.082  0.00  0.00    +0.016 C 
ATOM     21  C   LIG A   1      -7.128   1.963 130.180  0.00  0.00    +0.224 C 
ATOM     22  C   LIG A   1      -6.316   3.249 130.052  0.00  0.00    +0.192 C 
ATOM     23  C   LIG A   1      -5.623   4.239 131.031  0.00  0.00    +0.190 C 
ATOM     24  C   LIG A   1      -5.261   4.154 132.507  0.00  0.00    +0.149 C 
ATOM     25  C   LIG A   1      -5.500   5.535 133.148  0.00  0.00    +0.052 C 
ATOM     26  O   LIG A   1      -7.010   4.333 130.724  0.00  0.00    -0.361 OA
ATOM     27  C   LIG A   1      -8.250  -2.873 129.433  0.00  0.00    +0.009 C 
ENDROOT
BRANCH  24  28
ATOM     28  O   LIG A   1      -6.115   3.253 133.184  0.00  0.00    -0.379 OA
ATOM     29  H   LIG A   1      -6.091   2.413 132.706  0.00  0.00    +0.211 HD
ENDBRANCH  24  28
BRANCH   7  30
ATOM     30  C   LIG A   1      -8.224  -1.066 126.610  0.00  0.00    +0.057 C 
BRANCH  30  31
ATOM     31  C   LIG A   1      -7.288  -1.495 125.491  0.00  0.00    -0.046 A 
ATOM     32  C   LIG A   1      -6.362  -2.530 125.698  0.00  0.00    +0.003 A 
ATOM     33  C   LIG A   1      -5.527  -2.961 124.663  0.00  0.00    +0.000 A 
ATOM     34  C   LIG A   1      -5.605  -2.365 123.407  0.00  0.00    +0.000 A 
ATOM     35  C   LIG A   1      -6.515  -1.334 123.187  0.00  0.00    +0.000 A 
ATOM     36  C   LIG A   1      -7.351  -0.899 124.222  0.00  0.00    +0.003 A 
ENDBRANCH  30  31
ENDBRANCH   7  30
BRANCH  21  37
ATOM     37  O   LIG A   1      -8.355   2.220 129.435  0.00  0.00    -0.458 OA
BRANCH  37  38
ATOM     38  C   LIG A   1      -9.465   2.582 130.141  0.00  0.00    +0.304 C 
ATOM     39  C   LIG A   1      -9.535   1.843 131.454  0.00  0.00    +0.136 C 
ATOM     40  O   LIG A   1     -10.292   3.399 129.783  0.00  0.00    -0.251 OA
ENDBRANCH  37  38
ENDBRANCH  21  37
TORSDOF 5
ENDMDL
MODEL 9
REMARK VINA RESULT:      -8.3      3.630      6.157
REMARK  Name = NuBBE_608
REMARK  10 active torsions:
REMARK  status: ('A' for Active; 'I' for Inactive)
REMARK    1  A    between atoms: C_1  and  C_2
REMARK    2  A    between atoms: C_6  and  C_48
REMARK    3  A    between atoms: C_9  and  C_13
REMARK    4  A    between atoms: C_13  and  C_14
REMARK    5  A    between atoms: C_28  and  C_32
REMARK    6  A    between atoms: C_33  and  O_35
REMARK    7  A    between atoms: O_35  and  C_36
REMARK    8  A    between atoms: C_36  and  C_37
REMARK    9  A    between atoms: C_43  and  C_44
REMARK   10  A    between atoms: C_43  and  O_45
REMARK                            x       y       z     vdW  Elec       q    Type
REMARK                         _______ _______ _______ _____ _____    ______ ____
ROOT
ATOM      1  C   LIG A   1      -5.936  -2.369 132.084  0.00  0.00    +0.015 C 
ATOM      2  C   LIG A   1      -5.696  -1.457 130.878  0.00  0.00    +0.056 C 
ATOM      3  C   LIG A   1      -6.953  -1.309 130.066  0.00  0.00    +0.144 C 
ATOM      4  O   LIG A   1      -8.053  -1.684 130.462  0.00  0.00    -0.296 OA
ATOM      5  C   LIG A   1      -5.238  -0.042 131.275  0.00  0.00    +0.002 C 
ATOM      6  C   LIG A   1      -5.347   1.091 130.173  0.00  0.00    +0.033 C 
ATOM      7  C   LIG A   1      -5.794   2.454 130.811  0.00  0.00    +0.082 C 
ATOM      8  N   LIG A   1      -7.225   2.332 130.734  0.00  0.00    -0.311 N 
ATOM      9  H   LIG A   1      -7.871   3.023 131.106  0.00  0.00    +0.149 HD
ATOM     10  C   LIG A   1      -6.439   0.889 129.007  0.00  0.00    +0.104 C 
ATOM     11  C   LIG A   1      -7.636   1.592 129.648  0.00  0.00    +0.224 C 
ATOM     12  O   LIG A   1      -8.794   1.577 129.247  0.00  0.00    -0.275 OA
ATOM     13  C   LIG A   1      -6.717  -0.610 128.738  0.00  0.00    +0.097 C 
ATOM     14  C   LIG A   1      -7.810  -1.039 127.792  0.00  0.00    -0.019 C 
ATOM     15  C   LIG A   1      -7.693  -2.077 126.944  0.00  0.00    -0.030 C 
ATOM     16  C   LIG A   1      -8.836  -2.573 126.105  0.00  0.00    +0.037 C 
ATOM     17  C   LIG A   1      -8.824  -2.052 124.665  0.00  0.00    +0.059 C 
ATOM     18  C   LIG A   1      -8.912  -0.525 124.673  0.00  0.00    +0.170 C 
ATOM     19  O   LIG A   1     -10.028  -0.008 124.828  0.00  0.00    -0.294 OA
ATOM     20  C   LIG A   1      -7.743  -2.683 123.797  0.00  0.00    +0.016 C 
ATOM     21  C   LIG A   1      -6.031   1.589 127.633  0.00  0.00    +0.224 C 
ATOM     22  C   LIG A   1      -7.194   2.047 126.756  0.00  0.00    +0.192 C 
ATOM     23  C   LIG A   1      -7.808   1.617 125.394  0.00  0.00    +0.190 C 
ATOM     24  C   LIG A   1      -7.639   0.378 124.527  0.00  0.00    +0.149 C 
ATOM     25  C   LIG A   1      -7.642   0.813 123.048  0.00  0.00    +0.052 C 
ATOM     26  O   LIG A   1      -6.689   2.494 125.471  0.00  0.00    -0.361 OA
ATOM     27  C   LIG A   1      -3.786  -0.124 131.783  0.00  0.00    +0.009 C 
ENDROOT
BRANCH  24  28
ATOM     28  O   LIG A   1      -6.382  -0.229 124.756  0.00  0.00    -0.379 OA
ATOM     29  H   LIG A   1      -6.103   0.004 125.651  0.00  0.00    +0.211 HD
ENDBRANCH  24  28
BRANCH   7  30
ATOM     30  C   LIG A   1      -5.255   2.858 132.205  0.00  0.00    +0.057 C 
BRANCH  30  31
ATOM     31  C   LIG A   1      -4.025   3.753 132.176  0.00  0.00    -0.046 A 
ATOM     32  C   LIG A   1      -4.086   5.023 131.580  0.00  0.00    +0.003 A 
ATOM     33  C   LIG A   1      -2.974   5.869 131.585  0.00  0.00    +0.000 A 
ATOM     34  C   LIG A   1      -1.786   5.460 132.186  0.00  0.00    +0.000 A 
ATOM     35  C   LIG A   1      -1.708   4.201 132.776  0.00  0.00    +0.000 A 
ATOM     36  C   LIG A   1      -2.820   3.350 132.771  0.00  0.00    +0.003 A 
ENDBRANCH  30  31
ENDBRANCH   7  30
BRANCH  21  37
ATOM     37  O   LIG A   1      -5.244   2.794 127.871  0.00  0.00    -0.458 OA
BRANCH  37  38
ATOM     38  C   LIG A   1      -3.963   2.820 127.400  0.00  0.00    +0.304 C 
ATOM     39  C   LIG A   1      -3.065   3.604 128.323  0.00  0.00    +0.136 C 
ATOM     40  O   LIG A   1      -3.577   2.279 126.382  0.00  0.00    -0.251 OA
ENDBRANCH  37  38
ENDBRANCH  21  37
TORSDOF 5
ENDMDL
