MODEL 1
REMARK VINA RESULT:      -7.3      0.000      0.000
REMARK  Name = NuBBE_1868
REMARK  11 active torsions:
REMARK  status: ('A' for Active; 'I' for Inactive)
REMARK    1  A    between atoms: C_1  and  O_2
REMARK    2  A    between atoms: O_2  and  C_3
REMARK    3  A    between atoms: C_4  and  C_5
REMARK    4  A    between atoms: C_7  and  O_8
REMARK    5  A    between atoms: C_9  and  O_10
REMARK    6  A    between atoms: O_10  and  C_11
REMARK    7  A    between atoms: C_13  and  O_14
REMARK    8  A    between atoms: C_18  and  O_19
REMARK    9  A    between atoms: O_19  and  C_20
REMARK   10  A    between atoms: C_22  and  O_23
REMARK   11  A    between atoms: O_23  and  C_24
REMARK                            x       y       z     vdW  Elec       q    Type
REMARK                         _______ _______ _______ _____ _____    ______ ____
ROOT
ATOM      1  C   LIG A   1      -8.728   1.442 123.826  0.00  0.00    +0.211 A 
ATOM      2  C   LIG A   1      -8.376   2.719 123.554  0.00  0.00    +0.184 A 
ATOM      3  O   LIG A   1      -8.344   3.729 124.509  0.00  0.00    -0.451 OA
ATOM      4  C   LIG A   1      -8.161   3.343 125.808  0.00  0.00    +0.147 A 
ATOM      5  C   LIG A   1      -8.411   2.039 126.240  0.00  0.00    +0.109 A 
ATOM      6  C   LIG A   1      -8.066   1.639 127.533  0.00  0.00    +0.138 A 
ATOM      7  C   LIG A   1      -7.538   2.599 128.403  0.00  0.00    +0.092 A 
ATOM      8  C   LIG A   1      -7.388   3.932 127.998  0.00  0.00    +0.127 A 
ATOM      9  C   LIG A   1      -7.679   4.304 126.692  0.00  0.00    +0.092 A 
ATOM     10  C   LIG A   1      -9.066   1.175 125.262  0.00  0.00    +0.238 A 
ATOM     11  O   LIG A   1      -9.891   0.331 125.606  0.00  0.00    -0.283 OA
ENDROOT
BRANCH   2  12
ATOM     12  C   LIG A   1      -8.009   3.226 122.220  0.00  0.00    +0.066 A 
ATOM     13  C   LIG A   1      -9.012   3.432 121.266  0.00  0.00    +0.064 A 
ATOM     14  C   LIG A   1      -8.694   3.918 119.991  0.00  0.00    +0.159 A 
ATOM     15  C   LIG A   1      -7.370   4.214 119.649  0.00  0.00    +0.165 A 
ATOM     16  C   LIG A   1      -6.374   4.075 120.625  0.00  0.00    +0.095 A 
ATOM     17  C   LIG A   1      -6.694   3.586 121.897  0.00  0.00    +0.131 A 
BRANCH  14  18
ATOM     18  O   LIG A   1      -9.714   4.118 119.104  0.00  0.00    -0.503 OA
ATOM     19  H   LIG A   1      -9.419   4.725 118.406  0.00  0.00    +0.292 HD
ENDBRANCH  14  18
BRANCH  15  20
ATOM     20  O   LIG A   1      -6.918   4.690 118.444  0.00  0.00    -0.491 OA
ATOM     21  C   LIG A   1      -5.955   5.740 118.504  0.00  0.00    +0.277 C 
ENDBRANCH  15  20
BRANCH  17  22
ATOM     22  O   LIG A   1      -5.712   3.464 122.846  0.00  0.00    -0.506 OA
ATOM     23  H   LIG A   1      -6.077   3.714 123.710  0.00  0.00    +0.292 HD
ENDBRANCH  17  22
ENDBRANCH   2  12
BRANCH   1  25
ATOM     24  C   LIG A   1     -10.186   0.221 122.414  0.00  0.00    +0.277 C 
ATOM     25  O   LIG A   1      -8.845   0.462 122.850  0.00  0.00    -0.488 OA
ENDBRANCH   1  25
BRANCH   6  26
ATOM     26  O   LIG A   1      -8.219   0.318 127.860  0.00  0.00    -0.494 OA
ATOM     27  C   LIG A   1      -7.633  -0.122 129.077  0.00  0.00    +0.277 C 
ENDBRANCH   6  26
BRANCH   8  28
ATOM     28  O   LIG A   1      -6.884   4.778 128.951  0.00  0.00    -0.495 OA
ATOM     29  C   LIG A   1      -5.469   4.736 129.098  0.00  0.00    +0.277 C 
ENDBRANCH   8  28
TORSDOF 7
ENDMDL
MODEL 2
REMARK VINA RESULT:      -7.1      6.259      8.998
REMARK  Name = NuBBE_1868
REMARK  11 active torsions:
REMARK  status: ('A' for Active; 'I' for Inactive)
REMARK    1  A    between atoms: C_1  and  O_2
REMARK    2  A    between atoms: O_2  and  C_3
REMARK    3  A    between atoms: C_4  and  C_5
REMARK    4  A    between atoms: C_7  and  O_8
REMARK    5  A    between atoms: C_9  and  O_10
REMARK    6  A    between atoms: O_10  and  C_11
REMARK    7  A    between atoms: C_13  and  O_14
REMARK    8  A    between atoms: C_18  and  O_19
REMARK    9  A    between atoms: O_19  and  C_20
REMARK   10  A    between atoms: C_22  and  O_23
REMARK   11  A    between atoms: O_23  and  C_24
REMARK                            x       y       z     vdW  Elec       q    Type
REMARK                         _______ _______ _______ _____ _____    ______ ____
ROOT
ATOM      1  C   LIG A   1      -9.107   4.610 130.583  0.00  0.00    +0.211 A 
ATOM      2  C   LIG A   1      -9.688   5.638 131.243  0.00  0.00    +0.184 A 
ATOM      3  O   LIG A   1      -9.545   5.856 132.608  0.00  0.00    -0.451 OA
ATOM      4  C   LIG A   1      -8.419   5.354 133.198  0.00  0.00    +0.147 A 
ATOM      5  C   LIG A   1      -7.661   4.338 132.613  0.00  0.00    +0.109 A 
ATOM      6  C   LIG A   1      -6.435   3.958 133.163  0.00  0.00    +0.138 A 
ATOM      7  C   LIG A   1      -6.027   4.568 134.354  0.00  0.00    +0.092 A 
ATOM      8  C   LIG A   1      -6.840   5.512 134.994  0.00  0.00    +0.127 A 
ATOM      9  C   LIG A   1      -8.029   5.925 134.407  0.00  0.00    +0.092 A 
ATOM     10  C   LIG A   1      -8.261   3.714 131.436  0.00  0.00    +0.238 A 
ATOM     11  O   LIG A   1      -8.126   2.513 131.212  0.00  0.00    -0.283 OA
ENDROOT
BRANCH   2  12
ATOM     12  C   LIG A   1     -10.567   6.646 130.624  0.00  0.00    +0.066 A 
ATOM     13  C   LIG A   1     -10.130   7.329 129.483  0.00  0.00    +0.064 A 
ATOM     14  C   LIG A   1     -10.946   8.287 128.870  0.00  0.00    +0.159 A 
ATOM     15  C   LIG A   1     -12.217   8.576 129.380  0.00  0.00    +0.165 A 
ATOM     16  C   LIG A   1     -12.684   7.845 130.480  0.00  0.00    +0.095 A 
ATOM     17  C   LIG A   1     -11.866   6.890 131.093  0.00  0.00    +0.131 A 
BRANCH  14  18
ATOM     18  O   LIG A   1     -10.477   8.912 127.748  0.00  0.00    -0.503 OA
ATOM     19  H   LIG A   1     -10.366   9.859 127.930  0.00  0.00    +0.292 HD
ENDBRANCH  14  18
BRANCH  15  20
ATOM     20  O   LIG A   1     -13.115   9.488 128.885  0.00  0.00    -0.491 OA
ATOM     21  C   LIG A   1     -13.395  10.610 129.718  0.00  0.00    +0.277 C 
ENDBRANCH  15  20
BRANCH  17  22
ATOM     22  O   LIG A   1     -12.338   6.174 132.162  0.00  0.00    -0.506 OA
ATOM     23  H   LIG A   1     -13.216   5.822 131.943  0.00  0.00    +0.292 HD
ENDBRANCH  17  22
ENDBRANCH   2  12
BRANCH   1  25
ATOM     24  C   LIG A   1      -8.149   4.395 128.428  0.00  0.00    +0.277 C 
ATOM     25  O   LIG A   1      -9.327   4.349 129.238  0.00  0.00    -0.488 OA
ENDBRANCH   1  25
BRANCH   6  26
ATOM     26  O   LIG A   1      -5.678   3.044 132.478  0.00  0.00    -0.494 OA
ATOM     27  C   LIG A   1      -4.373   3.444 132.086  0.00  0.00    +0.277 C 
ENDBRANCH   6  26
BRANCH   8  28
ATOM     28  O   LIG A   1      -6.339   6.017 136.165  0.00  0.00    -0.495 OA
ATOM     29  C   LIG A   1      -7.317   6.305 137.157  0.00  0.00    +0.277 C 
ENDBRANCH   8  28
TORSDOF 7
ENDMDL
MODEL 3
REMARK VINA RESULT:      -7.1      2.585      7.096
REMARK  Name = NuBBE_1868
REMARK  11 active torsions:
REMARK  status: ('A' for Active; 'I' for Inactive)
REMARK    1  A    between atoms: C_1  and  O_2
REMARK    2  A    between atoms: O_2  and  C_3
REMARK    3  A    between atoms: C_4  and  C_5
REMARK    4  A    between atoms: C_7  and  O_8
REMARK    5  A    between atoms: C_9  and  O_10
REMARK    6  A    between atoms: O_10  and  C_11
REMARK    7  A    between atoms: C_13  and  O_14
REMARK    8  A    between atoms: C_18  and  O_19
REMARK    9  A    between atoms: O_19  and  C_20
REMARK   10  A    between atoms: C_22  and  O_23
REMARK   11  A    between atoms: O_23  and  C_24
REMARK                            x       y       z     vdW  Elec       q    Type
REMARK                         _______ _______ _______ _____ _____    ______ ____
ROOT
ATOM      1  C   LIG A   1      -6.466   2.845 126.520  0.00  0.00    +0.211 A 
ATOM      2  C   LIG A   1      -5.401   3.505 126.010  0.00  0.00    +0.184 A 
ATOM      3  O   LIG A   1      -5.082   3.521 124.657  0.00  0.00    -0.451 OA
ATOM      4  C   LIG A   1      -6.109   3.314 123.779  0.00  0.00    +0.147 A 
ATOM      5  C   LIG A   1      -7.307   2.710 124.163  0.00  0.00    +0.109 A 
ATOM      6  C   LIG A   1      -8.391   2.656 123.284  0.00  0.00    +0.138 A 
ATOM      7  C   LIG A   1      -8.216   3.152 121.988  0.00  0.00    +0.092 A 
ATOM      8  C   LIG A   1      -6.979   3.662 121.573  0.00  0.00    +0.127 A 
ATOM      9  C   LIG A   1      -5.927   3.764 122.474  0.00  0.00    +0.092 A 
ATOM     10  C   LIG A   1      -7.312   2.137 125.506  0.00  0.00    +0.238 A 
ATOM     11  O   LIG A   1      -7.922   1.099 125.756  0.00  0.00    -0.283 OA
ENDROOT
BRANCH   2  12
ATOM     12  C   LIG A   1      -4.422   4.267 126.805  0.00  0.00    +0.066 A 
ATOM     13  C   LIG A   1      -4.744   5.560 127.231  0.00  0.00    +0.064 A 
ATOM     14  C   LIG A   1      -3.836   6.306 127.993  0.00  0.00    +0.159 A 
ATOM     15  C   LIG A   1      -2.593   5.771 128.350  0.00  0.00    +0.165 A 
ATOM     16  C   LIG A   1      -2.297   4.452 127.984  0.00  0.00    +0.095 A 
ATOM     17  C   LIG A   1      -3.204   3.709 127.219  0.00  0.00    +0.131 A 
BRANCH  14  18
ATOM     18  O   LIG A   1      -4.208   7.558 128.397  0.00  0.00    -0.503 OA
ATOM     19  H   LIG A   1      -4.136   8.172 127.649  0.00  0.00    +0.292 HD
ENDBRANCH  14  18
BRANCH  15  20
ATOM     20  O   LIG A   1      -1.612   6.388 129.085  0.00  0.00    -0.491 OA
ATOM     21  C   LIG A   1      -1.761   6.335 130.502  0.00  0.00    +0.277 C 
ENDBRANCH  15  20
BRANCH  17  22
ATOM     22  O   LIG A   1      -2.907   2.416 126.877  0.00  0.00    -0.506 OA
ATOM     23  H   LIG A   1      -3.095   1.838 127.634  0.00  0.00    +0.292 HD
ENDBRANCH  17  22
ENDBRANCH   2  12
BRANCH   1  25
ATOM     24  C   LIG A   1      -7.796   3.595 128.330  0.00  0.00    +0.277 C 
ATOM     25  O   LIG A   1      -6.726   2.760 127.882  0.00  0.00    -0.488 OA
ENDBRANCH   1  25
BRANCH   6  26
ATOM     26  O   LIG A   1      -9.579   2.163 123.756  0.00  0.00    -0.494 OA
ATOM     27  C   LIG A   1     -10.159   1.077 123.049  0.00  0.00    +0.277 C 
ENDBRANCH   6  26
BRANCH   8  28
ATOM     28  O   LIG A   1      -6.930   4.093 120.274  0.00  0.00    -0.495 OA
ATOM     29  C   LIG A   1      -5.740   4.788 119.920  0.00  0.00    +0.277 C 
ENDBRANCH   8  28
TORSDOF 7
ENDMDL
MODEL 4
REMARK VINA RESULT:      -7.0      7.424      8.660
REMARK  Name = NuBBE_1868
REMARK  11 active torsions:
REMARK  status: ('A' for Active; 'I' for Inactive)
REMARK    1  A    between atoms: C_1  and  O_2
REMARK    2  A    between atoms: O_2  and  C_3
REMARK    3  A    between atoms: C_4  and  C_5
REMARK    4  A    between atoms: C_7  and  O_8
REMARK    5  A    between atoms: C_9  and  O_10
REMARK    6  A    between atoms: O_10  and  C_11
REMARK    7  A    between atoms: C_13  and  O_14
REMARK    8  A    between atoms: C_18  and  O_19
REMARK    9  A    between atoms: O_19  and  C_20
REMARK   10  A    between atoms: C_22  and  O_23
REMARK   11  A    between atoms: O_23  and  C_24
REMARK                            x       y       z     vdW  Elec       q    Type
REMARK                         _______ _______ _______ _____ _____    ______ ____
ROOT
ATOM      1  C   LIG A   1      -8.865   4.781 131.431  0.00  0.00    +0.211 A 
ATOM      2  C   LIG A   1      -8.844   6.093 131.100  0.00  0.00    +0.184 A 
ATOM      3  O   LIG A   1      -7.732   6.910 131.263  0.00  0.00    -0.451 OA
ATOM      4  C   LIG A   1      -6.510   6.295 131.268  0.00  0.00    +0.147 A 
ATOM      5  C   LIG A   1      -6.365   4.930 131.522  0.00  0.00    +0.109 A 
ATOM      6  C   LIG A   1      -5.125   4.306 131.365  0.00  0.00    +0.138 A 
ATOM      7  C   LIG A   1      -4.024   5.098 131.024  0.00  0.00    +0.092 A 
ATOM      8  C   LIG A   1      -4.154   6.485 130.874  0.00  0.00    +0.127 A 
ATOM      9  C   LIG A   1      -5.403   7.085 130.975  0.00  0.00    +0.092 A 
ATOM     10  C   LIG A   1      -7.574   4.249 131.976  0.00  0.00    +0.238 A 
ATOM     11  O   LIG A   1      -7.524   3.343 132.805  0.00  0.00    -0.283 OA
ENDROOT
BRANCH   2  12
ATOM     12  C   LIG A   1      -9.989   6.842 130.553  0.00  0.00    +0.066 A 
ATOM     13  C   LIG A   1      -9.858   7.489 129.319  0.00  0.00    +0.064 A 
ATOM     14  C   LIG A   1     -10.931   8.203 128.771  0.00  0.00    +0.159 A 
ATOM     15  C   LIG A   1     -12.156   8.278 129.443  0.00  0.00    +0.165 A 
ATOM     16  C   LIG A   1     -12.312   7.573 130.644  0.00  0.00    +0.095 A 
ATOM     17  C   LIG A   1     -11.237   6.863 131.191  0.00  0.00    +0.131 A 
BRANCH  14  18
ATOM     18  O   LIG A   1     -10.754   8.802 127.555  0.00  0.00    -0.503 OA
ATOM     19  H   LIG A   1      -9.964   9.365 127.586  0.00  0.00    +0.292 HD
ENDBRANCH  14  18
BRANCH  15  20
ATOM     20  O   LIG A   1     -13.283   8.941 129.027  0.00  0.00    -0.491 OA
ATOM     21  C   LIG A   1     -13.394  10.305 129.427  0.00  0.00    +0.277 C 
ENDBRANCH  15  20
BRANCH  17  22
ATOM     22  O   LIG A   1     -11.404   6.170 132.361  0.00  0.00    -0.506 OA
ATOM     23  H   LIG A   1     -11.532   5.230 132.155  0.00  0.00    +0.292 HD
ENDBRANCH  17  22
ENDBRANCH   2  12
BRANCH   1  25
ATOM     24  C   LIG A   1     -10.003   3.063 130.263  0.00  0.00    +0.277 C 
ATOM     25  O   LIG A   1     -10.007   3.995 131.348  0.00  0.00    -0.488 OA
ENDBRANCH   1  25
BRANCH   6  26
ATOM     26  O   LIG A   1      -5.068   2.944 131.507  0.00  0.00    -0.494 OA
ATOM     27  C   LIG A   1      -3.941   2.408 132.183  0.00  0.00    +0.277 C 
ENDBRANCH   6  26
BRANCH   8  28
ATOM     28  O   LIG A   1      -2.997   7.150 130.565  0.00  0.00    -0.495 OA
ATOM     29  C   LIG A   1      -2.145   6.471 129.650  0.00  0.00    +0.277 C 
ENDBRANCH   8  28
TORSDOF 7
ENDMDL
MODEL 5
REMARK VINA RESULT:      -6.9      7.439      9.249
REMARK  Name = NuBBE_1868
REMARK  11 active torsions:
REMARK  status: ('A' for Active; 'I' for Inactive)
REMARK    1  A    between atoms: C_1  and  O_2
REMARK    2  A    between atoms: O_2  and  C_3
REMARK    3  A    between atoms: C_4  and  C_5
REMARK    4  A    between atoms: C_7  and  O_8
REMARK    5  A    between atoms: C_9  and  O_10
REMARK    6  A    between atoms: O_10  and  C_11
REMARK    7  A    between atoms: C_13  and  O_14
REMARK    8  A    between atoms: C_18  and  O_19
REMARK    9  A    between atoms: O_19  and  C_20
REMARK   10  A    between atoms: C_22  and  O_23
REMARK   11  A    between atoms: O_23  and  C_24
REMARK                            x       y       z     vdW  Elec       q    Type
REMARK                         _______ _______ _______ _____ _____    ______ ____
ROOT
ATOM      1  C   LIG A   1      -8.432   5.257 132.827  0.00  0.00    +0.211 A 
ATOM      2  C   LIG A   1      -8.613   6.124 131.805  0.00  0.00    +0.184 A 
ATOM      3  O   LIG A   1      -7.629   6.993 131.349  0.00  0.00    -0.451 OA
ATOM      4  C   LIG A   1      -6.330   6.626 131.573  0.00  0.00    +0.147 A 
ATOM      5  C   LIG A   1      -5.979   5.688 132.545  0.00  0.00    +0.109 A 
ATOM      6  C   LIG A   1      -4.666   5.221 132.641  0.00  0.00    +0.138 A 
ATOM      7  C   LIG A   1      -3.703   5.776 131.791  0.00  0.00    +0.092 A 
ATOM      8  C   LIG A   1      -4.040   6.794 130.889  0.00  0.00    +0.127 A 
ATOM      9  C   LIG A   1      -5.360   7.207 130.762  0.00  0.00    +0.092 A 
ATOM     10  C   LIG A   1      -7.062   5.278 133.435  0.00  0.00    +0.238 A 
ATOM     11  O   LIG A   1      -6.856   5.035 134.622  0.00  0.00    -0.283 OA
ENDROOT
BRANCH   2  12
ATOM     12  C   LIG A   1      -9.871   6.292 131.056  0.00  0.00    +0.066 A 
ATOM     13  C   LIG A   1     -11.033   6.661 131.741  0.00  0.00    +0.064 A 
ATOM     14  C   LIG A   1     -12.241   6.833 131.055  0.00  0.00    +0.159 A 
ATOM     15  C   LIG A   1     -12.309   6.647 129.670  0.00  0.00    +0.165 A 
ATOM     16  C   LIG A   1     -11.133   6.347 128.971  0.00  0.00    +0.095 A 
ATOM     17  C   LIG A   1      -9.927   6.171 129.660  0.00  0.00    +0.131 A 
BRANCH  14  18
ATOM     18  O   LIG A   1     -13.343   7.211 131.771  0.00  0.00    -0.503 OA
ATOM     19  H   LIG A   1     -13.892   6.431 131.951  0.00  0.00    +0.292 HD
ENDBRANCH  14  18
BRANCH  15  20
ATOM     20  O   LIG A   1     -13.420   6.778 128.875  0.00  0.00    -0.491 OA
ATOM     21  C   LIG A   1     -13.495   7.966 128.090  0.00  0.00    +0.277 C 
ENDBRANCH  15  20
BRANCH  17  22
ATOM     22  O   LIG A   1      -8.781   5.887 128.965  0.00  0.00    -0.506 OA
ATOM     23  H   LIG A   1      -9.017   5.641 128.055  0.00  0.00    +0.292 HD
ENDBRANCH  17  22
ENDBRANCH   2  12
BRANCH   1  25
ATOM     24  C   LIG A   1      -9.238   3.054 133.153  0.00  0.00    +0.277 C 
ATOM     25  O   LIG A   1      -9.447   4.457 133.334  0.00  0.00    -0.488 OA
ENDBRANCH   1  25
BRANCH   6  26
ATOM     26  O   LIG A   1      -4.406   4.211 133.530  0.00  0.00    -0.494 OA
ATOM     27  C   LIG A   1      -3.329   4.405 134.436  0.00  0.00    +0.277 C 
ENDBRANCH   6  26
BRANCH   8  28
ATOM     28  O   LIG A   1      -3.003   7.270 130.132  0.00  0.00    -0.495 OA
ATOM     29  C   LIG A   1      -2.251   6.270 129.454  0.00  0.00    +0.277 C 
ENDBRANCH   8  28
TORSDOF 7
ENDMDL
MODEL 6
REMARK VINA RESULT:      -6.9      2.956      6.254
REMARK  Name = NuBBE_1868
REMARK  11 active torsions:
REMARK  status: ('A' for Active; 'I' for Inactive)
REMARK    1  A    between atoms: C_1  and  O_2
REMARK    2  A    between atoms: O_2  and  C_3
REMARK    3  A    between atoms: C_4  and  C_5
REMARK    4  A    between atoms: C_7  and  O_8
REMARK    5  A    between atoms: C_9  and  O_10
REMARK    6  A    between atoms: O_10  and  C_11
REMARK    7  A    between atoms: C_13  and  O_14
REMARK    8  A    between atoms: C_18  and  O_19
REMARK    9  A    between atoms: O_19  and  C_20
REMARK   10  A    between atoms: C_22  and  O_23
REMARK   11  A    between atoms: O_23  and  C_24
REMARK                            x       y       z     vdW  Elec       q    Type
REMARK                         _______ _______ _______ _____ _____    ______ ____
ROOT
ATOM      1  C   LIG A   1      -7.711   1.569 125.342  0.00  0.00    +0.211 A 
ATOM      2  C   LIG A   1      -6.931   1.587 126.447  0.00  0.00    +0.184 A 
ATOM      3  O   LIG A   1      -7.116   0.739 127.533  0.00  0.00    -0.451 OA
ATOM      4  C   LIG A   1      -7.744  -0.450 127.287  0.00  0.00    +0.147 A 
ATOM      5  C   LIG A   1      -8.530  -0.657 126.152  0.00  0.00    +0.109 A 
ATOM      6  C   LIG A   1      -9.027  -1.927 125.852  0.00  0.00    +0.138 A 
ATOM      7  C   LIG A   1      -8.781  -2.964 126.758  0.00  0.00    +0.092 A 
ATOM      8  C   LIG A   1      -8.081  -2.729 127.949  0.00  0.00    +0.127 A 
ATOM      9  C   LIG A   1      -7.541  -1.475 128.207  0.00  0.00    +0.092 A 
ATOM     10  C   LIG A   1      -8.797   0.538 125.355  0.00  0.00    +0.238 A 
ATOM     11  O   LIG A   1      -9.878   0.701 124.793  0.00  0.00    -0.283 OA
ENDROOT
BRANCH   2  12
ATOM     12  C   LIG A   1      -5.806   2.512 126.670  0.00  0.00    +0.066 A 
ATOM     13  C   LIG A   1      -4.495   2.043 126.529  0.00  0.00    +0.064 A 
ATOM     14  C   LIG A   1      -3.406   2.901 126.728  0.00  0.00    +0.159 A 
ATOM     15  C   LIG A   1      -3.606   4.244 127.065  0.00  0.00    +0.165 A 
ATOM     16  C   LIG A   1      -4.918   4.733 127.139  0.00  0.00    +0.095 A 
ATOM     17  C   LIG A   1      -6.005   3.873 126.943  0.00  0.00    +0.131 A 
BRANCH  14  18
ATOM     18  O   LIG A   1      -2.147   2.396 126.560  0.00  0.00    -0.503 OA
ATOM     19  H   LIG A   1      -2.123   1.854 125.754  0.00  0.00    +0.292 HD
ENDBRANCH  14  18
BRANCH  15  20
ATOM     20  O   LIG A   1      -2.638   5.189 127.292  0.00  0.00    -0.491 OA
ATOM     21  C   LIG A   1      -2.559   5.704 128.619  0.00  0.00    +0.277 C 
ENDBRANCH  15  20
BRANCH  17  22
ATOM     22  O   LIG A   1      -7.282   4.364 127.008  0.00  0.00    -0.506 OA
ATOM     23  H   LIG A   1      -7.411   4.794 127.869  0.00  0.00    +0.292 HD
ENDBRANCH  17  22
ENDBRANCH   2  12
BRANCH   1  25
ATOM     24  C   LIG A   1      -7.002   1.931 123.111  0.00  0.00    +0.277 C 
ATOM     25  O   LIG A   1      -7.574   2.479 124.302  0.00  0.00    -0.488 OA
ENDBRANCH   1  25
BRANCH   6  26
ATOM     26  O   LIG A   1      -9.686  -2.096 124.663  0.00  0.00    -0.494 OA
ATOM     27  C   LIG A   1      -9.331  -3.224 123.877  0.00  0.00    +0.277 C 
ENDBRANCH   6  26
BRANCH   8  28
ATOM     28  O   LIG A   1      -7.928  -3.820 128.762  0.00  0.00    -0.495 OA
ATOM     29  C   LIG A   1      -7.098  -3.607 129.897  0.00  0.00    +0.277 C 
ENDBRANCH   8  28
TORSDOF 7
ENDMDL
MODEL 7
REMARK VINA RESULT:      -6.7      2.183      4.153
REMARK  Name = NuBBE_1868
REMARK  11 active torsions:
REMARK  status: ('A' for Active; 'I' for Inactive)
REMARK    1  A    between atoms: C_1  and  O_2
REMARK    2  A    between atoms: O_2  and  C_3
REMARK    3  A    between atoms: C_4  and  C_5
REMARK    4  A    between atoms: C_7  and  O_8
REMARK    5  A    between atoms: C_9  and  O_10
REMARK    6  A    between atoms: O_10  and  C_11
REMARK    7  A    between atoms: C_13  and  O_14
REMARK    8  A    between atoms: C_18  and  O_19
REMARK    9  A    between atoms: O_19  and  C_20
REMARK   10  A    between atoms: C_22  and  O_23
REMARK   11  A    between atoms: O_23  and  C_24
REMARK                            x       y       z     vdW  Elec       q    Type
REMARK                         _______ _______ _______ _____ _____    ______ ____
ROOT
ATOM      1  C   LIG A   1      -5.907   3.020 124.895  0.00  0.00    +0.211 A 
ATOM      2  C   LIG A   1      -6.559   2.350 123.917  0.00  0.00    +0.184 A 
ATOM      3  O   LIG A   1      -6.880   1.000 123.990  0.00  0.00    -0.451 OA
ATOM      4  C   LIG A   1      -7.006   0.464 125.242  0.00  0.00    +0.147 A 
ATOM      5  C   LIG A   1      -6.453   1.069 126.371  0.00  0.00    +0.109 A 
ATOM      6  C   LIG A   1      -6.733   0.582 127.649  0.00  0.00    +0.138 A 
ATOM      7  C   LIG A   1      -7.517  -0.572 127.759  0.00  0.00    +0.092 A 
ATOM      8  C   LIG A   1      -7.983  -1.237 126.618  0.00  0.00    +0.127 A 
ATOM      9  C   LIG A   1      -7.747  -0.709 125.355  0.00  0.00    +0.092 A 
ATOM     10  C   LIG A   1      -5.566   2.198 126.100  0.00  0.00    +0.238 A 
ATOM     11  O   LIG A   1      -4.568   2.405 126.787  0.00  0.00    -0.283 OA
ENDROOT
BRANCH   2  12
ATOM     12  C   LIG A   1      -6.993   2.940 122.637  0.00  0.00    +0.066 A 
ATOM     13  C   LIG A   1      -6.032   3.451 121.758  0.00  0.00    +0.064 A 
ATOM     14  C   LIG A   1      -6.414   4.011 120.532  0.00  0.00    +0.159 A 
ATOM     15  C   LIG A   1      -7.761   4.065 120.160  0.00  0.00    +0.165 A 
ATOM     16  C   LIG A   1      -8.719   3.491 121.007  0.00  0.00    +0.095 A 
ATOM     17  C   LIG A   1      -8.335   2.935 122.233  0.00  0.00    +0.131 A 
BRANCH  14  18
ATOM     18  O   LIG A   1      -5.433   4.480 119.704  0.00  0.00    -0.503 OA
ATOM     19  H   LIG A   1      -4.771   3.784 119.563  0.00  0.00    +0.292 HD
ENDBRANCH  14  18
BRANCH  15  20
ATOM     20  O   LIG A   1      -8.274   4.586 118.999  0.00  0.00    -0.491 OA
ATOM     21  C   LIG A   1      -9.676   4.417 118.799  0.00  0.00    +0.277 C 
ENDBRANCH  15  20
BRANCH  17  22
ATOM     22  O   LIG A   1      -9.279   2.368 123.049  0.00  0.00    -0.506 OA
ATOM     23  H   LIG A   1     -10.151   2.459 122.631  0.00  0.00    +0.292 HD
ENDBRANCH  17  22
ENDBRANCH   2  12
BRANCH   1  25
ATOM     24  C   LIG A   1      -6.451   5.290 125.295  0.00  0.00    +0.277 C 
ATOM     25  O   LIG A   1      -5.511   4.346 124.774  0.00  0.00    -0.488 OA
ENDBRANCH   1  25
BRANCH   6  26
ATOM     26  O   LIG A   1      -6.264   1.289 128.725  0.00  0.00    -0.494 OA
ATOM     27  C   LIG A   1      -5.540   0.567 129.711  0.00  0.00    +0.277 C 
ENDBRANCH   6  26
BRANCH   8  28
ATOM     28  O   LIG A   1      -8.718  -2.368 126.860  0.00  0.00    -0.495 OA
ATOM     29  C   LIG A   1      -9.384  -2.901 125.722  0.00  0.00    +0.277 C 
ENDBRANCH   8  28
TORSDOF 7
ENDMDL
MODEL 8
REMARK VINA RESULT:      -6.7      7.120      9.320
REMARK  Name = NuBBE_1868
REMARK  11 active torsions:
REMARK  status: ('A' for Active; 'I' for Inactive)
REMARK    1  A    between atoms: C_1  and  O_2
REMARK    2  A    between atoms: O_2  and  C_3
REMARK    3  A    between atoms: C_4  and  C_5
REMARK    4  A    between atoms: C_7  and  O_8
REMARK    5  A    between atoms: C_9  and  O_10
REMARK    6  A    between atoms: O_10  and  C_11
REMARK    7  A    between atoms: C_13  and  O_14
REMARK    8  A    between atoms: C_18  and  O_19
REMARK    9  A    between atoms: O_19  and  C_20
REMARK   10  A    between atoms: C_22  and  O_23
REMARK   11  A    between atoms: O_23  and  C_24
REMARK                            x       y       z     vdW  Elec       q    Type
REMARK                         _______ _______ _______ _____ _____    ______ ____
ROOT
ATOM      1  C   LIG A   1      -9.091   3.584 131.904  0.00  0.00    +0.211 A 
ATOM      2  C   LIG A   1      -9.388   4.838 132.317  0.00  0.00    +0.184 A 
ATOM      3  O   LIG A   1      -9.072   5.327 133.579  0.00  0.00    -0.451 OA
ATOM      4  C   LIG A   1      -8.017   4.741 134.221  0.00  0.00    +0.147 A 
ATOM      5  C   LIG A   1      -7.538   3.478 133.869  0.00  0.00    +0.109 A 
ATOM      6  C   LIG A   1      -6.365   2.978 134.437  0.00  0.00    +0.138 A 
ATOM      7  C   LIG A   1      -5.729   3.742 135.422  0.00  0.00    +0.092 A 
ATOM      8  C   LIG A   1      -6.271   4.961 135.848  0.00  0.00    +0.127 A 
ATOM      9  C   LIG A   1      -7.405   5.476 135.233  0.00  0.00    +0.092 A 
ATOM     10  C   LIG A   1      -8.362   2.747 132.910  0.00  0.00    +0.238 A 
ATOM     11  O   LIG A   1      -8.493   1.526 132.981  0.00  0.00    -0.283 OA
ENDROOT
BRANCH   2  12
ATOM     12  C   LIG A   1     -10.104   5.843 131.511  0.00  0.00    +0.066 A 
ATOM     13  C   LIG A   1     -11.441   6.130 131.806  0.00  0.00    +0.064 A 
ATOM     14  C   LIG A   1     -12.146   7.085 131.061  0.00  0.00    +0.159 A 
ATOM     15  C   LIG A   1     -11.525   7.775 130.014  0.00  0.00    +0.165 A 
ATOM     16  C   LIG A   1     -10.167   7.539 129.762  0.00  0.00    +0.095 A 
ATOM     17  C   LIG A   1      -9.466   6.582 130.505  0.00  0.00    +0.131 A 
BRANCH  14  18
ATOM     18  O   LIG A   1     -13.444   7.340 131.402  0.00  0.00    -0.503 OA
ATOM     19  H   LIG A   1     -13.467   8.021 132.094  0.00  0.00    +0.292 HD
ENDBRANCH  14  18
BRANCH  15  20
ATOM     20  O   LIG A   1     -12.092   8.727 129.205  0.00  0.00    -0.491 OA
ATOM     21  C   LIG A   1     -12.818   8.242 128.077  0.00  0.00    +0.277 C 
ENDBRANCH  15  20
BRANCH  17  22
ATOM     22  O   LIG A   1      -8.135   6.367 130.257  0.00  0.00    -0.506 OA
ATOM     23  H   LIG A   1      -7.742   7.188 129.919  0.00  0.00    +0.292 HD
ENDBRANCH  17  22
ENDBRANCH   2  12
BRANCH   1  25
ATOM     24  C   LIG A   1      -8.429   2.925 129.728  0.00  0.00    +0.277 C 
ATOM     25  O   LIG A   1      -9.490   3.075 130.675  0.00  0.00    -0.488 OA
ENDBRANCH   1  25
BRANCH   6  26
ATOM     26  O   LIG A   1      -5.877   1.788 133.963  0.00  0.00    -0.494 OA
ATOM     27  C   LIG A   1      -5.627   0.764 134.914  0.00  0.00    +0.277 C 
ENDBRANCH   6  26
BRANCH   8  28
ATOM     28  O   LIG A   1      -5.568   5.600 136.835  0.00  0.00    -0.495 OA
ATOM     29  C   LIG A   1      -5.020   4.741 137.828  0.00  0.00    +0.277 C 
ENDBRANCH   8  28
TORSDOF 7
ENDMDL
MODEL 9
REMARK VINA RESULT:      -6.5      2.233      8.228
REMARK  Name = NuBBE_1868
REMARK  11 active torsions:
REMARK  status: ('A' for Active; 'I' for Inactive)
REMARK    1  A    between atoms: C_1  and  O_2
REMARK    2  A    between atoms: O_2  and  C_3
REMARK    3  A    between atoms: C_4  and  C_5
REMARK    4  A    between atoms: C_7  and  O_8
REMARK    5  A    between atoms: C_9  and  O_10
REMARK    6  A    between atoms: O_10  and  C_11
REMARK    7  A    between atoms: C_13  and  O_14
REMARK    8  A    between atoms: C_18  and  O_19
REMARK    9  A    between atoms: O_19  and  C_20
REMARK   10  A    between atoms: C_22  and  O_23
REMARK   11  A    between atoms: O_23  and  C_24
REMARK                            x       y       z     vdW  Elec       q    Type
REMARK                         _______ _______ _______ _____ _____    ______ ____
ROOT
ATOM      1  C   LIG A   1      -6.478   4.531 126.838  0.00  0.00    +0.211 A 
ATOM      2  C   LIG A   1      -7.532   3.777 127.226  0.00  0.00    +0.184 A 
ATOM      3  O   LIG A   1      -8.563   3.399 126.374  0.00  0.00    -0.451 OA
ATOM      4  C   LIG A   1      -8.271   3.341 125.039  0.00  0.00    +0.147 A 
ATOM      5  C   LIG A   1      -7.174   4.005 124.488  0.00  0.00    +0.109 A 
ATOM      6  C   LIG A   1      -6.814   3.799 123.155  0.00  0.00    +0.138 A 
ATOM      7  C   LIG A   1      -7.626   2.972 122.371  0.00  0.00    +0.092 A 
ATOM      8  C   LIG A   1      -8.786   2.390 122.901  0.00  0.00    +0.127 A 
ATOM      9  C   LIG A   1      -9.100   2.556 124.244  0.00  0.00    +0.092 A 
ATOM     10  C   LIG A   1      -6.484   4.922 125.391  0.00  0.00    +0.238 A 
ATOM     11  O   LIG A   1      -6.002   5.977 124.984  0.00  0.00    -0.283 OA
ENDROOT
BRANCH   2  12
ATOM     12  C   LIG A   1      -7.752   3.277 128.595  0.00  0.00    +0.066 A 
ATOM     13  C   LIG A   1      -6.966   2.223 129.073  0.00  0.00    +0.064 A 
ATOM     14  C   LIG A   1      -7.148   1.731 130.372  0.00  0.00    +0.159 A 
ATOM     15  C   LIG A   1      -8.112   2.288 131.219  0.00  0.00    +0.165 A 
ATOM     16  C   LIG A   1      -8.851   3.389 130.767  0.00  0.00    +0.095 A 
ATOM     17  C   LIG A   1      -8.671   3.877 129.467  0.00  0.00    +0.131 A 
BRANCH  14  18
ATOM     18  O   LIG A   1      -6.341   0.712 130.795  0.00  0.00    -0.503 OA
ATOM     19  H   LIG A   1      -6.801   0.202 131.482  0.00  0.00    +0.292 HD
ENDBRANCH  14  18
BRANCH  15  20
ATOM     20  O   LIG A   1      -8.398   1.906 132.505  0.00  0.00    -0.491 OA
ATOM     21  C   LIG A   1      -9.061   2.873 133.316  0.00  0.00    +0.277 C 
ENDBRANCH  15  20
BRANCH  17  22
ATOM     22  O   LIG A   1      -9.393   4.960 129.040  0.00  0.00    -0.506 OA
ATOM     23  H   LIG A   1      -9.288   5.050 128.078  0.00  0.00    +0.292 HD
ENDBRANCH  17  22
ENDBRANCH   2  12
BRANCH   1  25
ATOM     24  C   LIG A   1      -4.223   4.360 127.540  0.00  0.00    +0.277 C 
ATOM     25  O   LIG A   1      -5.500   4.979 127.716  0.00  0.00    -0.488 OA
ENDBRANCH   1  25
BRANCH   6  26
ATOM     26  O   LIG A   1      -5.659   4.380 122.702  0.00  0.00    -0.494 OA
ATOM     27  C   LIG A   1      -5.359   4.242 121.321  0.00  0.00    +0.277 C 
ENDBRANCH   6  26
BRANCH   8  28
ATOM     28  O   LIG A   1      -9.507   1.623 122.025  0.00  0.00    -0.495 OA
ATOM     29  C   LIG A   1     -10.205   0.536 122.620  0.00  0.00    +0.277 C 
ENDBRANCH   8  28
TORSDOF 7
ENDMDL
