MODEL 1
REMARK VINA RESULT:      -6.0      0.000      0.000
REMARK  Name = NuBBE_1789
REMARK  14 active torsions:
REMARK  status: ('A' for Active; 'I' for Inactive)
REMARK    1  A    between atoms: C_1  and  C_2
REMARK    2  A    between atoms: C_1  and  C_7
REMARK    3  A    between atoms: C_2  and  C_4
REMARK    4  A    between atoms: C_2  and  O_6
REMARK    5  A    between atoms: C_4  and  O_5
REMARK    6  A    between atoms: C_10  and  C_15
REMARK    7  A    between atoms: C_15  and  C_16
REMARK    8  A    between atoms: C_16  and  C_17
REMARK    9  A    between atoms: C_17  and  C_18
REMARK   10  A    between atoms: C_18  and  C_19
REMARK   11  A    between atoms: C_19  and  C_20
REMARK   12  A    between atoms: C_20  and  C_21
REMARK   13  A    between atoms: C_21  and  C_22
REMARK   14  A    between atoms: C_22  and  C_23
REMARK                            x       y       z     vdW  Elec       q    Type
REMARK                         _______ _______ _______ _____ _____    ______ ____
ROOT
ATOM      1  C   LIG A   1      -7.259   2.293 124.137  0.00  0.00    +0.104 C 
ATOM      2  C   LIG A   1      -7.504   0.883 123.613  0.00  0.00    +0.059 C 
ATOM      3  C   LIG A   1      -8.927   0.955 123.076  0.00  0.00    +0.177 C 
ATOM      4  O   LIG A   1      -9.579   1.860 123.962  0.00  0.00    -0.461 OA
ATOM      5  C   LIG A   1      -8.657   2.712 124.521  0.00  0.00    +0.311 C 
ATOM      6  O   LIG A   1      -8.967   3.693 125.155  0.00  0.00    -0.251 OA
ENDROOT
BRANCH   1   7
ATOM      7  C   LIG A   1      -6.203   2.310 125.266  0.00  0.00    +0.048 C 
BRANCH   7   8
ATOM      8  C   LIG A   1      -5.543   3.656 125.645  0.00  0.00    +0.141 C 
BRANCH   8   9
ATOM      9  O   LIG A   1      -4.143   3.404 125.875  0.00  0.00    -0.390 OA
ATOM     10  H   LIG A   1      -3.881   3.975 126.628  0.00  0.00    +0.210 HD
ENDBRANCH   8   9
BRANCH   8  11
ATOM     11  C   LIG A   1      -5.659   4.779 124.603  0.00  0.00    +0.187 C 
BRANCH  11  12
ATOM     12  O   LIG A   1      -6.664   5.713 125.011  0.00  0.00    -0.393 OA
ATOM     13  H   LIG A   1      -6.316   6.182 125.791  0.00  0.00    +0.209 HD
ENDBRANCH  11  12
ENDBRANCH   8  11
ENDBRANCH   7   8
ENDBRANCH   1   7
BRANCH   3  14
ATOM     14  C   LIG A   1      -9.688  -0.381 123.068  0.00  0.00    +0.045 C 
BRANCH  14  15
ATOM     15  C   LIG A   1      -8.817  -1.579 122.638  0.00  0.00    +0.003 C 
BRANCH  15  16
ATOM     16  C   LIG A   1      -9.291  -2.917 123.228  0.00  0.00    +0.000 C 
BRANCH  16  17
ATOM     17  C   LIG A   1      -9.139  -3.104 124.748  0.00  0.00    -0.000 C 
BRANCH  17  18
ATOM     18  C   LIG A   1      -7.741  -3.460 125.288  0.00  0.00    +0.000 C 
BRANCH  18  19
ATOM     19  C   LIG A   1      -6.930  -2.240 125.740  0.00  0.00    +0.000 C 
BRANCH  19  20
ATOM     20  C   LIG A   1      -5.602  -2.018 124.996  0.00  0.00    +0.004 C 
BRANCH  20  21
ATOM     21  C   LIG A   1      -5.523  -2.633 123.597  0.00  0.00    +0.026 C 
BRANCH  21  22
ATOM     22  C   LIG A   1      -4.347  -3.555 123.441  0.00  0.00    -0.035 C 
ATOM     23  C   LIG A   1      -4.428  -4.883 123.593  0.00  0.00    +0.004 C 
ENDBRANCH  21  22
ENDBRANCH  20  21
ENDBRANCH  19  20
ENDBRANCH  18  19
ENDBRANCH  17  18
ENDBRANCH  16  17
ENDBRANCH  15  16
ENDBRANCH  14  15
ENDBRANCH   3  14
TORSDOF 14
ENDMDL
MODEL 2
REMARK VINA RESULT:      -6.0      1.230      2.096
REMARK  Name = NuBBE_1789
REMARK  14 active torsions:
REMARK  status: ('A' for Active; 'I' for Inactive)
REMARK    1  A    between atoms: C_1  and  C_2
REMARK    2  A    between atoms: C_1  and  C_7
REMARK    3  A    between atoms: C_2  and  C_4
REMARK    4  A    between atoms: C_2  and  O_6
REMARK    5  A    between atoms: C_4  and  O_5
REMARK    6  A    between atoms: C_10  and  C_15
REMARK    7  A    between atoms: C_15  and  C_16
REMARK    8  A    between atoms: C_16  and  C_17
REMARK    9  A    between atoms: C_17  and  C_18
REMARK   10  A    between atoms: C_18  and  C_19
REMARK   11  A    between atoms: C_19  and  C_20
REMARK   12  A    between atoms: C_20  and  C_21
REMARK   13  A    between atoms: C_21  and  C_22
REMARK   14  A    between atoms: C_22  and  C_23
REMARK                            x       y       z     vdW  Elec       q    Type
REMARK                         _______ _______ _______ _____ _____    ______ ____
ROOT
ATOM      1  C   LIG A   1      -8.401   1.191 123.464  0.00  0.00    +0.104 C 
ATOM      2  C   LIG A   1      -7.665  -0.106 123.152  0.00  0.00    +0.059 C 
ATOM      3  C   LIG A   1      -8.769  -1.015 122.631  0.00  0.00    +0.177 C 
ATOM      4  O   LIG A   1      -9.912  -0.628 123.386  0.00  0.00    -0.461 OA
ATOM      5  C   LIG A   1      -9.777   0.674 123.804  0.00  0.00    +0.311 C 
ATOM      6  O   LIG A   1     -10.684   1.304 124.295  0.00  0.00    -0.251 OA
ENDROOT
BRANCH   1   7
ATOM      7  C   LIG A   1      -7.684   2.008 124.564  0.00  0.00    +0.048 C 
BRANCH   7   8
ATOM      8  C   LIG A   1      -7.819   3.549 124.552  0.00  0.00    +0.141 C 
BRANCH   8   9
ATOM      9  O   LIG A   1      -9.090   3.877 125.148  0.00  0.00    -0.390 OA
ATOM     10  H   LIG A   1      -9.002   4.789 125.497  0.00  0.00    +0.210 HD
ENDBRANCH   8   9
BRANCH   8  11
ATOM     11  C   LIG A   1      -6.727   4.325 125.303  0.00  0.00    +0.187 C 
BRANCH  11  12
ATOM     12  O   LIG A   1      -6.842   5.722 125.014  0.00  0.00    -0.393 OA
ATOM     13  H   LIG A   1      -6.085   6.164 125.440  0.00  0.00    +0.209 HD
ENDBRANCH  11  12
ENDBRANCH   8  11
ENDBRANCH   7   8
ENDBRANCH   1   7
BRANCH   3  14
ATOM     14  C   LIG A   1      -8.519  -2.520 122.826  0.00  0.00    +0.045 C 
BRANCH  14  15
ATOM     15  C   LIG A   1      -9.417  -3.154 123.908  0.00  0.00    +0.003 C 
BRANCH  15  16
ATOM     16  C   LIG A   1      -8.621  -3.808 125.050  0.00  0.00    +0.000 C 
BRANCH  16  17
ATOM     17  C   LIG A   1      -8.873  -3.276 126.472  0.00  0.00    -0.000 C 
BRANCH  17  18
ATOM     18  C   LIG A   1      -7.684  -2.647 127.221  0.00  0.00    +0.000 C 
BRANCH  18  19
ATOM     19  C   LIG A   1      -6.808  -1.751 126.338  0.00  0.00    +0.000 C 
BRANCH  19  20
ATOM     20  C   LIG A   1      -5.540  -2.418 125.774  0.00  0.00    +0.004 C 
BRANCH  20  21
ATOM     21  C   LIG A   1      -5.178  -2.030 124.338  0.00  0.00    +0.026 C 
BRANCH  21  22
ATOM     22  C   LIG A   1      -4.921  -3.227 123.468  0.00  0.00    -0.035 C 
ATOM     23  C   LIG A   1      -4.685  -4.452 123.953  0.00  0.00    +0.004 C 
ENDBRANCH  21  22
ENDBRANCH  20  21
ENDBRANCH  19  20
ENDBRANCH  18  19
ENDBRANCH  17  18
ENDBRANCH  16  17
ENDBRANCH  15  16
ENDBRANCH  14  15
ENDBRANCH   3  14
TORSDOF 14
ENDMDL
MODEL 3
REMARK VINA RESULT:      -5.9      2.364      3.408
REMARK  Name = NuBBE_1789
REMARK  14 active torsions:
REMARK  status: ('A' for Active; 'I' for Inactive)
REMARK    1  A    between atoms: C_1  and  C_2
REMARK    2  A    between atoms: C_1  and  C_7
REMARK    3  A    between atoms: C_2  and  C_4
REMARK    4  A    between atoms: C_2  and  O_6
REMARK    5  A    between atoms: C_4  and  O_5
REMARK    6  A    between atoms: C_10  and  C_15
REMARK    7  A    between atoms: C_15  and  C_16
REMARK    8  A    between atoms: C_16  and  C_17
REMARK    9  A    between atoms: C_17  and  C_18
REMARK   10  A    between atoms: C_18  and  C_19
REMARK   11  A    between atoms: C_19  and  C_20
REMARK   12  A    between atoms: C_20  and  C_21
REMARK   13  A    between atoms: C_21  and  C_22
REMARK   14  A    between atoms: C_22  and  C_23
REMARK                            x       y       z     vdW  Elec       q    Type
REMARK                         _______ _______ _______ _____ _____    ______ ____
ROOT
ATOM      1  C   LIG A   1      -7.015   2.480 122.628  0.00  0.00    +0.104 C 
ATOM      2  C   LIG A   1      -7.074   1.751 123.965  0.00  0.00    +0.059 C 
ATOM      3  C   LIG A   1      -8.473   1.149 123.970  0.00  0.00    +0.177 C 
ATOM      4  O   LIG A   1      -9.260   2.114 123.280  0.00  0.00    -0.461 OA
ATOM      5  C   LIG A   1      -8.466   2.840 122.424  0.00  0.00    +0.311 C 
ATOM      6  O   LIG A   1      -8.913   3.587 121.586  0.00  0.00    -0.251 OA
ENDROOT
BRANCH   1   7
ATOM      7  C   LIG A   1      -6.014   3.659 122.662  0.00  0.00    +0.048 C 
BRANCH   7   8
ATOM      8  C   LIG A   1      -5.260   4.030 121.365  0.00  0.00    +0.141 C 
BRANCH   8   9
ATOM      9  O   LIG A   1      -6.248   4.327 120.358  0.00  0.00    -0.390 OA
ATOM     10  H   LIG A   1      -7.106   4.014 120.715  0.00  0.00    +0.210 HD
ENDBRANCH   8   9
BRANCH   8  11
ATOM     11  C   LIG A   1      -4.305   5.230 121.463  0.00  0.00    +0.187 C 
BRANCH  11  12
ATOM     12  O   LIG A   1      -4.645   6.199 120.466  0.00  0.00    -0.393 OA
ATOM     13  H   LIG A   1      -3.855   6.323 119.908  0.00  0.00    +0.209 HD
ENDBRANCH  11  12
ENDBRANCH   8  11
ENDBRANCH   7   8
ENDBRANCH   1   7
BRANCH   3  14
ATOM     14  C   LIG A   1      -9.074   0.910 125.364  0.00  0.00    +0.045 C 
BRANCH  14  15
ATOM     15  C   LIG A   1      -8.046   0.396 126.393  0.00  0.00    +0.003 C 
BRANCH  15  16
ATOM     16  C   LIG A   1      -8.236  -1.087 126.752  0.00  0.00    +0.000 C 
BRANCH  16  17
ATOM     17  C   LIG A   1      -7.070  -2.039 126.434  0.00  0.00    -0.000 C 
BRANCH  17  18
ATOM     18  C   LIG A   1      -5.779  -1.422 125.866  0.00  0.00    +0.000 C 
BRANCH  18  19
ATOM     19  C   LIG A   1      -5.561  -1.720 124.377  0.00  0.00    +0.000 C 
BRANCH  19  20
ATOM     20  C   LIG A   1      -6.562  -2.704 123.748  0.00  0.00    +0.004 C 
BRANCH  20  21
ATOM     21  C   LIG A   1      -7.511  -2.100 122.709  0.00  0.00    +0.026 C 
BRANCH  21  22
ATOM     22  C   LIG A   1      -8.955  -2.262 123.089  0.00  0.00    -0.035 C 
ATOM     23  C   LIG A   1      -9.442  -3.359 123.682  0.00  0.00    +0.004 C 
ENDBRANCH  21  22
ENDBRANCH  20  21
ENDBRANCH  19  20
ENDBRANCH  18  19
ENDBRANCH  17  18
ENDBRANCH  16  17
ENDBRANCH  15  16
ENDBRANCH  14  15
ENDBRANCH   3  14
TORSDOF 14
ENDMDL
MODEL 4
REMARK VINA RESULT:      -5.7      1.896      3.453
REMARK  Name = NuBBE_1789
REMARK  14 active torsions:
REMARK  status: ('A' for Active; 'I' for Inactive)
REMARK    1  A    between atoms: C_1  and  C_2
REMARK    2  A    between atoms: C_1  and  C_7
REMARK    3  A    between atoms: C_2  and  C_4
REMARK    4  A    between atoms: C_2  and  O_6
REMARK    5  A    between atoms: C_4  and  O_5
REMARK    6  A    between atoms: C_10  and  C_15
REMARK    7  A    between atoms: C_15  and  C_16
REMARK    8  A    between atoms: C_16  and  C_17
REMARK    9  A    between atoms: C_17  and  C_18
REMARK   10  A    between atoms: C_18  and  C_19
REMARK   11  A    between atoms: C_19  and  C_20
REMARK   12  A    between atoms: C_20  and  C_21
REMARK   13  A    between atoms: C_21  and  C_22
REMARK   14  A    between atoms: C_22  and  C_23
REMARK                            x       y       z     vdW  Elec       q    Type
REMARK                         _______ _______ _______ _____ _____    ______ ____
ROOT
ATOM      1  C   LIG A   1      -8.416   0.888 123.514  0.00  0.00    +0.104 C 
ATOM      2  C   LIG A   1      -8.040  -0.425 122.839  0.00  0.00    +0.059 C 
ATOM      3  C   LIG A   1      -9.177  -1.357 123.235  0.00  0.00    +0.177 C 
ATOM      4  O   LIG A   1      -9.526  -0.929 124.547  0.00  0.00    -0.461 OA
ATOM      5  C   LIG A   1      -9.188   0.394 124.713  0.00  0.00    +0.311 C 
ATOM      6  O   LIG A   1      -9.548   1.050 125.661  0.00  0.00    -0.251 OA
ENDROOT
BRANCH   1   7
ATOM      7  C   LIG A   1      -7.173   1.759 123.810  0.00  0.00    +0.048 C 
BRANCH   7   8
ATOM      8  C   LIG A   1      -7.318   3.298 123.770  0.00  0.00    +0.141 C 
BRANCH   8   9
ATOM      9  O   LIG A   1      -8.384   3.610 122.852  0.00  0.00    -0.390 OA
ATOM     10  H   LIG A   1      -9.094   4.023 123.387  0.00  0.00    +0.210 HD
ENDBRANCH   8   9
BRANCH   8  11
ATOM     11  C   LIG A   1      -7.630   3.978 125.112  0.00  0.00    +0.187 C 
BRANCH  11  12
ATOM     12  O   LIG A   1      -9.047   4.026 125.309  0.00  0.00    -0.393 OA
ATOM     13  H   LIG A   1      -9.461   3.853 124.444  0.00  0.00    +0.209 HD
ENDBRANCH  11  12
ENDBRANCH   8  11
ENDBRANCH   7   8
ENDBRANCH   1   7
BRANCH   3  14
ATOM     14  C   LIG A   1      -8.812  -2.850 123.271  0.00  0.00    +0.045 C 
BRANCH  14  15
ATOM     15  C   LIG A   1      -8.065  -3.267 124.555  0.00  0.00    +0.003 C 
BRANCH  15  16
ATOM     16  C   LIG A   1      -6.563  -3.509 124.331  0.00  0.00    +0.000 C 
BRANCH  16  17
ATOM     17  C   LIG A   1      -5.588  -2.732 125.234  0.00  0.00    -0.000 C 
BRANCH  17  18
ATOM     18  C   LIG A   1      -5.970  -1.294 125.629  0.00  0.00    +0.000 C 
BRANCH  18  19
ATOM     19  C   LIG A   1      -6.451  -1.165 127.079  0.00  0.00    +0.000 C 
BRANCH  19  20
ATOM     20  C   LIG A   1      -5.833  -2.166 128.070  0.00  0.00    +0.004 C 
BRANCH  20  21
ATOM     21  C   LIG A   1      -6.835  -2.934 128.937  0.00  0.00    +0.026 C 
BRANCH  21  22
ATOM     22  C   LIG A   1      -8.222  -2.919 128.361  0.00  0.00    -0.035 C 
ATOM     23  C   LIG A   1      -8.879  -4.026 127.995  0.00  0.00    +0.004 C 
ENDBRANCH  21  22
ENDBRANCH  20  21
ENDBRANCH  19  20
ENDBRANCH  18  19
ENDBRANCH  17  18
ENDBRANCH  16  17
ENDBRANCH  15  16
ENDBRANCH  14  15
ENDBRANCH   3  14
TORSDOF 14
ENDMDL
MODEL 5
REMARK VINA RESULT:      -5.6      2.158      3.193
REMARK  Name = NuBBE_1789
REMARK  14 active torsions:
REMARK  status: ('A' for Active; 'I' for Inactive)
REMARK    1  A    between atoms: C_1  and  C_2
REMARK    2  A    between atoms: C_1  and  C_7
REMARK    3  A    between atoms: C_2  and  C_4
REMARK    4  A    between atoms: C_2  and  O_6
REMARK    5  A    between atoms: C_4  and  O_5
REMARK    6  A    between atoms: C_10  and  C_15
REMARK    7  A    between atoms: C_15  and  C_16
REMARK    8  A    between atoms: C_16  and  C_17
REMARK    9  A    between atoms: C_17  and  C_18
REMARK   10  A    between atoms: C_18  and  C_19
REMARK   11  A    between atoms: C_19  and  C_20
REMARK   12  A    between atoms: C_20  and  C_21
REMARK   13  A    between atoms: C_21  and  C_22
REMARK   14  A    between atoms: C_22  and  C_23
REMARK                            x       y       z     vdW  Elec       q    Type
REMARK                         _______ _______ _______ _____ _____    ______ ____
ROOT
ATOM      1  C   LIG A   1      -7.031   1.967 123.386  0.00  0.00    +0.104 C 
ATOM      2  C   LIG A   1      -6.378   1.711 124.738  0.00  0.00    +0.059 C 
ATOM      3  C   LIG A   1      -7.195   0.559 125.307  0.00  0.00    +0.177 C 
ATOM      4  O   LIG A   1      -8.511   0.804 124.821  0.00  0.00    -0.461 OA
ATOM      5  C   LIG A   1      -8.451   1.535 123.658  0.00  0.00    +0.311 C 
ATOM      6  O   LIG A   1      -9.409   1.712 122.943  0.00  0.00    -0.251 OA
ENDROOT
BRANCH   1   7
ATOM      7  C   LIG A   1      -6.836   3.428 122.921  0.00  0.00    +0.048 C 
BRANCH   7   8
ATOM      8  C   LIG A   1      -6.408   3.692 121.458  0.00  0.00    +0.141 C 
BRANCH   8   9
ATOM      9  O   LIG A   1      -5.662   2.543 121.011  0.00  0.00    -0.390 OA
ATOM     10  H   LIG A   1      -5.112   2.260 121.772  0.00  0.00    +0.210 HD
ENDBRANCH   8   9
BRANCH   8  11
ATOM     11  C   LIG A   1      -7.549   3.937 120.459  0.00  0.00    +0.187 C 
BRANCH  11  12
ATOM     12  O   LIG A   1      -8.795   4.018 121.159  0.00  0.00    -0.393 OA
ATOM     13  H   LIG A   1      -9.309   4.734 120.743  0.00  0.00    +0.209 HD
ENDBRANCH  11  12
ENDBRANCH   8  11
ENDBRANCH   7   8
ENDBRANCH   1   7
BRANCH   3  14
ATOM     14  C   LIG A   1      -7.229   0.480 126.841  0.00  0.00    +0.045 C 
BRANCH  14  15
ATOM     15  C   LIG A   1      -8.010  -0.739 127.374  0.00  0.00    +0.003 C 
BRANCH  15  16
ATOM     16  C   LIG A   1      -7.507  -2.077 126.806  0.00  0.00    +0.000 C 
BRANCH  16  17
ATOM     17  C   LIG A   1      -8.574  -3.099 126.376  0.00  0.00    -0.000 C 
BRANCH  17  18
ATOM     18  C   LIG A   1      -9.247  -2.898 125.006  0.00  0.00    +0.000 C 
BRANCH  18  19
ATOM     19  C   LIG A   1      -8.342  -3.258 123.821  0.00  0.00    +0.000 C 
BRANCH  19  20
ATOM     20  C   LIG A   1      -7.995  -2.093 122.878  0.00  0.00    +0.004 C 
BRANCH  20  21
ATOM     21  C   LIG A   1      -6.503  -1.892 122.603  0.00  0.00    +0.026 C 
BRANCH  21  22
ATOM     22  C   LIG A   1      -5.638  -2.476 123.683  0.00  0.00    -0.035 C 
ATOM     23  C   LIG A   1      -4.632  -3.326 123.442  0.00  0.00    +0.004 C 
ENDBRANCH  21  22
ENDBRANCH  20  21
ENDBRANCH  19  20
ENDBRANCH  18  19
ENDBRANCH  17  18
ENDBRANCH  16  17
ENDBRANCH  15  16
ENDBRANCH  14  15
ENDBRANCH   3  14
TORSDOF 14
ENDMDL
MODEL 6
REMARK VINA RESULT:      -5.6      2.267      3.810
REMARK  Name = NuBBE_1789
REMARK  14 active torsions:
REMARK  status: ('A' for Active; 'I' for Inactive)
REMARK    1  A    between atoms: C_1  and  C_2
REMARK    2  A    between atoms: C_1  and  C_7
REMARK    3  A    between atoms: C_2  and  C_4
REMARK    4  A    between atoms: C_2  and  O_6
REMARK    5  A    between atoms: C_4  and  O_5
REMARK    6  A    between atoms: C_10  and  C_15
REMARK    7  A    between atoms: C_15  and  C_16
REMARK    8  A    between atoms: C_16  and  C_17
REMARK    9  A    between atoms: C_17  and  C_18
REMARK   10  A    between atoms: C_18  and  C_19
REMARK   11  A    between atoms: C_19  and  C_20
REMARK   12  A    between atoms: C_20  and  C_21
REMARK   13  A    between atoms: C_21  and  C_22
REMARK   14  A    between atoms: C_22  and  C_23
REMARK                            x       y       z     vdW  Elec       q    Type
REMARK                         _______ _______ _______ _____ _____    ______ ____
ROOT
ATOM      1  C   LIG A   1      -8.408   0.341 123.213  0.00  0.00    +0.104 C 
ATOM      2  C   LIG A   1      -7.759  -0.869 123.874  0.00  0.00    +0.059 C 
ATOM      3  C   LIG A   1      -8.448  -2.046 123.196  0.00  0.00    +0.177 C 
ATOM      4  O   LIG A   1      -9.773  -1.576 122.965  0.00  0.00    -0.461 OA
ATOM      5  C   LIG A   1      -9.773  -0.205 122.874  0.00  0.00    +0.311 C 
ATOM      6  O   LIG A   1     -10.729   0.429 122.493  0.00  0.00    -0.251 OA
ENDROOT
BRANCH   1   7
ATOM      7  C   LIG A   1      -8.374   1.583 124.133  0.00  0.00    +0.048 C 
BRANCH   7   8
ATOM      8  C   LIG A   1      -7.968   2.946 123.526  0.00  0.00    +0.141 C 
BRANCH   8   9
ATOM      9  O   LIG A   1      -8.455   3.977 124.408  0.00  0.00    -0.390 OA
ATOM     10  H   LIG A   1      -7.851   4.741 124.296  0.00  0.00    +0.210 HD
ENDBRANCH   8   9
BRANCH   8  11
ATOM     11  C   LIG A   1      -6.461   3.168 123.321  0.00  0.00    +0.187 C 
BRANCH  11  12
ATOM     12  O   LIG A   1      -6.167   4.567 123.388  0.00  0.00    -0.393 OA
ATOM     13  H   LIG A   1      -6.708   4.938 124.108  0.00  0.00    +0.209 HD
ENDBRANCH  11  12
ENDBRANCH   8  11
ENDBRANCH   7   8
ENDBRANCH   1   7
BRANCH   3  14
ATOM     14  C   LIG A   1      -8.507  -3.335 124.031  0.00  0.00    +0.045 C 
BRANCH  14  15
ATOM     15  C   LIG A   1      -8.000  -3.152 125.476  0.00  0.00    +0.003 C 
BRANCH  15  16
ATOM     16  C   LIG A   1      -9.130  -3.143 126.519  0.00  0.00    +0.000 C 
BRANCH  16  17
ATOM     17  C   LIG A   1      -8.919  -3.989 127.787  0.00  0.00    -0.000 C 
BRANCH  17  18
ATOM     18  C   LIG A   1      -8.441  -3.265 129.058  0.00  0.00    +0.000 C 
BRANCH  18  19
ATOM     19  C   LIG A   1      -6.914  -3.170 129.173  0.00  0.00    +0.000 C 
BRANCH  19  20
ATOM     20  C   LIG A   1      -6.337  -1.744 129.147  0.00  0.00    +0.004 C 
BRANCH  20  21
ATOM     21  C   LIG A   1      -5.808  -1.275 127.790  0.00  0.00    +0.026 C 
BRANCH  21  22
ATOM     22  C   LIG A   1      -6.545  -0.074 127.271  0.00  0.00    -0.035 C 
ATOM     23  C   LIG A   1      -7.825   0.188 127.564  0.00  0.00    +0.004 C 
ENDBRANCH  21  22
ENDBRANCH  20  21
ENDBRANCH  19  20
ENDBRANCH  18  19
ENDBRANCH  17  18
ENDBRANCH  16  17
ENDBRANCH  15  16
ENDBRANCH  14  15
ENDBRANCH   3  14
TORSDOF 14
ENDMDL
MODEL 7
REMARK VINA RESULT:      -5.5      2.665      3.690
REMARK  Name = NuBBE_1789
REMARK  14 active torsions:
REMARK  status: ('A' for Active; 'I' for Inactive)
REMARK    1  A    between atoms: C_1  and  C_2
REMARK    2  A    between atoms: C_1  and  C_7
REMARK    3  A    between atoms: C_2  and  C_4
REMARK    4  A    between atoms: C_2  and  O_6
REMARK    5  A    between atoms: C_4  and  O_5
REMARK    6  A    between atoms: C_10  and  C_15
REMARK    7  A    between atoms: C_15  and  C_16
REMARK    8  A    between atoms: C_16  and  C_17
REMARK    9  A    between atoms: C_17  and  C_18
REMARK   10  A    between atoms: C_18  and  C_19
REMARK   11  A    between atoms: C_19  and  C_20
REMARK   12  A    between atoms: C_20  and  C_21
REMARK   13  A    between atoms: C_21  and  C_22
REMARK   14  A    between atoms: C_22  and  C_23
REMARK                            x       y       z     vdW  Elec       q    Type
REMARK                         _______ _______ _______ _____ _____    ______ ____
ROOT
ATOM      1  C   LIG A   1      -7.971   0.676 123.326  0.00  0.00    +0.104 C 
ATOM      2  C   LIG A   1      -7.607  -0.803 123.322  0.00  0.00    +0.059 C 
ATOM      3  C   LIG A   1      -8.872  -1.471 122.800  0.00  0.00    +0.177 C 
ATOM      4  O   LIG A   1      -9.922  -0.663 123.320  0.00  0.00    -0.461 OA
ATOM      5  C   LIG A   1      -9.463   0.612 123.547  0.00  0.00    +0.311 C 
ATOM      6  O   LIG A   1     -10.194   1.538 123.805  0.00  0.00    -0.251 OA
ENDROOT
BRANCH   1   7
ATOM      7  C   LIG A   1      -7.155   1.466 124.375  0.00  0.00    +0.048 C 
BRANCH   7   8
ATOM      8  C   LIG A   1      -7.100   3.007 124.266  0.00  0.00    +0.141 C 
BRANCH   8   9
ATOM      9  O   LIG A   1      -7.749   3.379 123.034  0.00  0.00    -0.390 OA
ATOM     10  H   LIG A   1      -7.405   4.267 122.801  0.00  0.00    +0.210 HD
ENDBRANCH   8   9
BRANCH   8  11
ATOM     11  C   LIG A   1      -7.769   3.786 125.410  0.00  0.00    +0.187 C 
BRANCH  11  12
ATOM     12  O   LIG A   1      -9.174   3.896 125.161  0.00  0.00    -0.393 OA
ATOM     13  H   LIG A   1      -9.613   3.211 125.699  0.00  0.00    +0.209 HD
ENDBRANCH  11  12
ENDBRANCH   8  11
ENDBRANCH   7   8
ENDBRANCH   1   7
BRANCH   3  14
ATOM     14  C   LIG A   1      -9.077  -2.924 123.257  0.00  0.00    +0.045 C 
BRANCH  14  15
ATOM     15  C   LIG A   1      -8.279  -3.285 124.527  0.00  0.00    +0.003 C 
BRANCH  15  16
ATOM     16  C   LIG A   1      -9.074  -3.069 125.825  0.00  0.00    +0.000 C 
BRANCH  16  17
ATOM     17  C   LIG A   1      -8.278  -2.635 127.068  0.00  0.00    -0.000 C 
BRANCH  17  18
ATOM     18  C   LIG A   1      -8.372  -3.522 128.323  0.00  0.00    +0.000 C 
BRANCH  18  19
ATOM     19  C   LIG A   1      -8.256  -2.740 129.637  0.00  0.00    +0.000 C 
BRANCH  19  20
ATOM     20  C   LIG A   1      -6.942  -2.943 130.411  0.00  0.00    +0.004 C 
BRANCH  20  21
ATOM     21  C   LIG A   1      -6.151  -4.201 130.044  0.00  0.00    +0.026 C 
BRANCH  21  22
ATOM     22  C   LIG A   1      -4.667  -3.998 130.155  0.00  0.00    -0.035 C 
ATOM     23  C   LIG A   1      -3.910  -3.534 129.153  0.00  0.00    +0.004 C 
ENDBRANCH  21  22
ENDBRANCH  20  21
ENDBRANCH  19  20
ENDBRANCH  18  19
ENDBRANCH  17  18
ENDBRANCH  16  17
ENDBRANCH  15  16
ENDBRANCH  14  15
ENDBRANCH   3  14
TORSDOF 14
ENDMDL
MODEL 8
REMARK VINA RESULT:      -5.5      8.752     10.296
REMARK  Name = NuBBE_1789
REMARK  14 active torsions:
REMARK  status: ('A' for Active; 'I' for Inactive)
REMARK    1  A    between atoms: C_1  and  C_2
REMARK    2  A    between atoms: C_1  and  C_7
REMARK    3  A    between atoms: C_2  and  C_4
REMARK    4  A    between atoms: C_2  and  O_6
REMARK    5  A    between atoms: C_4  and  O_5
REMARK    6  A    between atoms: C_10  and  C_15
REMARK    7  A    between atoms: C_15  and  C_16
REMARK    8  A    between atoms: C_16  and  C_17
REMARK    9  A    between atoms: C_17  and  C_18
REMARK   10  A    between atoms: C_18  and  C_19
REMARK   11  A    between atoms: C_19  and  C_20
REMARK   12  A    between atoms: C_20  and  C_21
REMARK   13  A    between atoms: C_21  and  C_22
REMARK   14  A    between atoms: C_22  and  C_23
REMARK                            x       y       z     vdW  Elec       q    Type
REMARK                         _______ _______ _______ _____ _____    ______ ____
ROOT
ATOM      1  C   LIG A   1     -12.078   5.972 130.141  0.00  0.00    +0.104 C 
ATOM      2  C   LIG A   1     -10.576   5.720 130.197  0.00  0.00    +0.059 C 
ATOM      3  C   LIG A   1     -10.271   5.769 131.689  0.00  0.00    +0.177 C 
ATOM      4  O   LIG A   1     -11.178   6.747 132.188  0.00  0.00    -0.461 OA
ATOM      5  C   LIG A   1     -12.280   6.824 131.370  0.00  0.00    +0.311 C 
ATOM      6  O   LIG A   1     -13.279   7.433 131.669  0.00  0.00    -0.251 OA
ENDROOT
BRANCH   1   7
ATOM      7  C   LIG A   1     -12.504   6.599 128.794  0.00  0.00    +0.048 C 
BRANCH   7   8
ATOM      8  C   LIG A   1     -11.408   6.980 127.772  0.00  0.00    +0.141 C 
BRANCH   8   9
ATOM      9  O   LIG A   1     -11.852   6.539 126.474  0.00  0.00    -0.390 OA
ATOM     10  H   LIG A   1     -11.605   5.593 126.406  0.00  0.00    +0.210 HD
ENDBRANCH   8   9
BRANCH   8  11
ATOM     11  C   LIG A   1     -11.069   8.476 127.676  0.00  0.00    +0.187 C 
BRANCH  11  12
ATOM     12  O   LIG A   1     -11.996   9.231 128.464  0.00  0.00    -0.393 OA
ATOM     13  H   LIG A   1     -12.619   9.653 127.844  0.00  0.00    +0.209 HD
ENDBRANCH  11  12
ENDBRANCH   8  11
ENDBRANCH   7   8
ENDBRANCH   1   7
BRANCH   3  14
ATOM     14  C   LIG A   1      -8.834   6.182 132.046  0.00  0.00    +0.045 C 
BRANCH  14  15
ATOM     15  C   LIG A   1      -8.049   6.763 130.852  0.00  0.00    +0.003 C 
BRANCH  15  16
ATOM     16  C   LIG A   1      -6.558   6.984 131.156  0.00  0.00    +0.000 C 
BRANCH  16  17
ATOM     17  C   LIG A   1      -5.954   6.173 132.316  0.00  0.00    -0.000 C 
BRANCH  17  18
ATOM     18  C   LIG A   1      -4.460   5.809 132.231  0.00  0.00    +0.000 C 
BRANCH  18  19
ATOM     19  C   LIG A   1      -3.526   7.015 132.387  0.00  0.00    +0.000 C 
BRANCH  19  20
ATOM     20  C   LIG A   1      -2.263   6.989 131.509  0.00  0.00    +0.004 C 
BRANCH  20  21
ATOM     21  C   LIG A   1      -2.255   5.932 130.402  0.00  0.00    +0.026 C 
BRANCH  21  22
ATOM     22  C   LIG A   1      -2.304   6.538 129.029  0.00  0.00    -0.035 C 
ATOM     23  C   LIG A   1      -3.438   6.943 128.444  0.00  0.00    +0.004 C 
ENDBRANCH  21  22
ENDBRANCH  20  21
ENDBRANCH  19  20
ENDBRANCH  18  19
ENDBRANCH  17  18
ENDBRANCH  16  17
ENDBRANCH  15  16
ENDBRANCH  14  15
ENDBRANCH   3  14
TORSDOF 14
ENDMDL
MODEL 9
REMARK VINA RESULT:      -5.3      1.333      2.161
REMARK  Name = NuBBE_1789
REMARK  14 active torsions:
REMARK  status: ('A' for Active; 'I' for Inactive)
REMARK    1  A    between atoms: C_1  and  C_2
REMARK    2  A    between atoms: C_1  and  C_7
REMARK    3  A    between atoms: C_2  and  C_4
REMARK    4  A    between atoms: C_2  and  O_6
REMARK    5  A    between atoms: C_4  and  O_5
REMARK    6  A    between atoms: C_10  and  C_15
REMARK    7  A    between atoms: C_15  and  C_16
REMARK    8  A    between atoms: C_16  and  C_17
REMARK    9  A    between atoms: C_17  and  C_18
REMARK   10  A    between atoms: C_18  and  C_19
REMARK   11  A    between atoms: C_19  and  C_20
REMARK   12  A    between atoms: C_20  and  C_21
REMARK   13  A    between atoms: C_21  and  C_22
REMARK   14  A    between atoms: C_22  and  C_23
REMARK                            x       y       z     vdW  Elec       q    Type
REMARK                         _______ _______ _______ _____ _____    ______ ____
ROOT
ATOM      1  C   LIG A   1      -7.600   1.037 123.945  0.00  0.00    +0.104 C 
ATOM      2  C   LIG A   1      -7.539  -0.402 123.449  0.00  0.00    +0.059 C 
ATOM      3  C   LIG A   1      -8.973  -0.684 123.023  0.00  0.00    +0.177 C 
ATOM      4  O   LIG A   1      -9.755   0.060 123.951  0.00  0.00    -0.461 OA
ATOM      5  C   LIG A   1      -9.025   1.120 124.434  0.00  0.00    +0.311 C 
ATOM      6  O   LIG A   1      -9.514   2.013 125.085  0.00  0.00    -0.251 OA
ENDROOT
BRANCH   1   7
ATOM      7  C   LIG A   1      -6.498   1.331 124.990  0.00  0.00    +0.048 C 
BRANCH   7   8
ATOM      8  C   LIG A   1      -5.939   2.769 125.094  0.00  0.00    +0.141 C 
BRANCH   8   9
ATOM      9  O   LIG A   1      -6.999   3.613 125.583  0.00  0.00    -0.390 OA
ATOM     10  H   LIG A   1      -7.713   3.011 125.882  0.00  0.00    +0.210 HD
ENDBRANCH   8   9
BRANCH   8  11
ATOM     11  C   LIG A   1      -4.722   2.951 126.015  0.00  0.00    +0.187 C 
BRANCH  11  12
ATOM     12  O   LIG A   1      -4.161   1.672 126.330  0.00  0.00    -0.393 OA
ATOM     13  H   LIG A   1      -3.277   1.640 125.920  0.00  0.00    +0.209 HD
ENDBRANCH  11  12
ENDBRANCH   8  11
ENDBRANCH   7   8
ENDBRANCH   1   7
BRANCH   3  14
ATOM     14  C   LIG A   1      -9.391  -2.162 123.080  0.00  0.00    +0.045 C 
BRANCH  14  15
ATOM     15  C   LIG A   1      -8.630  -2.973 124.149  0.00  0.00    +0.003 C 
BRANCH  15  16
ATOM     16  C   LIG A   1      -9.406  -3.112 125.470  0.00  0.00    +0.000 C 
BRANCH  16  17
ATOM     17  C   LIG A   1      -8.635  -2.815 126.768  0.00  0.00    -0.000 C 
BRANCH  17  18
ATOM     18  C   LIG A   1      -8.119  -1.380 126.981  0.00  0.00    +0.000 C 
BRANCH  18  19
ATOM     19  C   LIG A   1      -6.692  -1.319 127.541  0.00  0.00    +0.000 C 
BRANCH  19  20
ATOM     20  C   LIG A   1      -5.698  -2.318 126.923  0.00  0.00    +0.004 C 
BRANCH  20  21
ATOM     21  C   LIG A   1      -5.254  -2.003 125.493  0.00  0.00    +0.026 C 
BRANCH  21  22
ATOM     22  C   LIG A   1      -5.245  -3.220 124.614  0.00  0.00    -0.035 C 
ATOM     23  C   LIG A   1      -4.802  -3.213 123.350  0.00  0.00    +0.004 C 
ENDBRANCH  21  22
ENDBRANCH  20  21
ENDBRANCH  19  20
ENDBRANCH  18  19
ENDBRANCH  17  18
ENDBRANCH  16  17
ENDBRANCH  15  16
ENDBRANCH  14  15
ENDBRANCH   3  14
TORSDOF 14
ENDMDL
