MODEL 1
REMARK VINA RESULT:      -8.4      0.000      0.000
REMARK  Name = NuBBE_1414
REMARK  6 active torsions:
REMARK  status: ('A' for Active; 'I' for Inactive)
REMARK    1  A    between atoms: C_9  and  C_11
REMARK    2  A    between atoms: C_11  and  C_12
REMARK    3  A    between atoms: C_26  and  O_27
REMARK    4  A    between atoms: O_27  and  C_28
REMARK    5  A    between atoms: C_29  and  O_30
REMARK    6  A    between atoms: O_30  and  C_31
REMARK                            x       y       z     vdW  Elec       q    Type
REMARK                         _______ _______ _______ _____ _____    ______ ____
ROOT
ATOM      1  O   LIG A   1      -7.194   3.344 132.720  0.00  0.00    -0.291 OA
ATOM      2  C   LIG A   1      -7.274   4.277 131.931  0.00  0.00    +0.178 C 
ATOM      3  C   LIG A   1      -8.543   4.583 131.250  0.00  0.00    +0.060 A 
ATOM      4  C   LIG A   1      -9.618   3.673 131.321  0.00  0.00    +0.019 A 
ATOM      5  C   LIG A   1     -10.812   3.950 130.654  0.00  0.00    +0.047 A 
ATOM      6  C   LIG A   1     -10.890   5.129 129.944  0.00  0.00    +0.128 A 
ATOM      7  C   LIG A   1      -9.818   6.004 129.842  0.00  0.00    +0.040 A 
ATOM      8  C   LIG A   1     -10.192   7.110 128.928  0.00  0.00    +0.091 C 
ATOM      9  C   LIG A   1     -11.726   6.972 129.009  0.00  0.00    +0.203 C 
ATOM     10  O   LIG A   1     -12.017   5.571 129.298  0.00  0.00    -0.484 OA
ATOM     11  C   LIG A   1      -8.633   5.758 130.506  0.00  0.00    +0.138 A 
ATOM     12  O   LIG A   1      -7.635   6.674 130.377  0.00  0.00    -0.483 OA
ATOM     13  C   LIG A   1      -6.562   6.550 131.326  0.00  0.00    +0.226 C 
ATOM     14  C   LIG A   1      -5.379   7.362 130.801  0.00  0.00    +0.274 C 
ATOM     15  O   LIG A   1      -4.861   6.875 129.554  0.00  0.00    -0.488 OA
ATOM     16  C   LIG A   1      -4.798   5.516 129.413  0.00  0.00    +0.128 A 
ATOM     17  C   LIG A   1      -5.354   4.612 130.318  0.00  0.00    +0.012 A 
ATOM     18  C   LIG A   1      -6.083   5.119 131.539  0.00  0.00    +0.138 C 
ATOM     19  C   LIG A   1      -5.223   3.234 130.069  0.00  0.00    +0.057 A 
ATOM     20  C   LIG A   1      -4.589   2.757 128.915  0.00  0.00    +0.162 A 
ATOM     21  C   LIG A   1      -4.062   3.677 127.997  0.00  0.00    +0.165 A 
ATOM     22  C   LIG A   1      -4.174   5.049 128.257  0.00  0.00    +0.095 A 
ENDROOT
BRANCH   9  23
ATOM     23  C   LIG A   1     -12.443   7.847 130.043  0.00  0.00    -0.040 C 
ATOM     24  C   LIG A   1     -12.748   9.254 129.601  0.00  0.00    +0.042 C 
ATOM     25  C   LIG A   1     -12.804   7.446 131.276  0.00  0.00    +0.011 C 
ENDBRANCH   9  23
BRANCH  20  26
ATOM     26  O   LIG A   1      -4.545   1.423 128.613  0.00  0.00    -0.491 OA
ATOM     27  C   LIG A   1      -5.699   0.863 127.998  0.00  0.00    +0.277 C 
ENDBRANCH  20  26
BRANCH  21  28
ATOM     28  O   LIG A   1      -3.454   3.398 126.798  0.00  0.00    -0.491 OA
ATOM     29  C   LIG A   1      -2.044   3.214 126.816  0.00  0.00    +0.277 C 
ENDBRANCH  21  28
TORSDOF 3
ENDMDL
MODEL 2
REMARK VINA RESULT:      -8.2      5.553      9.041
REMARK  Name = NuBBE_1414
REMARK  6 active torsions:
REMARK  status: ('A' for Active; 'I' for Inactive)
REMARK    1  A    between atoms: C_9  and  C_11
REMARK    2  A    between atoms: C_11  and  C_12
REMARK    3  A    between atoms: C_26  and  O_27
REMARK    4  A    between atoms: O_27  and  C_28
REMARK    5  A    between atoms: C_29  and  O_30
REMARK    6  A    between atoms: O_30  and  C_31
REMARK                            x       y       z     vdW  Elec       q    Type
REMARK                         _______ _______ _______ _____ _____    ______ ____
ROOT
ATOM      1  O   LIG A   1      -4.804   0.884 128.997  0.00  0.00    -0.291 OA
ATOM      2  C   LIG A   1      -5.271  -0.247 128.954  0.00  0.00    +0.178 C 
ATOM      3  C   LIG A   1      -6.442  -0.549 128.113  0.00  0.00    +0.060 A 
ATOM      4  C   LIG A   1      -7.176   0.501 127.525  0.00  0.00    +0.019 A 
ATOM      5  C   LIG A   1      -8.301   0.218 126.748  0.00  0.00    +0.047 A 
ATOM      6  C   LIG A   1      -8.647  -1.107 126.584  0.00  0.00    +0.128 A 
ATOM      7  C   LIG A   1      -7.948  -2.137 127.197  0.00  0.00    +0.040 A 
ATOM      8  C   LIG A   1      -8.636  -3.417 126.908  0.00  0.00    +0.091 C 
ATOM      9  C   LIG A   1      -9.437  -2.978 125.665  0.00  0.00    +0.203 C 
ATOM     10  O   LIG A   1      -9.681  -1.545 125.795  0.00  0.00    -0.484 OA
ATOM     11  C   LIG A   1      -6.823  -1.880 127.955  0.00  0.00    +0.138 A 
ATOM     12  O   LIG A   1      -6.176  -2.944 128.504  0.00  0.00    -0.483 OA
ATOM     13  C   LIG A   1      -4.854  -2.669 128.999  0.00  0.00    +0.226 C 
ATOM     14  C   LIG A   1      -4.450  -3.823 129.915  0.00  0.00    +0.274 C 
ATOM     15  O   LIG A   1      -5.287  -3.953 131.074  0.00  0.00    -0.488 OA
ATOM     16  C   LIG A   1      -5.677  -2.786 131.673  0.00  0.00    +0.128 A 
ATOM     17  C   LIG A   1      -5.455  -1.520 131.133  0.00  0.00    +0.012 A 
ATOM     18  C   LIG A   1      -4.749  -1.379 129.805  0.00  0.00    +0.138 C 
ATOM     19  C   LIG A   1      -5.899  -0.391 131.843  0.00  0.00    +0.057 A 
ATOM     20  C   LIG A   1      -6.596  -0.515 133.052  0.00  0.00    +0.162 A 
ATOM     21  C   LIG A   1      -6.841  -1.795 133.569  0.00  0.00    +0.165 A 
ATOM     22  C   LIG A   1      -6.378  -2.919 132.871  0.00  0.00    +0.095 A 
ENDROOT
BRANCH   9  23
ATOM     23  C   LIG A   1      -8.791  -3.245 124.300  0.00  0.00    -0.040 C 
ATOM     24  C   LIG A   1      -7.403  -3.826 124.343  0.00  0.00    +0.042 C 
ATOM     25  C   LIG A   1      -9.372  -3.002 123.111  0.00  0.00    +0.011 C 
ENDBRANCH   9  23
BRANCH  20  26
ATOM     26  O   LIG A   1      -7.120   0.571 133.699  0.00  0.00    -0.491 OA
ATOM     27  C   LIG A   1      -7.356   1.735 132.916  0.00  0.00    +0.277 C 
ENDBRANCH  20  26
BRANCH  21  28
ATOM     28  O   LIG A   1      -7.541  -2.111 134.706  0.00  0.00    -0.491 OA
ATOM     29  C   LIG A   1      -8.280  -3.326 134.694  0.00  0.00    +0.277 C 
ENDBRANCH  21  28
TORSDOF 3
ENDMDL
MODEL 3
REMARK VINA RESULT:      -7.9      3.573      7.974
REMARK  Name = NuBBE_1414
REMARK  6 active torsions:
REMARK  status: ('A' for Active; 'I' for Inactive)
REMARK    1  A    between atoms: C_9  and  C_11
REMARK    2  A    between atoms: C_11  and  C_12
REMARK    3  A    between atoms: C_26  and  O_27
REMARK    4  A    between atoms: O_27  and  C_28
REMARK    5  A    between atoms: C_29  and  O_30
REMARK    6  A    between atoms: O_30  and  C_31
REMARK                            x       y       z     vdW  Elec       q    Type
REMARK                         _______ _______ _______ _____ _____    ______ ____
ROOT
ATOM      1  O   LIG A   1      -9.024   3.632 125.077  0.00  0.00    -0.291 OA
ATOM      2  C   LIG A   1      -7.969   3.095 125.389  0.00  0.00    +0.178 C 
ATOM      3  C   LIG A   1      -7.839   1.628 125.387  0.00  0.00    +0.060 A 
ATOM      4  C   LIG A   1      -8.986   0.820 125.247  0.00  0.00    +0.019 A 
ATOM      5  C   LIG A   1      -8.868  -0.571 125.270  0.00  0.00    +0.047 A 
ATOM      6  C   LIG A   1      -7.605  -1.103 125.428  0.00  0.00    +0.128 A 
ATOM      7  C   LIG A   1      -6.483  -0.306 125.607  0.00  0.00    +0.040 A 
ATOM      8  C   LIG A   1      -5.313  -1.182 125.853  0.00  0.00    +0.091 C 
ATOM      9  C   LIG A   1      -5.869  -2.491 125.258  0.00  0.00    +0.203 C 
ATOM     10  O   LIG A   1      -7.322  -2.445 125.400  0.00  0.00    -0.484 OA
ATOM     11  C   LIG A   1      -6.575   1.070 125.570  0.00  0.00    +0.138 A 
ATOM     12  O   LIG A   1      -5.427   1.784 125.729  0.00  0.00    -0.483 OA
ATOM     13  C   LIG A   1      -5.512   3.172 125.364  0.00  0.00    +0.226 C 
ATOM     14  C   LIG A   1      -4.305   3.888 125.968  0.00  0.00    +0.274 C 
ATOM     15  O   LIG A   1      -4.282   3.858 127.403  0.00  0.00    -0.488 OA
ATOM     16  C   LIG A   1      -5.486   4.023 128.031  0.00  0.00    +0.128 A 
ATOM     17  C   LIG A   1      -6.715   4.044 127.371  0.00  0.00    +0.012 A 
ATOM     18  C   LIG A   1      -6.768   3.872 125.872  0.00  0.00    +0.138 C 
ATOM     19  C   LIG A   1      -7.888   4.224 128.124  0.00  0.00    +0.057 A 
ATOM     20  C   LIG A   1      -7.851   4.337 129.520  0.00  0.00    +0.162 A 
ATOM     21  C   LIG A   1      -6.612   4.283 130.175  0.00  0.00    +0.165 A 
ATOM     22  C   LIG A   1      -5.441   4.125 129.421  0.00  0.00    +0.095 A 
ENDROOT
BRANCH   9  23
ATOM     23  C   LIG A   1      -5.528  -2.781 123.792  0.00  0.00    -0.040 C 
ATOM     24  C   LIG A   1      -4.522  -3.878 123.566  0.00  0.00    +0.042 C 
ATOM     25  C   LIG A   1      -6.057  -2.138 122.734  0.00  0.00    +0.011 C 
ENDBRANCH   9  23
BRANCH  20  26
ATOM     26  O   LIG A   1      -8.993   4.411 130.271  0.00  0.00    -0.491 OA
ATOM     27  C   LIG A   1      -9.753   3.216 130.405  0.00  0.00    +0.277 C 
ENDBRANCH  20  26
BRANCH  21  28
ATOM     28  O   LIG A   1      -6.386   4.328 131.528  0.00  0.00    -0.491 OA
ATOM     29  C   LIG A   1      -6.301   3.085 132.212  0.00  0.00    +0.277 C 
ENDBRANCH  21  28
TORSDOF 3
ENDMDL
MODEL 4
REMARK VINA RESULT:      -7.9      3.189      7.569
REMARK  Name = NuBBE_1414
REMARK  6 active torsions:
REMARK  status: ('A' for Active; 'I' for Inactive)
REMARK    1  A    between atoms: C_9  and  C_11
REMARK    2  A    between atoms: C_11  and  C_12
REMARK    3  A    between atoms: C_26  and  O_27
REMARK    4  A    between atoms: O_27  and  C_28
REMARK    5  A    between atoms: C_29  and  O_30
REMARK    6  A    between atoms: O_30  and  C_31
REMARK                            x       y       z     vdW  Elec       q    Type
REMARK                         _______ _______ _______ _____ _____    ______ ____
ROOT
ATOM      1  O   LIG A   1      -5.999   4.955 128.566  0.00  0.00    -0.291 OA
ATOM      2  C   LIG A   1      -6.890   4.115 128.554  0.00  0.00    +0.178 C 
ATOM      3  C   LIG A   1      -7.260   3.425 127.306  0.00  0.00    +0.060 A 
ATOM      4  C   LIG A   1      -6.754   3.882 126.072  0.00  0.00    +0.019 A 
ATOM      5  C   LIG A   1      -7.124   3.245 124.886  0.00  0.00    +0.047 A 
ATOM      6  C   LIG A   1      -7.984   2.171 124.979  0.00  0.00    +0.128 A 
ATOM      7  C   LIG A   1      -8.513   1.748 126.190  0.00  0.00    +0.040 A 
ATOM      8  C   LIG A   1      -9.476   0.651 125.931  0.00  0.00    +0.091 C 
ATOM      9  C   LIG A   1      -8.976   0.225 124.536  0.00  0.00    +0.203 C 
ATOM     10  O   LIG A   1      -8.381   1.403 123.913  0.00  0.00    -0.484 OA
ATOM     11  C   LIG A   1      -8.148   2.353 127.376  0.00  0.00    +0.138 A 
ATOM     12  O   LIG A   1      -8.690   1.867 128.525  0.00  0.00    -0.483 OA
ATOM     13  C   LIG A   1      -8.047   2.297 129.737  0.00  0.00    +0.226 C 
ATOM     14  C   LIG A   1      -8.996   2.004 130.898  0.00  0.00    +0.274 C 
ATOM     15  O   LIG A   1     -10.230   2.733 130.826  0.00  0.00    -0.488 OA
ATOM     16  C   LIG A   1     -10.142   4.031 130.403  0.00  0.00    +0.128 A 
ATOM     17  C   LIG A   1      -8.981   4.608 129.890  0.00  0.00    +0.012 A 
ATOM     18  C   LIG A   1      -7.720   3.786 129.771  0.00  0.00    +0.138 C 
ATOM     19  C   LIG A   1      -9.011   5.955 129.489  0.00  0.00    +0.057 A 
ATOM     20  C   LIG A   1     -10.189   6.711 129.552  0.00  0.00    +0.162 A 
ATOM     21  C   LIG A   1     -11.359   6.110 130.040  0.00  0.00    +0.165 A 
ATOM     22  C   LIG A   1     -11.322   4.773 130.460  0.00  0.00    +0.095 A 
ENDROOT
BRANCH   9  23
ATOM     23  C   LIG A   1      -7.960  -0.922 124.490  0.00  0.00    -0.040 C 
ATOM     24  C   LIG A   1      -7.114  -0.987 123.246  0.00  0.00    +0.042 C 
ATOM     25  C   LIG A   1      -7.784  -1.838 125.460  0.00  0.00    +0.011 C 
ENDBRANCH   9  23
BRANCH  20  26
ATOM     26  O   LIG A   1     -10.254   7.991 129.072  0.00  0.00    -0.491 OA
ATOM     27  C   LIG A   1     -10.659   8.149 127.717  0.00  0.00    +0.277 C 
ENDBRANCH  20  26
BRANCH  21  28
ATOM     28  O   LIG A   1     -12.606   6.675 130.131  0.00  0.00    -0.491 OA
ATOM     29  C   LIG A   1     -12.893   7.425 131.304  0.00  0.00    +0.277 C 
ENDBRANCH  21  28
TORSDOF 3
ENDMDL
MODEL 5
REMARK VINA RESULT:      -7.7      3.593      5.568
REMARK  Name = NuBBE_1414
REMARK  6 active torsions:
REMARK  status: ('A' for Active; 'I' for Inactive)
REMARK    1  A    between atoms: C_9  and  C_11
REMARK    2  A    between atoms: C_11  and  C_12
REMARK    3  A    between atoms: C_26  and  O_27
REMARK    4  A    between atoms: O_27  and  C_28
REMARK    5  A    between atoms: C_29  and  O_30
REMARK    6  A    between atoms: O_30  and  C_31
REMARK                            x       y       z     vdW  Elec       q    Type
REMARK                         _______ _______ _______ _____ _____    ______ ____
ROOT
ATOM      1  O   LIG A   1      -6.538  -0.727 129.440  0.00  0.00    -0.291 OA
ATOM      2  C   LIG A   1      -6.751   0.358 128.915  0.00  0.00    +0.178 C 
ATOM      3  C   LIG A   1      -7.617   1.356 129.566  0.00  0.00    +0.060 A 
ATOM      4  C   LIG A   1      -8.392   0.991 130.686  0.00  0.00    +0.019 A 
ATOM      5  C   LIG A   1      -9.233   1.929 131.288  0.00  0.00    +0.047 A 
ATOM      6  C   LIG A   1      -9.265   3.198 130.750  0.00  0.00    +0.128 A 
ATOM      7  C   LIG A   1      -8.532   3.544 129.623  0.00  0.00    +0.040 A 
ATOM      8  C   LIG A   1      -8.871   4.936 129.244  0.00  0.00    +0.091 C 
ATOM      9  C   LIG A   1      -9.440   5.415 130.595  0.00  0.00    +0.203 C 
ATOM     10  O   LIG A   1      -9.986   4.242 131.273  0.00  0.00    -0.484 OA
ATOM     11  C   LIG A   1      -7.683   2.637 129.022  0.00  0.00    +0.138 A 
ATOM     12  O   LIG A   1      -6.979   3.056 127.935  0.00  0.00    -0.483 OA
ATOM     13  C   LIG A   1      -5.885   2.208 127.547  0.00  0.00    +0.226 C 
ATOM     14  C   LIG A   1      -5.479   2.591 126.125  0.00  0.00    +0.274 C 
ATOM     15  O   LIG A   1      -6.514   2.368 125.156  0.00  0.00    -0.488 OA
ATOM     16  C   LIG A   1      -7.252   1.226 125.309  0.00  0.00    +0.128 A 
ATOM     17  C   LIG A   1      -7.168   0.387 126.420  0.00  0.00    +0.012 A 
ATOM     18  C   LIG A   1      -6.222   0.721 127.548  0.00  0.00    +0.138 C 
ATOM     19  C   LIG A   1      -7.976  -0.763 126.465  0.00  0.00    +0.057 A 
ATOM     20  C   LIG A   1      -8.889  -1.055 125.444  0.00  0.00    +0.162 A 
ATOM     21  C   LIG A   1      -8.987  -0.187 124.348  0.00  0.00    +0.165 A 
ATOM     22  C   LIG A   1      -8.166   0.948 124.294  0.00  0.00    +0.095 A 
ENDROOT
BRANCH   9  23
ATOM     23  C   LIG A   1      -8.463   6.119 131.543  0.00  0.00    -0.040 C 
ATOM     24  C   LIG A   1      -8.763   5.970 133.011  0.00  0.00    +0.042 C 
ATOM     25  C   LIG A   1      -7.391   6.835 131.155  0.00  0.00    +0.011 C 
ENDBRANCH   9  23
BRANCH  20  26
ATOM     26  O   LIG A   1      -9.750  -2.116 125.525  0.00  0.00    -0.491 OA
ATOM     27  C   LIG A   1      -9.299  -3.258 126.244  0.00  0.00    +0.277 C 
ENDBRANCH  20  26
BRANCH  21  28
ATOM     28  O   LIG A   1      -9.850  -0.284 123.285  0.00  0.00    -0.491 OA
ATOM     29  C   LIG A   1     -10.099   0.902 122.542  0.00  0.00    +0.277 C 
ENDBRANCH  21  28
TORSDOF 3
ENDMDL
MODEL 6
REMARK VINA RESULT:      -7.6      4.356      8.301
REMARK  Name = NuBBE_1414
REMARK  6 active torsions:
REMARK  status: ('A' for Active; 'I' for Inactive)
REMARK    1  A    between atoms: C_9  and  C_11
REMARK    2  A    between atoms: C_11  and  C_12
REMARK    3  A    between atoms: C_26  and  O_27
REMARK    4  A    between atoms: O_27  and  C_28
REMARK    5  A    between atoms: C_29  and  O_30
REMARK    6  A    between atoms: O_30  and  C_31
REMARK                            x       y       z     vdW  Elec       q    Type
REMARK                         _______ _______ _______ _____ _____    ______ ____
ROOT
ATOM      1  O   LIG A   1      -2.611   5.069 134.080  0.00  0.00    -0.291 OA
ATOM      2  C   LIG A   1      -2.810   6.003 133.314  0.00  0.00    +0.178 C 
ATOM      3  C   LIG A   1      -2.473   7.384 133.703  0.00  0.00    +0.060 A 
ATOM      4  C   LIG A   1      -2.132   7.675 135.039  0.00  0.00    +0.019 A 
ATOM      5  C   LIG A   1      -1.837   8.987 135.415  0.00  0.00    +0.047 A 
ATOM      6  C   LIG A   1      -1.891   9.959 134.439  0.00  0.00    +0.128 A 
ATOM      7  C   LIG A   1      -2.268   9.677 133.132  0.00  0.00    +0.040 A 
ATOM      8  C   LIG A   1      -2.328  10.947 132.370  0.00  0.00    +0.091 C 
ATOM      9  C   LIG A   1      -1.438  11.812 133.286  0.00  0.00    +0.203 C 
ATOM     10  O   LIG A   1      -1.562  11.276 134.638  0.00  0.00    -0.484 OA
ATOM     11  C   LIG A   1      -2.547   8.385 132.736  0.00  0.00    +0.138 A 
ATOM     12  O   LIG A   1      -2.885   8.183 131.434  0.00  0.00    -0.483 OA
ATOM     13  C   LIG A   1      -2.847   6.815 130.994  0.00  0.00    +0.226 C 
ATOM     14  C   LIG A   1      -3.621   6.725 129.679  0.00  0.00    +0.274 C 
ATOM     15  O   LIG A   1      -5.010   7.058 129.811  0.00  0.00    -0.488 OA
ATOM     16  C   LIG A   1      -5.638   6.604 130.938  0.00  0.00    +0.128 A 
ATOM     17  C   LIG A   1      -4.979   6.005 132.011  0.00  0.00    +0.012 A 
ATOM     18  C   LIG A   1      -3.479   5.831 131.972  0.00  0.00    +0.138 C 
ATOM     19  C   LIG A   1      -5.732   5.575 133.117  0.00  0.00    +0.057 A 
ATOM     20  C   LIG A   1      -7.117   5.775 133.181  0.00  0.00    +0.162 A 
ATOM     21  C   LIG A   1      -7.764   6.407 132.110  0.00  0.00    +0.165 A 
ATOM     22  C   LIG A   1      -7.015   6.817 130.999  0.00  0.00    +0.095 A 
ENDROOT
BRANCH   9  23
ATOM     23  C   LIG A   1       0.049  11.895 132.923  0.00  0.00    -0.040 C 
ATOM     24  C   LIG A   1       0.362  12.598 131.629  0.00  0.00    +0.042 C 
ATOM     25  C   LIG A   1       1.054  11.397 133.667  0.00  0.00    +0.011 C 
ENDBRANCH   9  23
BRANCH  20  26
ATOM     26  O   LIG A   1      -7.844   5.451 134.295  0.00  0.00    -0.491 OA
ATOM     27  C   LIG A   1      -8.328   4.116 134.381  0.00  0.00    +0.277 C 
ENDBRANCH  20  26
BRANCH  21  28
ATOM     28  O   LIG A   1      -9.096   6.728 132.017  0.00  0.00    -0.491 OA
ATOM     29  C   LIG A   1      -9.749   6.430 130.791  0.00  0.00    +0.277 C 
ENDBRANCH  21  28
TORSDOF 3
ENDMDL
MODEL 7
REMARK VINA RESULT:      -7.5      3.878      6.950
REMARK  Name = NuBBE_1414
REMARK  6 active torsions:
REMARK  status: ('A' for Active; 'I' for Inactive)
REMARK    1  A    between atoms: C_9  and  C_11
REMARK    2  A    between atoms: C_11  and  C_12
REMARK    3  A    between atoms: C_26  and  O_27
REMARK    4  A    between atoms: O_27  and  C_28
REMARK    5  A    between atoms: C_29  and  O_30
REMARK    6  A    between atoms: O_30  and  C_31
REMARK                            x       y       z     vdW  Elec       q    Type
REMARK                         _______ _______ _______ _____ _____    ______ ____
ROOT
ATOM      1  O   LIG A   1      -4.368   7.670 129.594  0.00  0.00    -0.291 OA
ATOM      2  C   LIG A   1      -4.242   6.943 130.571  0.00  0.00    +0.178 C 
ATOM      3  C   LIG A   1      -5.420   6.465 131.314  0.00  0.00    +0.060 A 
ATOM      4  C   LIG A   1      -6.690   7.019 131.053  0.00  0.00    +0.019 A 
ATOM      5  C   LIG A   1      -7.803   6.585 131.775  0.00  0.00    +0.047 A 
ATOM      6  C   LIG A   1      -7.606   5.610 132.730  0.00  0.00    +0.128 A 
ATOM      7  C   LIG A   1      -6.348   5.095 133.014  0.00  0.00    +0.040 A 
ATOM      8  C   LIG A   1      -6.466   4.154 134.153  0.00  0.00    +0.091 C 
ATOM      9  C   LIG A   1      -7.977   3.859 134.058  0.00  0.00    +0.203 C 
ATOM     10  O   LIG A   1      -8.609   5.035 133.468  0.00  0.00    -0.484 OA
ATOM     11  C   LIG A   1      -5.238   5.497 132.301  0.00  0.00    +0.138 A 
ATOM     12  O   LIG A   1      -4.043   4.930 132.621  0.00  0.00    -0.483 OA
ATOM     13  C   LIG A   1      -2.993   5.126 131.658  0.00  0.00    +0.226 C 
ATOM     14  C   LIG A   1      -1.667   4.791 132.340  0.00  0.00    +0.274 C 
ATOM     15  O   LIG A   1      -1.357   5.656 133.443  0.00  0.00    -0.488 OA
ATOM     16  C   LIG A   1      -1.659   6.980 133.278  0.00  0.00    +0.128 A 
ATOM     17  C   LIG A   1      -2.385   7.486 132.201  0.00  0.00    +0.012 A 
ATOM     18  C   LIG A   1      -2.894   6.553 131.129  0.00  0.00    +0.138 C 
ATOM     19  C   LIG A   1      -2.631   8.869 132.137  0.00  0.00    +0.057 A 
ATOM     20  C   LIG A   1      -2.203   9.736 133.151  0.00  0.00    +0.162 A 
ATOM     21  C   LIG A   1      -1.501   9.210 134.245  0.00  0.00    +0.165 A 
ATOM     22  C   LIG A   1      -1.238   7.834 134.297  0.00  0.00    +0.095 A 
ENDROOT
BRANCH   9  23
ATOM     23  C   LIG A   1      -8.388   2.623 133.250  0.00  0.00    -0.040 C 
ATOM     24  C   LIG A   1      -7.332   1.557 133.116  0.00  0.00    +0.042 C 
ATOM     25  C   LIG A   1      -9.592   2.439 132.677  0.00  0.00    +0.011 C 
ENDBRANCH   9  23
BRANCH  20  26
ATOM     26  O   LIG A   1      -2.523  11.066 133.149  0.00  0.00    -0.491 OA
ATOM     27  C   LIG A   1      -1.616  11.946 132.496  0.00  0.00    +0.277 C 
ENDBRANCH  20  26
BRANCH  21  28
ATOM     28  O   LIG A   1      -1.047   9.892 135.346  0.00  0.00    -0.491 OA
ATOM     29  C   LIG A   1       0.311  10.313 135.333  0.00  0.00    +0.277 C 
ENDBRANCH  21  28
TORSDOF 3
ENDMDL
MODEL 8
REMARK VINA RESULT:      -7.5      4.629      7.671
REMARK  Name = NuBBE_1414
REMARK  6 active torsions:
REMARK  status: ('A' for Active; 'I' for Inactive)
REMARK    1  A    between atoms: C_9  and  C_11
REMARK    2  A    between atoms: C_11  and  C_12
REMARK    3  A    between atoms: C_26  and  O_27
REMARK    4  A    between atoms: O_27  and  C_28
REMARK    5  A    between atoms: C_29  and  O_30
REMARK    6  A    between atoms: O_30  and  C_31
REMARK                            x       y       z     vdW  Elec       q    Type
REMARK                         _______ _______ _______ _____ _____    ______ ____
ROOT
ATOM      1  O   LIG A   1      -9.012   1.665 126.985  0.00  0.00    -0.291 OA
ATOM      2  C   LIG A   1      -7.848   1.376 127.233  0.00  0.00    +0.178 C 
ATOM      3  C   LIG A   1      -6.774   2.371 127.083  0.00  0.00    +0.060 A 
ATOM      4  C   LIG A   1      -7.035   3.597 126.436  0.00  0.00    +0.019 A 
ATOM      5  C   LIG A   1      -6.011   4.531 126.269  0.00  0.00    +0.047 A 
ATOM      6  C   LIG A   1      -4.764   4.207 126.760  0.00  0.00    +0.128 A 
ATOM      7  C   LIG A   1      -4.499   2.983 127.360  0.00  0.00    +0.040 A 
ATOM      8  C   LIG A   1      -3.052   2.911 127.674  0.00  0.00    +0.091 C 
ATOM      9  C   LIG A   1      -2.731   4.420 127.651  0.00  0.00    +0.203 C 
ATOM     10  O   LIG A   1      -3.679   5.047 126.735  0.00  0.00    -0.484 OA
ATOM     11  C   LIG A   1      -5.500   2.053 127.549  0.00  0.00    +0.138 A 
ATOM     12  O   LIG A   1      -5.168   0.886 128.167  0.00  0.00    -0.483 OA
ATOM     13  C   LIG A   1      -6.280   0.100 128.631  0.00  0.00    +0.226 C 
ATOM     14  C   LIG A   1      -5.766  -1.310 128.917  0.00  0.00    +0.274 C 
ATOM     15  O   LIG A   1      -5.265  -1.983 127.753  0.00  0.00    -0.488 OA
ATOM     16  C   LIG A   1      -5.971  -1.798 126.596  0.00  0.00    +0.128 A 
ATOM     17  C   LIG A   1      -7.014  -0.882 126.456  0.00  0.00    +0.012 A 
ATOM     18  C   LIG A   1      -7.419  -0.018 127.625  0.00  0.00    +0.138 C 
ATOM     19  C   LIG A   1      -7.669  -0.783 125.216  0.00  0.00    +0.057 A 
ATOM     20  C   LIG A   1      -7.268  -1.548 124.114  0.00  0.00    +0.162 A 
ATOM     21  C   LIG A   1      -6.198  -2.442 124.258  0.00  0.00    +0.165 A 
ATOM     22  C   LIG A   1      -5.559  -2.556 125.500  0.00  0.00    +0.095 A 
ENDROOT
BRANCH   9  23
ATOM     23  C   LIG A   1      -2.785   5.156 128.994  0.00  0.00    -0.040 C 
ATOM     24  C   LIG A   1      -3.270   4.338 130.162  0.00  0.00    +0.042 C 
ATOM     25  C   LIG A   1      -2.435   6.442 129.184  0.00  0.00    +0.011 C 
ENDBRANCH   9  23
BRANCH  20  26
ATOM     26  O   LIG A   1      -7.832  -1.386 122.877  0.00  0.00    -0.491 OA
ATOM     27  C   LIG A   1      -9.212  -1.042 122.840  0.00  0.00    +0.277 C 
ENDBRANCH  20  26
BRANCH  21  28
ATOM     28  O   LIG A   1      -5.640  -3.233 123.285  0.00  0.00    -0.491 OA
ATOM     29  C   LIG A   1      -4.470  -3.962 123.635  0.00  0.00    +0.277 C 
ENDBRANCH  21  28
TORSDOF 3
ENDMDL
MODEL 9
REMARK VINA RESULT:      -7.5      3.375      7.087
REMARK  Name = NuBBE_1414
REMARK  6 active torsions:
REMARK  status: ('A' for Active; 'I' for Inactive)
REMARK    1  A    between atoms: C_9  and  C_11
REMARK    2  A    between atoms: C_11  and  C_12
REMARK    3  A    between atoms: C_26  and  O_27
REMARK    4  A    between atoms: O_27  and  C_28
REMARK    5  A    between atoms: C_29  and  O_30
REMARK    6  A    between atoms: O_30  and  C_31
REMARK                            x       y       z     vdW  Elec       q    Type
REMARK                         _______ _______ _______ _____ _____    ______ ____
ROOT
ATOM      1  O   LIG A   1      -7.780   7.355 130.665  0.00  0.00    -0.291 OA
ATOM      2  C   LIG A   1      -7.236   6.656 131.510  0.00  0.00    +0.178 C 
ATOM      3  C   LIG A   1      -5.779   6.441 131.489  0.00  0.00    +0.060 A 
ATOM      4  C   LIG A   1      -5.023   6.846 130.370  0.00  0.00    +0.019 A 
ATOM      5  C   LIG A   1      -3.646   6.620 130.337  0.00  0.00    +0.047 A 
ATOM      6  C   LIG A   1      -3.075   6.000 131.427  0.00  0.00    +0.128 A 
ATOM      7  C   LIG A   1      -3.825   5.564 132.511  0.00  0.00    +0.040 A 
ATOM      8  C   LIG A   1      -2.932   4.849 133.452  0.00  0.00    +0.091 C 
ATOM      9  C   LIG A   1      -1.583   5.431 132.984  0.00  0.00    +0.203 C 
ATOM     10  O   LIG A   1      -1.729   5.773 131.572  0.00  0.00    -0.484 OA
ATOM     11  C   LIG A   1      -5.185   5.793 132.571  0.00  0.00    +0.138 A 
ATOM     12  O   LIG A   1      -5.850   5.358 133.676  0.00  0.00    -0.483 OA
ATOM     13  C   LIG A   1      -7.173   5.895 133.847  0.00  0.00    +0.226 C 
ATOM     14  C   LIG A   1      -7.901   5.023 134.869  0.00  0.00    +0.274 C 
ATOM     15  O   LIG A   1      -8.079   3.666 134.438  0.00  0.00    -0.488 OA
ATOM     16  C   LIG A   1      -8.399   3.485 133.120  0.00  0.00    +0.128 A 
ATOM     17  C   LIG A   1      -8.391   4.504 132.169  0.00  0.00    +0.012 A 
ATOM     18  C   LIG A   1      -8.007   5.908 132.571  0.00  0.00    +0.138 C 
ATOM     19  C   LIG A   1      -8.743   4.198 130.842  0.00  0.00    +0.057 A 
ATOM     20  C   LIG A   1      -9.055   2.890 130.452  0.00  0.00    +0.162 A 
ATOM     21  C   LIG A   1      -9.029   1.868 131.411  0.00  0.00    +0.165 A 
ATOM     22  C   LIG A   1      -8.699   2.178 132.738  0.00  0.00    +0.095 A 
ENDROOT
BRANCH   9  23
ATOM     23  C   LIG A   1      -1.065   6.662 133.736  0.00  0.00    -0.040 C 
ATOM     24  C   LIG A   1      -0.052   7.495 132.996  0.00  0.00    +0.042 C 
ATOM     25  C   LIG A   1      -1.450   7.030 134.973  0.00  0.00    +0.011 C 
ENDBRANCH   9  23
BRANCH  20  26
ATOM     26  O   LIG A   1      -9.300   2.564 129.145  0.00  0.00    -0.491 OA
ATOM     27  C   LIG A   1      -8.169   2.289 128.327  0.00  0.00    +0.277 C 
ENDBRANCH  20  26
BRANCH  21  28
ATOM     28  O   LIG A   1      -9.258   0.530 131.206  0.00  0.00    -0.491 OA
ATOM     29  C   LIG A   1      -8.119  -0.318 131.136  0.00  0.00    +0.277 C 
ENDBRANCH  21  28
TORSDOF 3
ENDMDL
