MODEL 1
REMARK VINA RESULT:      -7.8      0.000      0.000
REMARK  Name = NuBBE_2460
REMARK  19 active torsions:
REMARK  status: ('A' for Active; 'I' for Inactive)
REMARK    1  A    between atoms: C_1  and  O_2
REMARK    2  A    between atoms: O_2  and  C_3
REMARK    3  A    between atoms: C_4  and  O_5
REMARK    4  A    between atoms: O_5  and  C_6
REMARK    5  A    between atoms: C_6  and  C_7
REMARK    6  A    between atoms: C_11  and  C_13
REMARK    7  A    between atoms: C_16  and  O_17
REMARK    8  A    between atoms: O_17  and  C_18
REMARK    9  A    between atoms: C_18  and  C_19
REMARK   10  A    between atoms: C_21  and  O_22
REMARK   11  A    between atoms: O_22  and  C_23
REMARK   12  A    between atoms: C_25  and  C_27
REMARK   13  A    between atoms: C_27  and  O_28
REMARK   14  A    between atoms: O_28  and  C_29
REMARK   15  A    between atoms: C_29  and  C_30
REMARK   16  A    between atoms: C_32  and  C_34
REMARK   17  A    between atoms: C_34  and  O_35
REMARK   18  A    between atoms: O_35  and  C_36
REMARK   19  A    between atoms: C_36  and  C_37
REMARK                            x       y       z     vdW  Elec       q    Type
REMARK                         _______ _______ _______ _____ _____    ______ ____
ROOT
ATOM      1  C   LIG A   1     -10.719   6.530 131.138  0.00  0.00    +0.163 A 
ATOM      2  C   LIG A   1      -9.645   7.062 130.435  0.00  0.00    +0.173 A 
ATOM      3  C   LIG A   1      -8.337   6.943 130.929  0.00  0.00    +0.054 A 
ATOM      4  C   LIG A   1      -8.069   6.147 132.065  0.00  0.00    -0.033 A 
ATOM      5  C   LIG A   1      -6.639   5.960 132.583  0.00  0.00    +0.056 C 
ATOM      6  C   LIG A   1      -6.472   4.930 133.759  0.00  0.00    +0.045 C 
ATOM      7  C   LIG A   1      -7.655   3.939 133.925  0.00  0.00    +0.038 C 
ATOM      8  C   LIG A   1      -8.982   4.697 133.941  0.00  0.00    +0.042 C 
ATOM      9  C   LIG A   1      -9.158   5.542 132.714  0.00  0.00    -0.040 A 
ATOM     10  C   LIG A   1     -10.469   5.752 132.257  0.00  0.00    +0.053 A 
ENDROOT
BRANCH   5  11
ATOM     11  C   LIG A   1      -5.570   5.715 131.507  0.00  0.00    -0.036 A 
ATOM     12  C   LIG A   1      -5.228   4.393 131.190  0.00  0.00    +0.008 A 
ATOM     13  C   LIG A   1      -4.256   4.122 130.232  0.00  0.00    +0.050 A 
ATOM     14  C   LIG A   1      -3.637   5.163 129.534  0.00  0.00    +0.173 A 
ATOM     15  C   LIG A   1      -3.942   6.499 129.840  0.00  0.00    +0.163 A 
ATOM     16  C   LIG A   1      -4.919   6.758 130.817  0.00  0.00    +0.053 A 
BRANCH  15  17
ATOM     17  O   LIG A   1      -3.290   7.485 129.141  0.00  0.00    -0.491 OA
ATOM     18  C   LIG A   1      -3.761   8.821 129.331  0.00  0.00    +0.277 C 
ENDBRANCH  15  17
BRANCH  14  19
ATOM     19  O   LIG A   1      -2.596   4.854 128.626  0.00  0.00    -0.422 OA
BRANCH  19  20
ATOM     20  C   LIG A   1      -2.962   4.324 127.382  0.00  0.00    +0.309 C 
ATOM     21  C   LIG A   1      -2.001   3.235 127.002  0.00  0.00    +0.136 C 
ATOM     22  O   LIG A   1      -3.930   4.640 126.709  0.00  0.00    -0.251 OA
ENDBRANCH  19  20
ENDBRANCH  14  19
ENDBRANCH   5  11
BRANCH   1  24
ATOM     23  C   LIG A   1     -12.836   7.610 131.458  0.00  0.00    +0.277 C 
ATOM     24  O   LIG A   1     -11.948   6.846 130.682  0.00  0.00    -0.491 OA
ENDBRANCH   1  24
BRANCH   2  25
ATOM     25  O   LIG A   1      -9.795   7.697 129.168  0.00  0.00    -0.422 OA
BRANCH  25  26
ATOM     26  C   LIG A   1     -10.103   7.050 127.946  0.00  0.00    +0.309 C 
ATOM     27  C   LIG A   1     -11.201   7.792 127.287  0.00  0.00    +0.136 C 
ATOM     28  O   LIG A   1      -9.587   6.076 127.405  0.00  0.00    -0.251 OA
ENDBRANCH  25  26
ENDBRANCH   2  25
BRANCH   6  29
ATOM     29  C   LIG A   1      -6.205   5.698 135.082  0.00  0.00    +0.237 C 
BRANCH  29  30
ATOM     30  O   LIG A   1      -4.813   5.534 135.407  0.00  0.00    -0.465 OA
BRANCH  30  31
ATOM     31  C   LIG A   1      -4.439   4.343 135.941  0.00  0.00    +0.304 C 
ATOM     32  C   LIG A   1      -5.204   4.091 137.207  0.00  0.00    +0.136 C 
ATOM     33  O   LIG A   1      -3.672   3.545 135.431  0.00  0.00    -0.251 OA
ENDBRANCH  30  31
ENDBRANCH  29  30
ENDBRANCH   6  29
BRANCH   7  34
ATOM     34  C   LIG A   1      -7.652   2.791 132.895  0.00  0.00    +0.236 C 
BRANCH  34  35
ATOM     35  O   LIG A   1      -8.882   2.062 133.080  0.00  0.00    -0.465 OA
BRANCH  35  36
ATOM     36  C   LIG A   1      -9.396   1.457 131.965  0.00  0.00    +0.304 C 
ATOM     37  C   LIG A   1      -9.302   2.425 130.814  0.00  0.00    +0.136 C 
ATOM     38  O   LIG A   1      -9.765   0.316 131.880  0.00  0.00    -0.251 OA
ENDBRANCH  35  36
ENDBRANCH  34  35
ENDBRANCH   7  34
TORSDOF 13
ENDMDL
MODEL 2
REMARK VINA RESULT:      -7.8      0.989      1.939
REMARK  Name = NuBBE_2460
REMARK  19 active torsions:
REMARK  status: ('A' for Active; 'I' for Inactive)
REMARK    1  A    between atoms: C_1  and  O_2
REMARK    2  A    between atoms: O_2  and  C_3
REMARK    3  A    between atoms: C_4  and  O_5
REMARK    4  A    between atoms: O_5  and  C_6
REMARK    5  A    between atoms: C_6  and  C_7
REMARK    6  A    between atoms: C_11  and  C_13
REMARK    7  A    between atoms: C_16  and  O_17
REMARK    8  A    between atoms: O_17  and  C_18
REMARK    9  A    between atoms: C_18  and  C_19
REMARK   10  A    between atoms: C_21  and  O_22
REMARK   11  A    between atoms: O_22  and  C_23
REMARK   12  A    between atoms: C_25  and  C_27
REMARK   13  A    between atoms: C_27  and  O_28
REMARK   14  A    between atoms: O_28  and  C_29
REMARK   15  A    between atoms: C_29  and  C_30
REMARK   16  A    between atoms: C_32  and  C_34
REMARK   17  A    between atoms: C_34  and  O_35
REMARK   18  A    between atoms: O_35  and  C_36
REMARK   19  A    between atoms: C_36  and  C_37
REMARK                            x       y       z     vdW  Elec       q    Type
REMARK                         _______ _______ _______ _____ _____    ______ ____
ROOT
ATOM      1  C   LIG A   1     -10.632   6.622 131.099  0.00  0.00    +0.163 A 
ATOM      2  C   LIG A   1      -9.524   7.097 130.408  0.00  0.00    +0.173 A 
ATOM      3  C   LIG A   1      -8.232   6.945 130.936  0.00  0.00    +0.054 A 
ATOM      4  C   LIG A   1      -8.019   6.169 132.097  0.00  0.00    -0.033 A 
ATOM      5  C   LIG A   1      -6.609   5.945 132.653  0.00  0.00    +0.056 C 
ATOM      6  C   LIG A   1      -6.506   4.940 133.858  0.00  0.00    +0.045 C 
ATOM      7  C   LIG A   1      -7.727   3.997 134.021  0.00  0.00    +0.038 C 
ATOM      8  C   LIG A   1      -9.026   4.801 133.987  0.00  0.00    +0.042 C 
ATOM      9  C   LIG A   1      -9.144   5.620 132.735  0.00  0.00    -0.040 A 
ATOM     10  C   LIG A   1     -10.436   5.865 132.242  0.00  0.00    +0.053 A 
ENDROOT
BRANCH   5  11
ATOM     11  C   LIG A   1      -5.525   5.635 131.609  0.00  0.00    -0.036 A 
ATOM     12  C   LIG A   1      -4.836   6.704 131.019  0.00  0.00    +0.008 A 
ATOM     13  C   LIG A   1      -3.857   6.472 130.060  0.00  0.00    +0.050 A 
ATOM     14  C   LIG A   1      -3.508   5.167 129.700  0.00  0.00    +0.173 A 
ATOM     15  C   LIG A   1      -4.190   4.074 130.258  0.00  0.00    +0.163 A 
ATOM     16  C   LIG A   1      -5.185   4.324 131.219  0.00  0.00    +0.053 A 
BRANCH  15  17
ATOM     17  O   LIG A   1      -3.824   2.813 129.857  0.00  0.00    -0.491 OA
ATOM     18  C   LIG A   1      -4.868   1.973 129.358  0.00  0.00    +0.277 C 
ENDBRANCH  15  17
BRANCH  14  19
ATOM     19  O   LIG A   1      -2.565   4.971 128.663  0.00  0.00    -0.422 OA
BRANCH  19  20
ATOM     20  C   LIG A   1      -3.057   4.595 127.406  0.00  0.00    +0.309 C 
ATOM     21  C   LIG A   1      -2.165   3.541 126.817  0.00  0.00    +0.136 C 
ATOM     22  O   LIG A   1      -4.074   5.003 126.867  0.00  0.00    -0.251 OA
ENDBRANCH  19  20
ENDBRANCH  14  19
ENDBRANCH   5  11
BRANCH   1  24
ATOM     23  C   LIG A   1     -12.830   7.520 131.435  0.00  0.00    +0.277 C 
ATOM     24  O   LIG A   1     -11.838   6.970 130.606  0.00  0.00    -0.491 OA
ENDBRANCH   1  24
BRANCH   2  25
ATOM     25  O   LIG A   1      -9.622   7.704 129.123  0.00  0.00    -0.422 OA
BRANCH  25  26
ATOM     26  C   LIG A   1     -10.047   7.064 127.932  0.00  0.00    +0.309 C 
ATOM     27  C   LIG A   1     -11.073   7.912 127.286  0.00  0.00    +0.136 C 
ATOM     28  O   LIG A   1      -9.667   6.022 127.406  0.00  0.00    -0.251 OA
ENDBRANCH  25  26
ENDBRANCH   2  25
BRANCH   6  29
ATOM     29  C   LIG A   1      -6.241   5.732 135.167  0.00  0.00    +0.237 C 
BRANCH  29  30
ATOM     30  O   LIG A   1      -4.821   5.729 135.398  0.00  0.00    -0.465 OA
BRANCH  30  31
ATOM     31  C   LIG A   1      -4.207   6.937 135.483  0.00  0.00    +0.304 C 
ATOM     32  C   LIG A   1      -3.240   7.097 134.348  0.00  0.00    +0.136 C 
ATOM     33  O   LIG A   1      -4.462   7.809 136.296  0.00  0.00    -0.251 OA
ENDBRANCH  30  31
ENDBRANCH  29  30
ENDBRANCH   6  29
BRANCH   7  34
ATOM     34  C   LIG A   1      -7.743   2.823 133.020  0.00  0.00    +0.236 C 
BRANCH  34  35
ATOM     35  O   LIG A   1      -9.026   2.179 133.152  0.00  0.00    -0.465 OA
BRANCH  35  36
ATOM     36  C   LIG A   1      -9.530   1.606 132.017  0.00  0.00    +0.304 C 
ATOM     37  C   LIG A   1      -9.256   2.528 130.856  0.00  0.00    +0.136 C 
ATOM     38  O   LIG A   1     -10.018   0.510 131.927  0.00  0.00    -0.251 OA
ENDBRANCH  35  36
ENDBRANCH  34  35
ENDBRANCH   7  34
TORSDOF 13
ENDMDL
MODEL 3
REMARK VINA RESULT:      -7.5      2.880      4.475
REMARK  Name = NuBBE_2460
REMARK  19 active torsions:
REMARK  status: ('A' for Active; 'I' for Inactive)
REMARK    1  A    between atoms: C_1  and  O_2
REMARK    2  A    between atoms: O_2  and  C_3
REMARK    3  A    between atoms: C_4  and  O_5
REMARK    4  A    between atoms: O_5  and  C_6
REMARK    5  A    between atoms: C_6  and  C_7
REMARK    6  A    between atoms: C_11  and  C_13
REMARK    7  A    between atoms: C_16  and  O_17
REMARK    8  A    between atoms: O_17  and  C_18
REMARK    9  A    between atoms: C_18  and  C_19
REMARK   10  A    between atoms: C_21  and  O_22
REMARK   11  A    between atoms: O_22  and  C_23
REMARK   12  A    between atoms: C_25  and  C_27
REMARK   13  A    between atoms: C_27  and  O_28
REMARK   14  A    between atoms: O_28  and  C_29
REMARK   15  A    between atoms: C_29  and  C_30
REMARK   16  A    between atoms: C_32  and  C_34
REMARK   17  A    between atoms: C_34  and  O_35
REMARK   18  A    between atoms: O_35  and  C_36
REMARK   19  A    between atoms: C_36  and  C_37
REMARK                            x       y       z     vdW  Elec       q    Type
REMARK                         _______ _______ _______ _____ _____    ______ ____
ROOT
ATOM      1  C   LIG A   1     -11.776   6.407 131.247  0.00  0.00    +0.163 A 
ATOM      2  C   LIG A   1     -11.495   6.172 129.906  0.00  0.00    +0.173 A 
ATOM      3  C   LIG A   1     -10.225   5.727 129.509  0.00  0.00    +0.054 A 
ATOM      4  C   LIG A   1      -9.261   5.357 130.473  0.00  0.00    -0.033 A 
ATOM      5  C   LIG A   1      -7.890   4.814 130.056  0.00  0.00    +0.056 C 
ATOM      6  C   LIG A   1      -6.977   4.301 131.229  0.00  0.00    +0.045 C 
ATOM      7  C   LIG A   1      -7.730   4.000 132.552  0.00  0.00    +0.038 C 
ATOM      8  C   LIG A   1      -8.631   5.175 132.928  0.00  0.00    +0.042 C 
ATOM      9  C   LIG A   1      -9.594   5.517 131.829  0.00  0.00    -0.040 A 
ATOM     10  C   LIG A   1     -10.836   6.054 132.202  0.00  0.00    +0.053 A 
ENDROOT
BRANCH   5  11
ATOM     11  C   LIG A   1      -7.902   3.792 128.908  0.00  0.00    -0.036 A 
ATOM     12  C   LIG A   1      -8.559   2.569 129.106  0.00  0.00    +0.008 A 
ATOM     13  C   LIG A   1      -8.585   1.608 128.101  0.00  0.00    +0.050 A 
ATOM     14  C   LIG A   1      -7.998   1.864 126.858  0.00  0.00    +0.173 A 
ATOM     15  C   LIG A   1      -7.317   3.070 126.632  0.00  0.00    +0.163 A 
ATOM     16  C   LIG A   1      -7.290   4.028 127.661  0.00  0.00    +0.053 A 
BRANCH  15  17
ATOM     17  O   LIG A   1      -6.739   3.264 125.402  0.00  0.00    -0.491 OA
ATOM     18  C   LIG A   1      -5.322   3.451 125.383  0.00  0.00    +0.277 C 
ENDBRANCH  15  17
BRANCH  14  19
ATOM     19  O   LIG A   1      -7.973   0.833 125.888  0.00  0.00    -0.422 OA
BRANCH  19  20
ATOM     20  C   LIG A   1      -9.204   0.379 125.397  0.00  0.00    +0.309 C 
ATOM     21  C   LIG A   1      -9.797   1.422 124.495  0.00  0.00    +0.136 C 
ATOM     22  O   LIG A   1      -9.720  -0.707 125.609  0.00  0.00    -0.251 OA
ENDBRANCH  19  20
ENDBRANCH  14  19
ENDBRANCH   5  11
BRANCH   1  24
ATOM     23  C   LIG A   1     -13.053   8.397 131.648  0.00  0.00    +0.277 C 
ATOM     24  O   LIG A   1     -12.957   7.001 131.515  0.00  0.00    -0.491 OA
ENDBRANCH   1  24
BRANCH   2  25
ATOM     25  O   LIG A   1     -12.474   6.312 128.881  0.00  0.00    -0.422 OA
BRANCH  25  26
ATOM     26  C   LIG A   1     -12.331   7.072 127.694  0.00  0.00    +0.309 C 
ATOM     27  C   LIG A   1     -12.193   8.498 128.065  0.00  0.00    +0.136 C 
ATOM     28  O   LIG A   1     -12.266   6.717 126.520  0.00  0.00    -0.251 OA
ENDBRANCH  25  26
ENDBRANCH   2  25
BRANCH   6  29
ATOM     29  C   LIG A   1      -5.828   5.318 131.467  0.00  0.00    +0.237 C 
BRANCH  29  30
ATOM     30  O   LIG A   1      -5.791   6.207 130.337  0.00  0.00    -0.465 OA
BRANCH  30  31
ATOM     31  C   LIG A   1      -4.750   7.074 130.267  0.00  0.00    +0.304 C 
ATOM     32  C   LIG A   1      -4.046   7.133 131.590  0.00  0.00    +0.136 C 
ATOM     33  O   LIG A   1      -4.371   7.652 129.262  0.00  0.00    -0.251 OA
ENDBRANCH  30  31
ENDBRANCH  29  30
ENDBRANCH   6  29
BRANCH   7  34
ATOM     34  C   LIG A   1      -8.495   2.661 132.539  0.00  0.00    +0.236 C 
BRANCH  34  35
ATOM     35  O   LIG A   1      -7.681   1.708 133.252  0.00  0.00    -0.465 OA
BRANCH  35  36
ATOM     36  C   LIG A   1      -7.531   0.484 132.659  0.00  0.00    +0.304 C 
ATOM     37  C   LIG A   1      -8.764   0.196 131.843  0.00  0.00    +0.136 C 
ATOM     38  O   LIG A   1      -6.547  -0.206 132.690  0.00  0.00    -0.251 OA
ENDBRANCH  35  36
ENDBRANCH  34  35
ENDBRANCH   7  34
TORSDOF 13
ENDMDL
MODEL 4
REMARK VINA RESULT:      -7.4      3.107      6.308
REMARK  Name = NuBBE_2460
REMARK  19 active torsions:
REMARK  status: ('A' for Active; 'I' for Inactive)
REMARK    1  A    between atoms: C_1  and  O_2
REMARK    2  A    between atoms: O_2  and  C_3
REMARK    3  A    between atoms: C_4  and  O_5
REMARK    4  A    between atoms: O_5  and  C_6
REMARK    5  A    between atoms: C_6  and  C_7
REMARK    6  A    between atoms: C_11  and  C_13
REMARK    7  A    between atoms: C_16  and  O_17
REMARK    8  A    between atoms: O_17  and  C_18
REMARK    9  A    between atoms: C_18  and  C_19
REMARK   10  A    between atoms: C_21  and  O_22
REMARK   11  A    between atoms: O_22  and  C_23
REMARK   12  A    between atoms: C_25  and  C_27
REMARK   13  A    between atoms: C_27  and  O_28
REMARK   14  A    between atoms: O_28  and  C_29
REMARK   15  A    between atoms: C_29  and  C_30
REMARK   16  A    between atoms: C_32  and  C_34
REMARK   17  A    between atoms: C_34  and  O_35
REMARK   18  A    between atoms: O_35  and  C_36
REMARK   19  A    between atoms: C_36  and  C_37
REMARK                            x       y       z     vdW  Elec       q    Type
REMARK                         _______ _______ _______ _____ _____    ______ ____
ROOT
ATOM      1  C   LIG A   1      -5.020   6.730 130.809  0.00  0.00    +0.163 A 
ATOM      2  C   LIG A   1      -4.736   5.563 130.110  0.00  0.00    +0.173 A 
ATOM      3  C   LIG A   1      -5.734   4.600 129.891  0.00  0.00    +0.054 A 
ATOM      4  C   LIG A   1      -7.077   4.868 130.236  0.00  0.00    -0.033 A 
ATOM      5  C   LIG A   1      -8.187   3.850 129.951  0.00  0.00    +0.056 C 
ATOM      6  C   LIG A   1      -9.651   4.341 130.247  0.00  0.00    +0.045 C 
ATOM      7  C   LIG A   1      -9.809   5.882 130.350  0.00  0.00    +0.038 C 
ATOM      8  C   LIG A   1      -8.753   6.462 131.288  0.00  0.00    +0.042 C 
ATOM      9  C   LIG A   1      -7.362   6.093 130.862  0.00  0.00    -0.040 A 
ATOM     10  C   LIG A   1      -6.333   7.002 131.157  0.00  0.00    +0.053 A 
ENDROOT
BRANCH   5  11
ATOM     11  C   LIG A   1      -8.125   3.168 128.576  0.00  0.00    -0.036 A 
ATOM     12  C   LIG A   1      -8.526   1.829 128.472  0.00  0.00    +0.008 A 
ATOM     13  C   LIG A   1      -8.475   1.166 127.251  0.00  0.00    +0.050 A 
ATOM     14  C   LIG A   1      -8.066   1.837 126.094  0.00  0.00    +0.173 A 
ATOM     15  C   LIG A   1      -7.640   3.172 126.165  0.00  0.00    +0.163 A 
ATOM     16  C   LIG A   1      -7.688   3.827 127.408  0.00  0.00    +0.053 A 
BRANCH  15  17
ATOM     17  O   LIG A   1      -7.229   3.780 125.005  0.00  0.00    -0.491 OA
ATOM     18  C   LIG A   1      -6.469   4.982 125.148  0.00  0.00    +0.277 C 
ENDBRANCH  15  17
BRANCH  14  19
ATOM     19  O   LIG A   1      -7.949   1.109 124.886  0.00  0.00    -0.422 OA
BRANCH  19  20
ATOM     20  C   LIG A   1      -9.114   0.533 124.364  0.00  0.00    +0.309 C 
ATOM     21  C   LIG A   1      -9.947   1.596 123.709  0.00  0.00    +0.136 C 
ATOM     22  O   LIG A   1      -9.413  -0.651 124.378  0.00  0.00    -0.251 OA
ENDBRANCH  19  20
ENDBRANCH  14  19
ENDBRANCH   5  11
BRANCH   1  24
ATOM     23  C   LIG A   1      -3.309   7.376 132.360  0.00  0.00    +0.277 C 
ATOM     24  O   LIG A   1      -3.966   7.509 131.125  0.00  0.00    -0.491 OA
ENDBRANCH   1  24
BRANCH   2  25
ATOM     25  O   LIG A   1      -3.459   5.302 129.536  0.00  0.00    -0.422 OA
BRANCH  25  26
ATOM     26  C   LIG A   1      -3.012   5.747 128.267  0.00  0.00    +0.309 C 
ATOM     27  C   LIG A   1      -2.931   4.578 127.363  0.00  0.00    +0.136 C 
ATOM     28  O   LIG A   1      -2.758   6.877 127.860  0.00  0.00    -0.251 OA
ENDBRANCH  25  26
ENDBRANCH   2  25
BRANCH   6  29
ATOM     29  C   LIG A   1     -10.176   3.646 131.532  0.00  0.00    +0.237 C 
BRANCH  29  30
ATOM     30  O   LIG A   1      -9.266   2.580 131.854  0.00  0.00    -0.465 OA
BRANCH  30  31
ATOM     31  C   LIG A   1      -8.670   2.623 133.073  0.00  0.00    +0.304 C 
ATOM     32  C   LIG A   1      -9.206   3.780 133.861  0.00  0.00    +0.136 C 
ATOM     33  O   LIG A   1      -7.887   1.797 133.511  0.00  0.00    -0.251 OA
ENDBRANCH  30  31
ENDBRANCH  29  30
ENDBRANCH   6  29
BRANCH   7  34
ATOM     34  C   LIG A   1      -9.828   6.596 128.983  0.00  0.00    +0.236 C 
BRANCH  34  35
ATOM     35  O   LIG A   1     -11.120   6.340 128.395  0.00  0.00    -0.465 OA
BRANCH  35  36
ATOM     36  C   LIG A   1     -11.845   7.443 128.036  0.00  0.00    +0.304 C 
ATOM     37  C   LIG A   1     -13.293   7.042 127.916  0.00  0.00    +0.136 C 
ATOM     38  O   LIG A   1     -11.429   8.567 127.932  0.00  0.00    -0.251 OA
ENDBRANCH  35  36
ENDBRANCH  34  35
ENDBRANCH   7  34
TORSDOF 13
ENDMDL
MODEL 5
REMARK VINA RESULT:      -7.4      5.098      7.410
REMARK  Name = NuBBE_2460
REMARK  19 active torsions:
REMARK  status: ('A' for Active; 'I' for Inactive)
REMARK    1  A    between atoms: C_1  and  O_2
REMARK    2  A    between atoms: O_2  and  C_3
REMARK    3  A    between atoms: C_4  and  O_5
REMARK    4  A    between atoms: O_5  and  C_6
REMARK    5  A    between atoms: C_6  and  C_7
REMARK    6  A    between atoms: C_11  and  C_13
REMARK    7  A    between atoms: C_16  and  O_17
REMARK    8  A    between atoms: O_17  and  C_18
REMARK    9  A    between atoms: C_18  and  C_19
REMARK   10  A    between atoms: C_21  and  O_22
REMARK   11  A    between atoms: O_22  and  C_23
REMARK   12  A    between atoms: C_25  and  C_27
REMARK   13  A    between atoms: C_27  and  O_28
REMARK   14  A    between atoms: O_28  and  C_29
REMARK   15  A    between atoms: C_29  and  C_30
REMARK   16  A    between atoms: C_32  and  C_34
REMARK   17  A    between atoms: C_34  and  O_35
REMARK   18  A    between atoms: O_35  and  C_36
REMARK   19  A    between atoms: C_36  and  C_37
REMARK                            x       y       z     vdW  Elec       q    Type
REMARK                         _______ _______ _______ _____ _____    ______ ____
ROOT
ATOM      1  C   LIG A   1      -9.254  -2.298 125.381  0.00  0.00    +0.163 A 
ATOM      2  C   LIG A   1      -9.091  -0.928 125.212  0.00  0.00    +0.173 A 
ATOM      3  C   LIG A   1      -8.587  -0.134 126.253  0.00  0.00    +0.054 A 
ATOM      4  C   LIG A   1      -8.087  -0.731 127.433  0.00  0.00    -0.033 A 
ATOM      5  C   LIG A   1      -7.480   0.118 128.555  0.00  0.00    +0.056 C 
ATOM      6  C   LIG A   1      -6.828  -0.686 129.738  0.00  0.00    +0.045 C 
ATOM      7  C   LIG A   1      -6.491  -2.165 129.408  0.00  0.00    +0.038 C 
ATOM      8  C   LIG A   1      -7.698  -2.854 128.773  0.00  0.00    +0.042 C 
ATOM      9  C   LIG A   1      -8.178  -2.128 127.551  0.00  0.00    -0.040 A 
ATOM     10  C   LIG A   1      -8.773  -2.894 126.536  0.00  0.00    +0.053 A 
ENDROOT
BRANCH   5  11
ATOM     11  C   LIG A   1      -6.542   1.246 128.100  0.00  0.00    -0.036 A 
ATOM     12  C   LIG A   1      -5.540   0.949 127.165  0.00  0.00    +0.008 A 
ATOM     13  C   LIG A   1      -4.658   1.935 126.734  0.00  0.00    +0.050 A 
ATOM     14  C   LIG A   1      -4.785   3.251 127.189  0.00  0.00    +0.173 A 
ATOM     15  C   LIG A   1      -5.765   3.579 128.138  0.00  0.00    +0.163 A 
ATOM     16  C   LIG A   1      -6.643   2.570 128.573  0.00  0.00    +0.053 A 
BRANCH  15  17
ATOM     17  O   LIG A   1      -5.836   4.881 128.569  0.00  0.00    -0.491 OA
ATOM     18  C   LIG A   1      -5.612   5.107 129.962  0.00  0.00    +0.277 C 
ENDBRANCH  15  17
BRANCH  14  19
ATOM     19  O   LIG A   1      -3.822   4.208 126.791  0.00  0.00    -0.422 OA
BRANCH  19  20
ATOM     20  C   LIG A   1      -2.595   4.209 127.469  0.00  0.00    +0.309 C 
ATOM     21  C   LIG A   1      -1.666   3.225 126.820  0.00  0.00    +0.136 C 
ATOM     22  O   LIG A   1      -2.281   4.921 128.410  0.00  0.00    -0.251 OA
ENDBRANCH  19  20
ENDBRANCH  14  19
ENDBRANCH   5  11
BRANCH   1  24
ATOM     23  C   LIG A   1      -9.235  -3.389 123.246  0.00  0.00    +0.277 C 
ATOM     24  O   LIG A   1      -9.908  -2.948 124.398  0.00  0.00    -0.491 OA
ENDBRANCH   1  24
BRANCH   2  25
ATOM     25  O   LIG A   1      -9.366  -0.268 123.980  0.00  0.00    -0.422 OA
BRANCH  25  26
ATOM     26  C   LIG A   1     -10.091   0.939 123.829  0.00  0.00    +0.309 C 
ATOM     27  C   LIG A   1      -9.215   1.931 123.165  0.00  0.00    +0.136 C 
ATOM     28  O   LIG A   1     -11.254   1.215 124.110  0.00  0.00    -0.251 OA
ENDBRANCH  25  26
ENDBRANCH   2  25
BRANCH   6  29
ATOM     29  C   LIG A   1      -7.745  -0.594 130.988  0.00  0.00    +0.237 C 
BRANCH  29  30
ATOM     30  O   LIG A   1      -8.652   0.503 130.784  0.00  0.00    -0.465 OA
BRANCH  30  31
ATOM     31  C   LIG A   1      -8.813   1.371 131.815  0.00  0.00    +0.304 C 
ATOM     32  C   LIG A   1      -9.876   2.373 131.476  0.00  0.00    +0.136 C 
ATOM     33  O   LIG A   1      -8.255   1.302 132.897  0.00  0.00    -0.251 OA
ENDBRANCH  30  31
ENDBRANCH  29  30
ENDBRANCH   6  29
BRANCH   7  34
ATOM     34  C   LIG A   1      -5.212  -2.336 128.564  0.00  0.00    +0.236 C 
BRANCH  34  35
ATOM     35  O   LIG A   1      -4.152  -1.661 129.271  0.00  0.00    -0.465 OA
BRANCH  35  36
ATOM     36  C   LIG A   1      -3.263  -2.466 129.931  0.00  0.00    +0.304 C 
ATOM     37  C   LIG A   1      -3.097  -3.739 129.141  0.00  0.00    +0.136 C 
ATOM     38  O   LIG A   1      -2.636  -2.177 130.916  0.00  0.00    -0.251 OA
ENDBRANCH  35  36
ENDBRANCH  34  35
ENDBRANCH   7  34
TORSDOF 13
ENDMDL
MODEL 6
REMARK VINA RESULT:      -7.2      5.189      9.557
REMARK  Name = NuBBE_2460
REMARK  19 active torsions:
REMARK  status: ('A' for Active; 'I' for Inactive)
REMARK    1  A    between atoms: C_1  and  O_2
REMARK    2  A    between atoms: O_2  and  C_3
REMARK    3  A    between atoms: C_4  and  O_5
REMARK    4  A    between atoms: O_5  and  C_6
REMARK    5  A    between atoms: C_6  and  C_7
REMARK    6  A    between atoms: C_11  and  C_13
REMARK    7  A    between atoms: C_16  and  O_17
REMARK    8  A    between atoms: O_17  and  C_18
REMARK    9  A    between atoms: C_18  and  C_19
REMARK   10  A    between atoms: C_21  and  O_22
REMARK   11  A    between atoms: O_22  and  C_23
REMARK   12  A    between atoms: C_25  and  C_27
REMARK   13  A    between atoms: C_27  and  O_28
REMARK   14  A    between atoms: O_28  and  C_29
REMARK   15  A    between atoms: C_29  and  C_30
REMARK   16  A    between atoms: C_32  and  C_34
REMARK   17  A    between atoms: C_34  and  O_35
REMARK   18  A    between atoms: O_35  and  C_36
REMARK   19  A    between atoms: C_36  and  C_37
REMARK                            x       y       z     vdW  Elec       q    Type
REMARK                         _______ _______ _______ _____ _____    ______ ____
ROOT
ATOM      1  C   LIG A   1      -6.456  -1.656 124.803  0.00  0.00    +0.163 A 
ATOM      2  C   LIG A   1      -5.978  -1.278 126.052  0.00  0.00    +0.173 A 
ATOM      3  C   LIG A   1      -5.659   0.062 126.321  0.00  0.00    +0.054 A 
ATOM      4  C   LIG A   1      -5.965   1.074 125.384  0.00  0.00    -0.033 A 
ATOM      5  C   LIG A   1      -5.676   2.548 125.686  0.00  0.00    +0.056 C 
ATOM      6  C   LIG A   1      -6.206   3.576 124.622  0.00  0.00    +0.045 C 
ATOM      7  C   LIG A   1      -7.306   3.022 123.678  0.00  0.00    +0.038 C 
ATOM      8  C   LIG A   1      -6.873   1.680 123.090  0.00  0.00    +0.042 C 
ATOM      9  C   LIG A   1      -6.532   0.684 124.159  0.00  0.00    -0.040 A 
ATOM     10  C   LIG A   1      -6.756  -0.673 123.874  0.00  0.00    +0.053 A 
ENDROOT
BRANCH   5  11
ATOM     11  C   LIG A   1      -6.037   3.018 127.104  0.00  0.00    -0.036 A 
ATOM     12  C   LIG A   1      -5.181   3.921 127.750  0.00  0.00    +0.008 A 
ATOM     13  C   LIG A   1      -5.460   4.364 129.038  0.00  0.00    +0.050 A 
ATOM     14  C   LIG A   1      -6.624   3.954 129.695  0.00  0.00    +0.173 A 
ATOM     15  C   LIG A   1      -7.494   3.037 129.085  0.00  0.00    +0.163 A 
ATOM     16  C   LIG A   1      -7.194   2.590 127.785  0.00  0.00    +0.053 A 
BRANCH  15  17
ATOM     17  O   LIG A   1      -8.613   2.650 129.779  0.00  0.00    -0.491 OA
ATOM     18  C   LIG A   1      -8.580   1.350 130.372  0.00  0.00    +0.277 C 
ENDBRANCH  15  17
BRANCH  14  19
ATOM     19  O   LIG A   1      -6.834   4.361 131.034  0.00  0.00    -0.422 OA
BRANCH  19  20
ATOM     20  C   LIG A   1      -7.629   5.494 131.247  0.00  0.00    +0.309 C 
ATOM     21  C   LIG A   1      -6.758   6.716 131.278  0.00  0.00    +0.136 C 
ATOM     22  O   LIG A   1      -8.846   5.526 131.348  0.00  0.00    -0.251 OA
ENDBRANCH  19  20
ENDBRANCH  14  19
ENDBRANCH   5  11
BRANCH   1  24
ATOM     23  C   LIG A   1      -7.822  -3.607 124.523  0.00  0.00    +0.277 C 
ATOM     24  O   LIG A   1      -6.565  -2.981 124.580  0.00  0.00    -0.491 OA
ENDBRANCH   1  24
BRANCH   2  25
ATOM     25  O   LIG A   1      -5.839  -2.198 127.131  0.00  0.00    -0.422 OA
BRANCH  25  26
ATOM     26  C   LIG A   1      -6.533  -2.142 128.365  0.00  0.00    +0.309 C 
ATOM     27  C   LIG A   1      -7.890  -2.697 128.164  0.00  0.00    +0.136 C 
ATOM     28  O   LIG A   1      -6.162  -1.770 129.475  0.00  0.00    -0.251 OA
ENDBRANCH  25  26
ENDBRANCH   2  25
BRANCH   6  29
ATOM     29  C   LIG A   1      -5.009   4.135 123.806  0.00  0.00    +0.237 C 
BRANCH  29  30
ATOM     30  O   LIG A   1      -5.546   4.911 122.721  0.00  0.00    -0.465 OA
BRANCH  30  31
ATOM     31  C   LIG A   1      -4.827   4.946 121.571  0.00  0.00    +0.304 C 
ATOM     32  C   LIG A   1      -4.998   3.657 120.823  0.00  0.00    +0.136 C 
ATOM     33  O   LIG A   1      -4.207   5.907 121.148  0.00  0.00    -0.251 OA
ENDBRANCH  30  31
ENDBRANCH  29  30
ENDBRANCH   6  29
BRANCH   7  34
ATOM     34  C   LIG A   1      -8.703   2.948 124.328  0.00  0.00    +0.236 C 
BRANCH  34  35
ATOM     35  O   LIG A   1      -9.470   1.998 123.563  0.00  0.00    -0.465 OA
BRANCH  35  36
ATOM     36  C   LIG A   1     -10.409   1.284 124.258  0.00  0.00    +0.304 C 
ATOM     37  C   LIG A   1      -9.766   0.749 125.512  0.00  0.00    +0.136 C 
ATOM     38  O   LIG A   1     -11.575   1.182 123.981  0.00  0.00    -0.251 OA
ENDBRANCH  35  36
ENDBRANCH  34  35
ENDBRANCH   7  34
TORSDOF 13
ENDMDL
MODEL 7
REMARK VINA RESULT:      -7.2      3.607      7.458
REMARK  Name = NuBBE_2460
REMARK  19 active torsions:
REMARK  status: ('A' for Active; 'I' for Inactive)
REMARK    1  A    between atoms: C_1  and  O_2
REMARK    2  A    between atoms: O_2  and  C_3
REMARK    3  A    between atoms: C_4  and  O_5
REMARK    4  A    between atoms: O_5  and  C_6
REMARK    5  A    between atoms: C_6  and  C_7
REMARK    6  A    between atoms: C_11  and  C_13
REMARK    7  A    between atoms: C_16  and  O_17
REMARK    8  A    between atoms: O_17  and  C_18
REMARK    9  A    between atoms: C_18  and  C_19
REMARK   10  A    between atoms: C_21  and  O_22
REMARK   11  A    between atoms: O_22  and  C_23
REMARK   12  A    between atoms: C_25  and  C_27
REMARK   13  A    between atoms: C_27  and  O_28
REMARK   14  A    between atoms: O_28  and  C_29
REMARK   15  A    between atoms: C_29  and  C_30
REMARK   16  A    between atoms: C_32  and  C_34
REMARK   17  A    between atoms: C_34  and  O_35
REMARK   18  A    between atoms: O_35  and  C_36
REMARK   19  A    between atoms: C_36  and  C_37
REMARK                            x       y       z     vdW  Elec       q    Type
REMARK                         _______ _______ _______ _____ _____    ______ ____
ROOT
ATOM      1  C   LIG A   1      -6.757   0.360 125.799  0.00  0.00    +0.163 A 
ATOM      2  C   LIG A   1      -7.960   1.003 126.063  0.00  0.00    +0.173 A 
ATOM      3  C   LIG A   1      -8.356   1.264 127.384  0.00  0.00    +0.054 A 
ATOM      4  C   LIG A   1      -7.471   1.023 128.459  0.00  0.00    -0.033 A 
ATOM      5  C   LIG A   1      -7.867   1.357 129.902  0.00  0.00    +0.056 C 
ATOM      6  C   LIG A   1      -6.733   1.179 130.975  0.00  0.00    +0.045 C 
ATOM      7  C   LIG A   1      -5.294   1.132 130.396  0.00  0.00    +0.038 C 
ATOM      8  C   LIG A   1      -5.221   0.138 129.238  0.00  0.00    +0.042 C 
ATOM      9  C   LIG A   1      -6.221   0.454 128.165  0.00  0.00    -0.040 A 
ATOM     10  C   LIG A   1      -5.884   0.113 126.845  0.00  0.00    +0.053 A 
ENDROOT
BRANCH   5  11
ATOM     11  C   LIG A   1      -8.578   2.704 130.100  0.00  0.00    -0.036 A 
ATOM     12  C   LIG A   1      -9.942   2.701 130.427  0.00  0.00    +0.008 A 
ATOM     13  C   LIG A   1     -10.631   3.896 130.603  0.00  0.00    +0.050 A 
ATOM     14  C   LIG A   1      -9.966   5.122 130.504  0.00  0.00    +0.173 A 
ATOM     15  C   LIG A   1      -8.605   5.162 130.161  0.00  0.00    +0.163 A 
ATOM     16  C   LIG A   1      -7.924   3.946 129.975  0.00  0.00    +0.053 A 
BRANCH  15  17
ATOM     17  O   LIG A   1      -8.003   6.391 130.055  0.00  0.00    -0.491 OA
ATOM     18  C   LIG A   1      -7.186   6.799 131.155  0.00  0.00    +0.277 C 
ENDBRANCH  15  17
BRANCH  14  19
ATOM     19  O   LIG A   1     -10.715   6.318 130.609  0.00  0.00    -0.422 OA
BRANCH  19  20
ATOM     20  C   LIG A   1     -11.622   6.604 129.581  0.00  0.00    +0.309 C 
ATOM     21  C   LIG A   1     -12.870   7.197 130.167  0.00  0.00    +0.136 C 
ATOM     22  O   LIG A   1     -11.441   6.452 128.383  0.00  0.00    -0.251 OA
ENDBRANCH  19  20
ENDBRANCH  14  19
ENDBRANCH   5  11
BRANCH   1  24
ATOM     23  C   LIG A   1      -6.352  -1.355 124.173  0.00  0.00    +0.277 C 
ATOM     24  O   LIG A   1      -6.544  -0.007 124.519  0.00  0.00    -0.491 OA
ENDBRANCH   1  24
BRANCH   2  25
ATOM     25  O   LIG A   1      -8.821   1.478 125.032  0.00  0.00    -0.422 OA
BRANCH  25  26
ATOM     26  C   LIG A   1      -8.797   2.775 124.462  0.00  0.00    +0.309 C 
ATOM     27  C   LIG A   1      -8.769   2.638 122.988  0.00  0.00    +0.136 C 
ATOM     28  O   LIG A   1      -8.841   3.882 124.991  0.00  0.00    -0.251 OA
ENDBRANCH  25  26
ENDBRANCH   2  25
BRANCH   6  29
ATOM     29  C   LIG A   1      -7.025  -0.086 131.828  0.00  0.00    +0.237 C 
BRANCH  29  30
ATOM     30  O   LIG A   1      -7.959  -0.899 131.095  0.00  0.00    -0.465 OA
BRANCH  30  31
ATOM     31  C   LIG A   1      -7.596  -2.182 130.844  0.00  0.00    +0.304 C 
ATOM     32  C   LIG A   1      -8.028  -2.573 129.462  0.00  0.00    +0.136 C 
ATOM     33  O   LIG A   1      -6.934  -2.891 131.583  0.00  0.00    -0.251 OA
ENDBRANCH  30  31
ENDBRANCH  29  30
ENDBRANCH   6  29
BRANCH   7  34
ATOM     34  C   LIG A   1      -4.735   2.517 130.009  0.00  0.00    +0.236 C 
BRANCH  34  35
ATOM     35  O   LIG A   1      -3.629   2.286 129.113  0.00  0.00    -0.465 OA
BRANCH  35  36
ATOM     36  C   LIG A   1      -3.438   3.229 128.140  0.00  0.00    +0.304 C 
ATOM     37  C   LIG A   1      -4.776   3.829 127.790  0.00  0.00    +0.136 C 
ATOM     38  O   LIG A   1      -2.380   3.598 127.704  0.00  0.00    -0.251 OA
ENDBRANCH  35  36
ENDBRANCH  34  35
ENDBRANCH   7  34
TORSDOF 13
ENDMDL
MODEL 8
REMARK VINA RESULT:      -7.1      3.641      7.091
REMARK  Name = NuBBE_2460
REMARK  19 active torsions:
REMARK  status: ('A' for Active; 'I' for Inactive)
REMARK    1  A    between atoms: C_1  and  O_2
REMARK    2  A    between atoms: O_2  and  C_3
REMARK    3  A    between atoms: C_4  and  O_5
REMARK    4  A    between atoms: O_5  and  C_6
REMARK    5  A    between atoms: C_6  and  C_7
REMARK    6  A    between atoms: C_11  and  C_13
REMARK    7  A    between atoms: C_16  and  O_17
REMARK    8  A    between atoms: O_17  and  C_18
REMARK    9  A    between atoms: C_18  and  C_19
REMARK   10  A    between atoms: C_21  and  O_22
REMARK   11  A    between atoms: O_22  and  C_23
REMARK   12  A    between atoms: C_25  and  C_27
REMARK   13  A    between atoms: C_27  and  O_28
REMARK   14  A    between atoms: O_28  and  C_29
REMARK   15  A    between atoms: C_29  and  C_30
REMARK   16  A    between atoms: C_32  and  C_34
REMARK   17  A    between atoms: C_34  and  O_35
REMARK   18  A    between atoms: O_35  and  C_36
REMARK   19  A    between atoms: C_36  and  C_37
REMARK                            x       y       z     vdW  Elec       q    Type
REMARK                         _______ _______ _______ _____ _____    ______ ____
ROOT
ATOM      1  C   LIG A   1      -4.034   4.087 129.909  0.00  0.00    +0.163 A 
ATOM      2  C   LIG A   1      -4.065   2.994 129.051  0.00  0.00    +0.173 A 
ATOM      3  C   LIG A   1      -5.150   2.104 129.065  0.00  0.00    +0.054 A 
ATOM      4  C   LIG A   1      -6.300   2.388 129.833  0.00  0.00    -0.033 A 
ATOM      5  C   LIG A   1      -7.517   1.456 129.814  0.00  0.00    +0.056 C 
ATOM      6  C   LIG A   1      -8.780   1.972 130.595  0.00  0.00    +0.045 C 
ATOM      7  C   LIG A   1      -8.785   3.497 130.884  0.00  0.00    +0.038 C 
ATOM      8  C   LIG A   1      -7.452   3.924 131.498  0.00  0.00    +0.042 C 
ATOM      9  C   LIG A   1      -6.289   3.547 130.628  0.00  0.00    -0.040 A 
ATOM     10  C   LIG A   1      -5.155   4.373 130.672  0.00  0.00    +0.053 A 
ENDROOT
BRANCH   5  11
ATOM     11  C   LIG A   1      -7.927   0.929 128.430  0.00  0.00    -0.036 A 
ATOM     12  C   LIG A   1      -7.705  -0.424 128.135  0.00  0.00    +0.008 A 
ATOM     13  C   LIG A   1      -8.048  -0.942 126.890  0.00  0.00    +0.050 A 
ATOM     14  C   LIG A   1      -8.664  -0.135 125.929  0.00  0.00    +0.173 A 
ATOM     15  C   LIG A   1      -8.884   1.227 126.185  0.00  0.00    +0.163 A 
ATOM     16  C   LIG A   1      -8.523   1.740 127.443  0.00  0.00    +0.053 A 
BRANCH  15  17
ATOM     17  O   LIG A   1      -9.473   1.981 125.200  0.00  0.00    -0.491 OA
ATOM     18  C   LIG A   1      -8.622   2.888 124.495  0.00  0.00    +0.277 C 
ENDBRANCH  15  17
BRANCH  14  19
ATOM     19  O   LIG A   1      -8.924  -0.676 124.647  0.00  0.00    -0.422 OA
BRANCH  19  20
ATOM     20  C   LIG A   1      -7.822  -0.960 123.830  0.00  0.00    +0.309 C 
ATOM     21  C   LIG A   1      -7.884  -2.394 123.390  0.00  0.00    +0.136 C 
ATOM     22  O   LIG A   1      -6.956  -0.177 123.472  0.00  0.00    -0.251 OA
ENDBRANCH  19  20
ENDBRANCH  14  19
ENDBRANCH   5  11
BRANCH   1  24
ATOM     23  C   LIG A   1      -2.503   5.493 131.104  0.00  0.00    +0.277 C 
ATOM     24  O   LIG A   1      -2.879   4.781 129.953  0.00  0.00    -0.491 OA
ENDBRANCH   1  24
BRANCH   2  25
ATOM     25  O   LIG A   1      -3.046   2.746 128.087  0.00  0.00    -0.422 OA
BRANCH  25  26
ATOM     26  C   LIG A   1      -2.934   3.366 126.819  0.00  0.00    +0.309 C 
ATOM     27  C   LIG A   1      -1.592   3.069 126.269  0.00  0.00    +0.136 C 
ATOM     28  O   LIG A   1      -3.751   4.014 126.170  0.00  0.00    -0.251 OA
ENDBRANCH  25  26
ENDBRANCH   2  25
BRANCH   6  29
ATOM     29  C   LIG A   1      -8.939   1.160 131.909  0.00  0.00    +0.237 C 
BRANCH  29  30
ATOM     30  O   LIG A   1      -8.851  -0.235 131.573  0.00  0.00    -0.465 OA
BRANCH  30  31
ATOM     31  C   LIG A   1      -7.960  -0.984 132.272  0.00  0.00    +0.304 C 
ATOM     32  C   LIG A   1      -7.507  -2.146 131.439  0.00  0.00    +0.136 C 
ATOM     33  O   LIG A   1      -7.514  -0.713 133.374  0.00  0.00    -0.251 OA
ENDBRANCH  30  31
ENDBRANCH  29  30
ENDBRANCH   6  29
BRANCH   7  34
ATOM     34  C   LIG A   1      -9.166   4.358 129.663  0.00  0.00    +0.236 C 
BRANCH  34  35
ATOM     35  O   LIG A   1     -10.486   4.880 129.916  0.00  0.00    -0.465 OA
BRANCH  35  36
ATOM     36  C   LIG A   1     -10.551   5.985 130.721  0.00  0.00    +0.304 C 
ATOM     37  C   LIG A   1      -9.679   7.060 130.125  0.00  0.00    +0.136 C 
ATOM     38  O   LIG A   1     -11.259   6.124 131.683  0.00  0.00    -0.251 OA
ENDBRANCH  35  36
ENDBRANCH  34  35
ENDBRANCH   7  34
TORSDOF 13
ENDMDL
MODEL 9
REMARK VINA RESULT:      -7.0      4.962      8.794
REMARK  Name = NuBBE_2460
REMARK  19 active torsions:
REMARK  status: ('A' for Active; 'I' for Inactive)
REMARK    1  A    between atoms: C_1  and  O_2
REMARK    2  A    between atoms: O_2  and  C_3
REMARK    3  A    between atoms: C_4  and  O_5
REMARK    4  A    between atoms: O_5  and  C_6
REMARK    5  A    between atoms: C_6  and  C_7
REMARK    6  A    between atoms: C_11  and  C_13
REMARK    7  A    between atoms: C_16  and  O_17
REMARK    8  A    between atoms: O_17  and  C_18
REMARK    9  A    between atoms: C_18  and  C_19
REMARK   10  A    between atoms: C_21  and  O_22
REMARK   11  A    between atoms: O_22  and  C_23
REMARK   12  A    between atoms: C_25  and  C_27
REMARK   13  A    between atoms: C_27  and  O_28
REMARK   14  A    between atoms: O_28  and  C_29
REMARK   15  A    between atoms: C_29  and  C_30
REMARK   16  A    between atoms: C_32  and  C_34
REMARK   17  A    between atoms: C_34  and  O_35
REMARK   18  A    between atoms: O_35  and  C_36
REMARK   19  A    between atoms: C_36  and  C_37
REMARK                            x       y       z     vdW  Elec       q    Type
REMARK                         _______ _______ _______ _____ _____    ______ ____
ROOT
ATOM      1  C   LIG A   1      -8.077   3.967 129.298  0.00  0.00    +0.163 A 
ATOM      2  C   LIG A   1      -8.140   2.831 130.095  0.00  0.00    +0.173 A 
ATOM      3  C   LIG A   1      -8.188   1.553 129.517  0.00  0.00    +0.054 A 
ATOM      4  C   LIG A   1      -8.014   1.389 128.125  0.00  0.00    -0.033 A 
ATOM      5  C   LIG A   1      -8.006  -0.004 127.485  0.00  0.00    +0.056 C 
ATOM      6  C   LIG A   1      -7.651  -0.045 125.954  0.00  0.00    +0.045 C 
ATOM      7  C   LIG A   1      -6.936   1.225 125.420  0.00  0.00    +0.038 C 
ATOM      8  C   LIG A   1      -7.693   2.479 125.852  0.00  0.00    +0.042 C 
ATOM      9  C   LIG A   1      -7.861   2.546 127.342  0.00  0.00    -0.040 A 
ATOM     10  C   LIG A   1      -7.912   3.819 127.931  0.00  0.00    +0.053 A 
ENDROOT
BRANCH   5  11
ATOM     11  C   LIG A   1      -7.211  -1.077 128.243  0.00  0.00    -0.036 A 
ATOM     12  C   LIG A   1      -5.929  -1.413 127.784  0.00  0.00    +0.008 A 
ATOM     13  C   LIG A   1      -5.178  -2.389 128.430  0.00  0.00    +0.050 A 
ATOM     14  C   LIG A   1      -5.667  -3.019 129.578  0.00  0.00    +0.173 A 
ATOM     15  C   LIG A   1      -6.952  -2.720 130.055  0.00  0.00    +0.163 A 
ATOM     16  C   LIG A   1      -7.705  -1.739 129.386  0.00  0.00    +0.053 A 
BRANCH  15  17
ATOM     17  O   LIG A   1      -7.395  -3.381 131.174  0.00  0.00    -0.491 OA
ATOM     18  C   LIG A   1      -7.435  -2.628 132.388  0.00  0.00    +0.277 C 
ENDBRANCH  15  17
BRANCH  14  19
ATOM     19  O   LIG A   1      -4.910  -4.063 130.161  0.00  0.00    -0.422 OA
BRANCH  19  20
ATOM     20  C   LIG A   1      -3.956  -3.709 131.125  0.00  0.00    +0.309 C 
ATOM     21  C   LIG A   1      -4.233  -4.454 132.398  0.00  0.00    +0.136 C 
ATOM     22  O   LIG A   1      -3.009  -2.954 130.972  0.00  0.00    -0.251 OA
ENDBRANCH  19  20
ENDBRANCH  14  19
ENDBRANCH   5  11
BRANCH   1  24
ATOM     23  C   LIG A   1      -9.463   5.791 130.006  0.00  0.00    +0.277 C 
ATOM     24  O   LIG A   1      -8.215   5.150 129.931  0.00  0.00    -0.491 OA
ENDBRANCH   1  24
BRANCH   2  25
ATOM     25  O   LIG A   1      -8.104   2.888 131.519  0.00  0.00    -0.422 OA
BRANCH  25  26
ATOM     26  C   LIG A   1      -9.181   2.592 132.389  0.00  0.00    +0.309 C 
ATOM     27  C   LIG A   1      -9.072   3.461 133.582  0.00  0.00    +0.136 C 
ATOM     28  O   LIG A   1     -10.122   1.814 132.261  0.00  0.00    -0.251 OA
ENDBRANCH  25  26
ENDBRANCH   2  25
BRANCH   6  29
ATOM     29  C   LIG A   1      -8.937  -0.341 125.136  0.00  0.00    +0.237 C 
BRANCH  29  30
ATOM     30  O   LIG A   1      -9.546  -1.520 125.692  0.00  0.00    -0.465 OA
BRANCH  30  31
ATOM     31  C   LIG A   1      -9.289  -2.699 125.071  0.00  0.00    +0.304 C 
ATOM     32  C   LIG A   1      -8.547  -3.613 125.999  0.00  0.00    +0.136 C 
ATOM     33  O   LIG A   1      -9.681  -3.017 123.961  0.00  0.00    -0.251 OA
ENDBRANCH  30  31
ENDBRANCH  29  30
ENDBRANCH   6  29
BRANCH   7  34
ATOM     34  C   LIG A   1      -5.439   1.293 125.783  0.00  0.00    +0.236 C 
BRANCH  34  35
ATOM     35  O   LIG A   1      -5.038   2.671 125.642  0.00  0.00    -0.465 OA
BRANCH  35  36
ATOM     36  C   LIG A   1      -4.036   3.094 126.473  0.00  0.00    +0.304 C 
ATOM     37  C   LIG A   1      -4.225   2.436 127.816  0.00  0.00    +0.136 C 
ATOM     38  O   LIG A   1      -3.102   3.787 126.168  0.00  0.00    -0.251 OA
ENDBRANCH  35  36
ENDBRANCH  34  35
ENDBRANCH   7  34
TORSDOF 13
ENDMDL
