MODEL 1
REMARK VINA RESULT:      -7.3      0.000      0.000
REMARK  Name = NuBBE_289
REMARK  11 active torsions:
REMARK  status: ('A' for Active; 'I' for Inactive)
REMARK    1  A    between atoms: O_1  and  C_2
REMARK    2  A    between atoms: C_3  and  C_4
REMARK    3  A    between atoms: C_4  and  C_5
REMARK    4  A    between atoms: C_6  and  C_7
REMARK    5  A    between atoms: C_6  and  C_8
REMARK    6  A    between atoms: C_8  and  C_9
REMARK    7  A    between atoms: C_9  and  C_10
REMARK    8  A    between atoms: C_11  and  C_12
REMARK    9  A    between atoms: C_11  and  C_13
REMARK   10  A    between atoms: C_16  and  C_17
REMARK   11  A    between atoms: C_17  and  O_18
REMARK                            x       y       z     vdW  Elec       q    Type
REMARK                         _______ _______ _______ _____ _____    ______ ____
ROOT
ATOM      1  C   LIG A   1      -6.776   3.286 122.933  0.00  0.00    +0.128 A 
ATOM      2  C   LIG A   1      -8.119   2.975 122.663  0.00  0.00    +0.064 A 
ATOM      3  C   LIG A   1      -8.650   3.302 121.406  0.00  0.00    +0.030 A 
ATOM      4  C   LIG A   1      -7.831   3.882 120.421  0.00  0.00    +0.060 A 
ATOM      5  C   LIG A   1      -6.483   4.143 120.696  0.00  0.00    +0.018 A 
ATOM      6  C   LIG A   1      -5.960   3.852 121.955  0.00  0.00    +0.047 A 
ENDROOT
BRANCH   1   7
ATOM      7  O   LIG A   1      -6.188   3.056 124.149  0.00  0.00    -0.506 OA
ATOM      8  H   LIG A   1      -5.232   3.277 124.069  0.00  0.00    +0.292 HD
ENDBRANCH   1   7
BRANCH   2   9
ATOM      9  C   LIG A   1      -8.932   2.309 123.719  0.00  0.00    +0.190 C 
ATOM     10  O   LIG A   1      -9.099   2.903 124.781  0.00  0.00    -0.287 OA
BRANCH   9  11
ATOM     11  C   LIG A   1      -9.423   0.918 123.478  0.00  0.00    +0.050 C 
ATOM     12  C   LIG A   1      -8.661  -0.187 123.347  0.00  0.00    -0.069 C 
ATOM     13  C   LIG A   1      -7.161  -0.236 123.430  0.00  0.00    +0.039 C 
BRANCH  12  14
ATOM     14  C   LIG A   1      -9.329  -1.519 123.049  0.00  0.00    +0.034 C 
BRANCH  14  15
ATOM     15  C   LIG A   1      -8.488  -2.703 123.542  0.00  0.00    +0.031 C 
BRANCH  15  16
ATOM     16  C   LIG A   1      -8.999  -3.229 124.855  0.00  0.00    -0.028 C 
ATOM     17  C   LIG A   1      -8.396  -3.135 126.057  0.00  0.00    -0.080 C 
ATOM     18  C   LIG A   1      -7.081  -2.450 126.308  0.00  0.00    +0.038 C 
ATOM     19  C   LIG A   1      -9.038  -3.718 127.288  0.00  0.00    +0.038 C 
ENDBRANCH  15  16
ENDBRANCH  14  15
ENDBRANCH  12  14
ENDBRANCH   9  11
ENDBRANCH   2   9
BRANCH   4  20
ATOM     20  C   LIG A   1      -8.356   4.227 119.076  0.00  0.00    +0.337 C 
ATOM     21  O   LIG A   1      -7.691   4.508 118.100  0.00  0.00    -0.245 OA
BRANCH  20  22
ATOM     22  O   LIG A   1      -9.699   4.196 119.028  0.00  0.00    -0.477 OA
ATOM     23  H   LIG A   1      -9.963   3.954 119.940  0.00  0.00    +0.295 HD
ENDBRANCH  20  22
ENDBRANCH   4  20
TORSDOF 8
ENDMDL
MODEL 2
REMARK VINA RESULT:      -7.1      2.544      7.285
REMARK  Name = NuBBE_289
REMARK  11 active torsions:
REMARK  status: ('A' for Active; 'I' for Inactive)
REMARK    1  A    between atoms: O_1  and  C_2
REMARK    2  A    between atoms: C_3  and  C_4
REMARK    3  A    between atoms: C_4  and  C_5
REMARK    4  A    between atoms: C_6  and  C_7
REMARK    5  A    between atoms: C_6  and  C_8
REMARK    6  A    between atoms: C_8  and  C_9
REMARK    7  A    between atoms: C_9  and  C_10
REMARK    8  A    between atoms: C_11  and  C_12
REMARK    9  A    between atoms: C_11  and  C_13
REMARK   10  A    between atoms: C_16  and  C_17
REMARK   11  A    between atoms: C_17  and  O_18
REMARK                            x       y       z     vdW  Elec       q    Type
REMARK                         _______ _______ _______ _____ _____    ______ ____
ROOT
ATOM      1  C   LIG A   1      -9.606  -0.235 122.894  0.00  0.00    +0.128 A 
ATOM      2  C   LIG A   1      -8.559   0.407 123.577  0.00  0.00    +0.064 A 
ATOM      3  C   LIG A   1      -7.461  -0.355 124.003  0.00  0.00    +0.030 A 
ATOM      4  C   LIG A   1      -7.392  -1.727 123.701  0.00  0.00    +0.060 A 
ATOM      5  C   LIG A   1      -8.426  -2.338 122.980  0.00  0.00    +0.018 A 
ATOM      6  C   LIG A   1      -9.535  -1.592 122.585  0.00  0.00    +0.047 A 
ENDROOT
BRANCH   1   7
ATOM      7  O   LIG A   1     -10.742   0.416 122.490  0.00  0.00    -0.506 OA
ATOM      8  H   LIG A   1     -10.811   1.251 123.006  0.00  0.00    +0.292 HD
ENDBRANCH   1   7
BRANCH   2   9
ATOM      9  C   LIG A   1      -8.651   1.874 123.824  0.00  0.00    +0.190 C 
ATOM     10  O   LIG A   1      -9.551   2.282 124.553  0.00  0.00    -0.287 OA
BRANCH   9  11
ATOM     11  C   LIG A   1      -7.712   2.784 123.101  0.00  0.00    +0.050 C 
ATOM     12  C   LIG A   1      -6.518   3.222 123.551  0.00  0.00    -0.069 C 
ATOM     13  C   LIG A   1      -5.891   2.865 124.871  0.00  0.00    +0.039 C 
BRANCH  12  14
ATOM     14  C   LIG A   1      -5.714   4.192 122.703  0.00  0.00    +0.034 C 
BRANCH  14  15
ATOM     15  C   LIG A   1      -5.327   3.584 121.350  0.00  0.00    +0.031 C 
BRANCH  15  16
ATOM     16  C   LIG A   1      -5.247   4.636 120.278  0.00  0.00    -0.028 C 
ATOM     17  C   LIG A   1      -6.198   4.952 119.378  0.00  0.00    -0.080 C 
ATOM     18  C   LIG A   1      -7.554   4.306 119.296  0.00  0.00    +0.038 C 
ATOM     19  C   LIG A   1      -5.965   6.037 118.360  0.00  0.00    +0.038 C 
ENDBRANCH  15  16
ENDBRANCH  14  15
ENDBRANCH  12  14
ENDBRANCH   9  11
ENDBRANCH   2   9
BRANCH   4  20
ATOM     20  C   LIG A   1      -6.239  -2.560 124.123  0.00  0.00    +0.337 C 
ATOM     21  O   LIG A   1      -6.215  -3.773 124.178  0.00  0.00    -0.245 OA
BRANCH  20  22
ATOM     22  O   LIG A   1      -5.165  -1.820 124.452  0.00  0.00    -0.477 OA
ATOM     23  H   LIG A   1      -5.476  -0.896 124.348  0.00  0.00    +0.295 HD
ENDBRANCH  20  22
ENDBRANCH   4  20
TORSDOF 8
ENDMDL
MODEL 3
REMARK VINA RESULT:      -7.0      7.818      9.226
REMARK  Name = NuBBE_289
REMARK  11 active torsions:
REMARK  status: ('A' for Active; 'I' for Inactive)
REMARK    1  A    between atoms: O_1  and  C_2
REMARK    2  A    between atoms: C_3  and  C_4
REMARK    3  A    between atoms: C_4  and  C_5
REMARK    4  A    between atoms: C_6  and  C_7
REMARK    5  A    between atoms: C_6  and  C_8
REMARK    6  A    between atoms: C_8  and  C_9
REMARK    7  A    between atoms: C_9  and  C_10
REMARK    8  A    between atoms: C_11  and  C_12
REMARK    9  A    between atoms: C_11  and  C_13
REMARK   10  A    between atoms: C_16  and  C_17
REMARK   11  A    between atoms: C_17  and  O_18
REMARK                            x       y       z     vdW  Elec       q    Type
REMARK                         _______ _______ _______ _____ _____    ______ ____
ROOT
ATOM      1  C   LIG A   1     -12.495   7.222 130.333  0.00  0.00    +0.128 A 
ATOM      2  C   LIG A   1     -11.262   6.575 130.149  0.00  0.00    +0.064 A 
ATOM      3  C   LIG A   1     -10.674   6.588 128.875  0.00  0.00    +0.030 A 
ATOM      4  C   LIG A   1     -11.288   7.285 127.819  0.00  0.00    +0.060 A 
ATOM      5  C   LIG A   1     -12.495   7.961 128.036  0.00  0.00    +0.018 A 
ATOM      6  C   LIG A   1     -13.101   7.921 129.291  0.00  0.00    +0.047 A 
ENDROOT
BRANCH   1   7
ATOM      7  O   LIG A   1     -13.171   7.213 131.525  0.00  0.00    -0.506 OA
ATOM      8  H   LIG A   1     -14.127   7.341 131.331  0.00  0.00    +0.292 HD
ENDBRANCH   1   7
BRANCH   2   9
ATOM      9  C   LIG A   1     -10.622   5.898 131.312  0.00  0.00    +0.190 C 
ATOM     10  O   LIG A   1     -10.302   6.586 132.277  0.00  0.00    -0.287 OA
BRANCH   9  11
ATOM     11  C   LIG A   1     -10.312   4.439 131.213  0.00  0.00    +0.050 C 
ATOM     12  C   LIG A   1      -9.175   3.894 130.733  0.00  0.00    -0.069 C 
ATOM     13  C   LIG A   1      -7.986   4.655 130.212  0.00  0.00    +0.039 C 
BRANCH  12  14
ATOM     14  C   LIG A   1      -9.050   2.382 130.655  0.00  0.00    +0.034 C 
BRANCH  14  15
ATOM     15  C   LIG A   1      -9.219   1.724 132.029  0.00  0.00    +0.031 C 
BRANCH  15  16
ATOM     16  C   LIG A   1      -7.918   1.689 132.784  0.00  0.00    -0.028 C 
ATOM     17  C   LIG A   1      -7.494   2.570 133.711  0.00  0.00    -0.080 C 
ATOM     18  C   LIG A   1      -8.276   3.765 134.184  0.00  0.00    +0.038 C 
ATOM     19  C   LIG A   1      -6.156   2.398 134.382  0.00  0.00    +0.038 C 
ENDBRANCH  15  16
ENDBRANCH  14  15
ENDBRANCH  12  14
ENDBRANCH   9  11
ENDBRANCH   2   9
BRANCH   4  20
ATOM     20  C   LIG A   1     -10.687   7.332 126.463  0.00  0.00    +0.337 C 
ATOM     21  O   LIG A   1     -10.991   8.100 125.573  0.00  0.00    -0.245 OA
BRANCH  20  22
ATOM     22  O   LIG A   1      -9.725   6.408 126.297  0.00  0.00    -0.477 OA
ATOM     23  H   LIG A   1      -9.154   6.786 125.596  0.00  0.00    +0.295 HD
ENDBRANCH  20  22
ENDBRANCH   4  20
TORSDOF 8
ENDMDL
MODEL 4
REMARK VINA RESULT:      -7.0      1.396      1.979
REMARK  Name = NuBBE_289
REMARK  11 active torsions:
REMARK  status: ('A' for Active; 'I' for Inactive)
REMARK    1  A    between atoms: O_1  and  C_2
REMARK    2  A    between atoms: C_3  and  C_4
REMARK    3  A    between atoms: C_4  and  C_5
REMARK    4  A    between atoms: C_6  and  C_7
REMARK    5  A    between atoms: C_6  and  C_8
REMARK    6  A    between atoms: C_8  and  C_9
REMARK    7  A    between atoms: C_9  and  C_10
REMARK    8  A    between atoms: C_11  and  C_12
REMARK    9  A    between atoms: C_11  and  C_13
REMARK   10  A    between atoms: C_16  and  C_17
REMARK   11  A    between atoms: C_17  and  O_18
REMARK                            x       y       z     vdW  Elec       q    Type
REMARK                         _______ _______ _______ _____ _____    ______ ____
ROOT
ATOM      1  C   LIG A   1      -6.076   3.820 122.639  0.00  0.00    +0.128 A 
ATOM      2  C   LIG A   1      -7.417   3.424 122.503  0.00  0.00    +0.064 A 
ATOM      3  C   LIG A   1      -8.045   3.581 121.258  0.00  0.00    +0.030 A 
ATOM      4  C   LIG A   1      -7.323   4.076 120.158  0.00  0.00    +0.060 A 
ATOM      5  C   LIG A   1      -5.975   4.423 120.305  0.00  0.00    +0.018 A 
ATOM      6  C   LIG A   1      -5.355   4.302 121.548  0.00  0.00    +0.047 A 
ENDROOT
BRANCH   1   7
ATOM      7  O   LIG A   1      -5.398   3.757 123.828  0.00  0.00    -0.506 OA
ATOM      8  H   LIG A   1      -5.099   4.667 124.054  0.00  0.00    +0.292 HD
ENDBRANCH   1   7
BRANCH   2   9
ATOM      9  C   LIG A   1      -8.124   2.851 123.683  0.00  0.00    +0.190 C 
ATOM     10  O   LIG A   1      -8.608   3.629 124.500  0.00  0.00    -0.287 OA
BRANCH   9  11
ATOM     11  C   LIG A   1      -8.128   1.368 123.868  0.00  0.00    +0.050 C 
ATOM     12  C   LIG A   1      -9.056   0.506 123.403  0.00  0.00    -0.069 C 
ATOM     13  C   LIG A   1     -10.270   0.873 122.593  0.00  0.00    +0.039 C 
BRANCH  12  14
ATOM     14  C   LIG A   1      -8.931  -0.971 123.733  0.00  0.00    +0.034 C 
BRANCH  14  15
ATOM     15  C   LIG A   1      -8.330  -1.767 122.569  0.00  0.00    +0.031 C 
BRANCH  15  16
ATOM     16  C   LIG A   1      -6.859  -2.009 122.771  0.00  0.00    -0.028 C 
ATOM     17  C   LIG A   1      -6.290  -2.912 123.594  0.00  0.00    -0.080 C 
ATOM     18  C   LIG A   1      -7.045  -3.878 124.464  0.00  0.00    +0.038 C 
ATOM     19  C   LIG A   1      -4.791  -3.033 123.686  0.00  0.00    +0.038 C 
ENDBRANCH  15  16
ENDBRANCH  14  15
ENDBRANCH  12  14
ENDBRANCH   9  11
ENDBRANCH   2   9
BRANCH   4  20
ATOM     20  C   LIG A   1      -7.952   4.241 118.824  0.00  0.00    +0.337 C 
ATOM     21  O   LIG A   1      -7.368   4.320 117.762  0.00  0.00    -0.245 OA
BRANCH  20  22
ATOM     22  O   LIG A   1      -9.294   4.293 118.894  0.00  0.00    -0.477 OA
ATOM     23  H   LIG A   1      -9.508   3.784 119.704  0.00  0.00    +0.295 HD
ENDBRANCH  20  22
ENDBRANCH   4  20
TORSDOF 8
ENDMDL
MODEL 5
REMARK VINA RESULT:      -6.9      2.308      3.866
REMARK  Name = NuBBE_289
REMARK  11 active torsions:
REMARK  status: ('A' for Active; 'I' for Inactive)
REMARK    1  A    between atoms: O_1  and  C_2
REMARK    2  A    between atoms: C_3  and  C_4
REMARK    3  A    between atoms: C_4  and  C_5
REMARK    4  A    between atoms: C_6  and  C_7
REMARK    5  A    between atoms: C_6  and  C_8
REMARK    6  A    between atoms: C_8  and  C_9
REMARK    7  A    between atoms: C_9  and  C_10
REMARK    8  A    between atoms: C_11  and  C_12
REMARK    9  A    between atoms: C_11  and  C_13
REMARK   10  A    between atoms: C_16  and  C_17
REMARK   11  A    between atoms: C_17  and  O_18
REMARK                            x       y       z     vdW  Elec       q    Type
REMARK                         _______ _______ _______ _____ _____    ______ ____
ROOT
ATOM      1  C   LIG A   1      -9.444   1.614 123.590  0.00  0.00    +0.128 A 
ATOM      2  C   LIG A   1      -8.655   1.596 124.752  0.00  0.00    +0.064 A 
ATOM      3  C   LIG A   1      -7.464   2.336 124.772  0.00  0.00    +0.030 A 
ATOM      4  C   LIG A   1      -7.101   3.124 123.666  0.00  0.00    +0.060 A 
ATOM      5  C   LIG A   1      -7.925   3.163 122.534  0.00  0.00    +0.018 A 
ATOM      6  C   LIG A   1      -9.092   2.401 122.495  0.00  0.00    +0.047 A 
ENDROOT
BRANCH   1   7
ATOM      7  O   LIG A   1     -10.592   0.878 123.457  0.00  0.00    -0.506 OA
ATOM      8  H   LIG A   1     -10.762   0.754 122.496  0.00  0.00    +0.292 HD
ENDBRANCH   1   7
BRANCH   2   9
ATOM      9  C   LIG A   1      -9.110   0.791 125.921  0.00  0.00    +0.190 C 
ATOM     10  O   LIG A   1      -9.310   1.376 126.982  0.00  0.00    -0.287 OA
BRANCH   9  11
ATOM     11  C   LIG A   1      -9.209  -0.693 125.777  0.00  0.00    +0.050 C 
ATOM     12  C   LIG A   1      -8.452  -1.610 126.413  0.00  0.00    -0.069 C 
ATOM     13  C   LIG A   1      -7.363  -1.315 127.407  0.00  0.00    +0.039 C 
BRANCH  12  14
ATOM     14  C   LIG A   1      -8.654  -3.084 126.105  0.00  0.00    +0.034 C 
BRANCH  14  15
ATOM     15  C   LIG A   1      -8.461  -3.387 124.614  0.00  0.00    +0.031 C 
BRANCH  15  16
ATOM     16  C   LIG A   1      -7.016  -3.647 124.289  0.00  0.00    -0.028 C 
ATOM     17  C   LIG A   1      -6.144  -2.789 123.722  0.00  0.00    -0.080 C 
ATOM     18  C   LIG A   1      -6.466  -1.375 123.323  0.00  0.00    +0.038 C 
ATOM     19  C   LIG A   1      -4.720  -3.201 123.458  0.00  0.00    +0.038 C 
ENDBRANCH  15  16
ENDBRANCH  14  15
ENDBRANCH  12  14
ENDBRANCH   9  11
ENDBRANCH   2   9
BRANCH   4  20
ATOM     20  C   LIG A   1      -5.855   3.932 123.659  0.00  0.00    +0.337 C 
ATOM     21  O   LIG A   1      -5.030   3.981 124.548  0.00  0.00    -0.245 OA
BRANCH  20  22
ATOM     22  O   LIG A   1      -5.709   4.636 122.523  0.00  0.00    -0.477 OA
ATOM     23  H   LIG A   1      -6.082   4.049 121.832  0.00  0.00    +0.295 HD
ENDBRANCH  20  22
ENDBRANCH   4  20
TORSDOF 8
ENDMDL
MODEL 6
REMARK VINA RESULT:      -6.8      2.116      3.098
REMARK  Name = NuBBE_289
REMARK  11 active torsions:
REMARK  status: ('A' for Active; 'I' for Inactive)
REMARK    1  A    between atoms: O_1  and  C_2
REMARK    2  A    between atoms: C_3  and  C_4
REMARK    3  A    between atoms: C_4  and  C_5
REMARK    4  A    between atoms: C_6  and  C_7
REMARK    5  A    between atoms: C_6  and  C_8
REMARK    6  A    between atoms: C_8  and  C_9
REMARK    7  A    between atoms: C_9  and  C_10
REMARK    8  A    between atoms: C_11  and  C_12
REMARK    9  A    between atoms: C_11  and  C_13
REMARK   10  A    between atoms: C_16  and  C_17
REMARK   11  A    between atoms: C_17  and  O_18
REMARK                            x       y       z     vdW  Elec       q    Type
REMARK                         _______ _______ _______ _____ _____    ______ ____
ROOT
ATOM      1  C   LIG A   1      -6.686   2.307 125.804  0.00  0.00    +0.128 A 
ATOM      2  C   LIG A   1      -7.929   1.939 125.262  0.00  0.00    +0.064 A 
ATOM      3  C   LIG A   1      -8.233   2.320 123.947  0.00  0.00    +0.030 A 
ATOM      4  C   LIG A   1      -7.285   3.012 123.173  0.00  0.00    +0.060 A 
ATOM      5  C   LIG A   1      -6.035   3.330 123.718  0.00  0.00    +0.018 A 
ATOM      6  C   LIG A   1      -5.740   2.984 125.036  0.00  0.00    +0.047 A 
ENDROOT
BRANCH   1   7
ATOM      7  O   LIG A   1      -6.325   2.028 127.096  0.00  0.00    -0.506 OA
ATOM      8  H   LIG A   1      -5.465   1.548 127.073  0.00  0.00    +0.292 HD
ENDBRANCH   1   7
BRANCH   2   9
ATOM      9  C   LIG A   1      -8.879   1.157 126.102  0.00  0.00    +0.190 C 
ATOM     10  O   LIG A   1      -9.228   1.634 127.179  0.00  0.00    -0.287 OA
BRANCH   9  11
ATOM     11  C   LIG A   1      -9.287  -0.207 125.646  0.00  0.00    +0.050 C 
ATOM     12  C   LIG A   1      -8.835  -1.381 126.132  0.00  0.00    -0.069 C 
ATOM     13  C   LIG A   1      -7.835  -1.547 127.243  0.00  0.00    +0.039 C 
BRANCH  12  14
ATOM     14  C   LIG A   1      -9.321  -2.679 125.510  0.00  0.00    +0.034 C 
BRANCH  14  15
ATOM     15  C   LIG A   1      -8.913  -2.794 124.036  0.00  0.00    +0.031 C 
BRANCH  15  16
ATOM     16  C   LIG A   1      -7.474  -3.208 123.896  0.00  0.00    -0.028 C 
ATOM     17  C   LIG A   1      -6.445  -2.442 123.482  0.00  0.00    -0.080 C 
ATOM     18  C   LIG A   1      -6.553  -0.992 123.099  0.00  0.00    +0.038 C 
ATOM     19  C   LIG A   1      -5.052  -3.007 123.393  0.00  0.00    +0.038 C 
ENDBRANCH  15  16
ENDBRANCH  14  15
ENDBRANCH  12  14
ENDBRANCH   9  11
ENDBRANCH   2   9
BRANCH   4  20
ATOM     20  C   LIG A   1      -7.567   3.418 121.774  0.00  0.00    +0.337 C 
ATOM     21  O   LIG A   1      -6.759   3.480 120.870  0.00  0.00    -0.245 OA
BRANCH  20  22
ATOM     22  O   LIG A   1      -8.863   3.721 121.581  0.00  0.00    -0.477 OA
ATOM     23  H   LIG A   1      -9.312   2.850 121.580  0.00  0.00    +0.295 HD
ENDBRANCH  20  22
ENDBRANCH   4  20
TORSDOF 8
ENDMDL
MODEL 7
REMARK VINA RESULT:      -6.8      4.545      7.045
REMARK  Name = NuBBE_289
REMARK  11 active torsions:
REMARK  status: ('A' for Active; 'I' for Inactive)
REMARK    1  A    between atoms: O_1  and  C_2
REMARK    2  A    between atoms: C_3  and  C_4
REMARK    3  A    between atoms: C_4  and  C_5
REMARK    4  A    between atoms: C_6  and  C_7
REMARK    5  A    between atoms: C_6  and  C_8
REMARK    6  A    between atoms: C_8  and  C_9
REMARK    7  A    between atoms: C_9  and  C_10
REMARK    8  A    between atoms: C_11  and  C_12
REMARK    9  A    between atoms: C_11  and  C_13
REMARK   10  A    between atoms: C_16  and  C_17
REMARK   11  A    between atoms: C_17  and  O_18
REMARK                            x       y       z     vdW  Elec       q    Type
REMARK                         _______ _______ _______ _____ _____    ______ ____
ROOT
ATOM      1  C   LIG A   1      -7.439  -1.898 123.462  0.00  0.00    +0.128 A 
ATOM      2  C   LIG A   1      -7.571  -3.049 124.256  0.00  0.00    +0.064 A 
ATOM      3  C   LIG A   1      -6.522  -3.980 124.278  0.00  0.00    +0.030 A 
ATOM      4  C   LIG A   1      -5.340  -3.732 123.557  0.00  0.00    +0.060 A 
ATOM      5  C   LIG A   1      -5.212  -2.557 122.807  0.00  0.00    +0.018 A 
ATOM      6  C   LIG A   1      -6.265  -1.645 122.754  0.00  0.00    +0.047 A 
ENDROOT
BRANCH   1   7
ATOM      7  O   LIG A   1      -8.432  -0.962 123.334  0.00  0.00    -0.506 OA
ATOM      8  H   LIG A   1      -8.076  -0.099 123.647  0.00  0.00    +0.292 HD
ENDBRANCH   1   7
BRANCH   2   9
ATOM      9  C   LIG A   1      -8.819  -3.240 125.047  0.00  0.00    +0.190 C 
ATOM     10  O   LIG A   1      -9.892  -2.995 124.503  0.00  0.00    -0.287 OA
BRANCH   9  11
ATOM     11  C   LIG A   1      -8.705  -3.626 126.486  0.00  0.00    +0.050 C 
ATOM     12  C   LIG A   1      -8.331  -2.822 127.503  0.00  0.00    -0.069 C 
ATOM     13  C   LIG A   1      -7.965  -1.368 127.385  0.00  0.00    +0.039 C 
BRANCH  12  14
ATOM     14  C   LIG A   1      -8.217  -3.398 128.904  0.00  0.00    +0.034 C 
BRANCH  14  15
ATOM     15  C   LIG A   1      -7.540  -2.420 129.871  0.00  0.00    +0.031 C 
BRANCH  15  16
ATOM     16  C   LIG A   1      -6.334  -3.039 130.522  0.00  0.00    -0.028 C 
ATOM     17  C   LIG A   1      -5.106  -3.185 129.986  0.00  0.00    -0.080 C 
ATOM     18  C   LIG A   1      -4.708  -2.723 128.611  0.00  0.00    +0.038 C 
ATOM     19  C   LIG A   1      -3.995  -3.832 130.770  0.00  0.00    +0.038 C 
ENDBRANCH  15  16
ENDBRANCH  14  15
ENDBRANCH  12  14
ENDBRANCH   9  11
ENDBRANCH   2   9
BRANCH   4  20
ATOM     20  C   LIG A   1      -4.205  -4.688 123.569  0.00  0.00    +0.337 C 
ATOM     21  O   LIG A   1      -3.145  -4.533 124.141  0.00  0.00    -0.245 OA
BRANCH  20  22
ATOM     22  O   LIG A   1      -4.466  -5.801 122.860  0.00  0.00    -0.477 OA
ATOM     23  H   LIG A   1      -4.268  -5.543 121.935  0.00  0.00    +0.295 HD
ENDBRANCH  20  22
ENDBRANCH   4  20
TORSDOF 8
ENDMDL
MODEL 8
REMARK VINA RESULT:      -6.8      2.066      2.875
REMARK  Name = NuBBE_289
REMARK  11 active torsions:
REMARK  status: ('A' for Active; 'I' for Inactive)
REMARK    1  A    between atoms: O_1  and  C_2
REMARK    2  A    between atoms: C_3  and  C_4
REMARK    3  A    between atoms: C_4  and  C_5
REMARK    4  A    between atoms: C_6  and  C_7
REMARK    5  A    between atoms: C_6  and  C_8
REMARK    6  A    between atoms: C_8  and  C_9
REMARK    7  A    between atoms: C_9  and  C_10
REMARK    8  A    between atoms: C_11  and  C_12
REMARK    9  A    between atoms: C_11  and  C_13
REMARK   10  A    between atoms: C_16  and  C_17
REMARK   11  A    between atoms: C_17  and  O_18
REMARK                            x       y       z     vdW  Elec       q    Type
REMARK                         _______ _______ _______ _____ _____    ______ ____
ROOT
ATOM      1  C   LIG A   1      -6.642   3.098 125.400  0.00  0.00    +0.128 A 
ATOM      2  C   LIG A   1      -7.404   2.612 124.324  0.00  0.00    +0.064 A 
ATOM      3  C   LIG A   1      -7.061   3.003 123.021  0.00  0.00    +0.030 A 
ATOM      4  C   LIG A   1      -5.941   3.824 122.800  0.00  0.00    +0.060 A 
ATOM      5  C   LIG A   1      -5.169   4.261 123.883  0.00  0.00    +0.018 A 
ATOM      6  C   LIG A   1      -5.526   3.904 125.183  0.00  0.00    +0.047 A 
ENDROOT
BRANCH   1   7
ATOM      7  O   LIG A   1      -6.936   2.817 126.709  0.00  0.00    -0.506 OA
ATOM      8  H   LIG A   1      -6.982   1.838 126.804  0.00  0.00    +0.292 HD
ENDBRANCH   1   7
BRANCH   2   9
ATOM      9  C   LIG A   1      -8.547   1.698 124.604  0.00  0.00    +0.190 C 
ATOM     10  O   LIG A   1      -9.520   2.155 125.198  0.00  0.00    -0.287 OA
BRANCH   9  11
ATOM     11  C   LIG A   1      -8.420   0.255 124.239  0.00  0.00    +0.050 C 
ATOM     12  C   LIG A   1      -9.125  -0.395 123.291  0.00  0.00    -0.069 C 
ATOM     13  C   LIG A   1     -10.175   0.214 122.402  0.00  0.00    +0.039 C 
BRANCH  12  14
ATOM     14  C   LIG A   1      -8.902  -1.884 123.089  0.00  0.00    +0.034 C 
BRANCH  14  15
ATOM     15  C   LIG A   1      -8.349  -2.556 124.351  0.00  0.00    +0.031 C 
BRANCH  15  16
ATOM     16  C   LIG A   1      -7.140  -3.396 124.040  0.00  0.00    -0.028 C 
ATOM     17  C   LIG A   1      -5.849  -3.066 124.238  0.00  0.00    -0.080 C 
ATOM     18  C   LIG A   1      -5.375  -1.772 124.841  0.00  0.00    +0.038 C 
ATOM     19  C   LIG A   1      -4.744  -4.022 123.871  0.00  0.00    +0.038 C 
ENDBRANCH  15  16
ENDBRANCH  14  15
ENDBRANCH  12  14
ENDBRANCH   9  11
ENDBRANCH   2   9
BRANCH   4  20
ATOM     20  C   LIG A   1      -5.541   4.245 121.434  0.00  0.00    +0.337 C 
ATOM     21  O   LIG A   1      -5.881   3.717 120.395  0.00  0.00    -0.245 OA
BRANCH  20  22
ATOM     22  O   LIG A   1      -4.733   5.319 121.446  0.00  0.00    -0.477 OA
ATOM     23  H   LIG A   1      -3.836   4.941 121.326  0.00  0.00    +0.295 HD
ENDBRANCH  20  22
ENDBRANCH   4  20
TORSDOF 8
ENDMDL
MODEL 9
REMARK VINA RESULT:      -6.8      2.464      4.482
REMARK  Name = NuBBE_289
REMARK  11 active torsions:
REMARK  status: ('A' for Active; 'I' for Inactive)
REMARK    1  A    between atoms: O_1  and  C_2
REMARK    2  A    between atoms: C_3  and  C_4
REMARK    3  A    between atoms: C_4  and  C_5
REMARK    4  A    between atoms: C_6  and  C_7
REMARK    5  A    between atoms: C_6  and  C_8
REMARK    6  A    between atoms: C_8  and  C_9
REMARK    7  A    between atoms: C_9  and  C_10
REMARK    8  A    between atoms: C_11  and  C_12
REMARK    9  A    between atoms: C_11  and  C_13
REMARK   10  A    between atoms: C_16  and  C_17
REMARK   11  A    between atoms: C_17  and  O_18
REMARK                            x       y       z     vdW  Elec       q    Type
REMARK                         _______ _______ _______ _____ _____    ______ ____
ROOT
ATOM      1  C   LIG A   1      -7.406   3.298 123.655  0.00  0.00    +0.128 A 
ATOM      2  C   LIG A   1      -7.476   2.286 124.628  0.00  0.00    +0.064 A 
ATOM      3  C   LIG A   1      -6.395   2.117 125.506  0.00  0.00    +0.030 A 
ATOM      4  C   LIG A   1      -5.289   2.983 125.444  0.00  0.00    +0.060 A 
ATOM      5  C   LIG A   1      -5.260   4.013 124.496  0.00  0.00    +0.018 A 
ATOM      6  C   LIG A   1      -6.315   4.164 123.597  0.00  0.00    +0.047 A 
ENDROOT
BRANCH   1   7
ATOM      7  O   LIG A   1      -8.386   3.501 122.720  0.00  0.00    -0.506 OA
ATOM      8  H   LIG A   1      -9.186   3.833 123.187  0.00  0.00    +0.292 HD
ENDBRANCH   1   7
BRANCH   2   9
ATOM      9  C   LIG A   1      -8.694   1.430 124.692  0.00  0.00    +0.190 C 
ATOM     10  O   LIG A   1      -9.740   1.942 125.078  0.00  0.00    -0.287 OA
BRANCH   9  11
ATOM     11  C   LIG A   1      -8.566  -0.026 124.379  0.00  0.00    +0.050 C 
ATOM     12  C   LIG A   1      -9.149  -0.677 123.351  0.00  0.00    -0.069 C 
ATOM     13  C   LIG A   1     -10.038  -0.057 122.308  0.00  0.00    +0.039 C 
BRANCH  12  14
ATOM     14  C   LIG A   1      -8.953  -2.177 123.214  0.00  0.00    +0.034 C 
BRANCH  14  15
ATOM     15  C   LIG A   1      -8.369  -2.796 124.489  0.00  0.00    +0.031 C 
BRANCH  15  16
ATOM     16  C   LIG A   1      -7.149  -3.624 124.187  0.00  0.00    -0.028 C 
ATOM     17  C   LIG A   1      -5.866  -3.213 124.200  0.00  0.00    -0.080 C 
ATOM     18  C   LIG A   1      -5.411  -1.823 124.547  0.00  0.00    +0.038 C 
ATOM     19  C   LIG A   1      -4.748  -4.168 123.871  0.00  0.00    +0.038 C 
ENDBRANCH  15  16
ENDBRANCH  14  15
ENDBRANCH  12  14
ENDBRANCH   9  11
ENDBRANCH   2   9
BRANCH   4  20
ATOM     20  C   LIG A   1      -4.136   2.842 126.367  0.00  0.00    +0.337 C 
ATOM     21  O   LIG A   1      -3.519   3.750 126.885  0.00  0.00    -0.245 OA
BRANCH  20  22
ATOM     22  O   LIG A   1      -3.819   1.555 126.597  0.00  0.00    -0.477 OA
ATOM     23  H   LIG A   1      -4.634   1.065 126.357  0.00  0.00    +0.295 HD
ENDBRANCH  20  22
ENDBRANCH   4  20
TORSDOF 8
ENDMDL
