MODEL 1
REMARK VINA RESULT:      -9.2      0.000      0.000
REMARK  Name = NuBBE_132
REMARK  10 active torsions:
REMARK  status: ('A' for Active; 'I' for Inactive)
REMARK    1  A    between atoms: C_1  and  C_2
REMARK    2  A    between atoms: C_2  and  C_3
REMARK    3  A    between atoms: C_6  and  C_32
REMARK    4  A    between atoms: C_9  and  C_29
REMARK    5  A    between atoms: C_14  and  C_28
REMARK    6  A    between atoms: C_17  and  O_18
REMARK    7  A    between atoms: C_19  and  C_20
REMARK    8  A    between atoms: C_19  and  C_26
REMARK    9  A    between atoms: C_24  and  C_25
REMARK   10  A    between atoms: C_32  and  O_33
REMARK                            x       y       z     vdW  Elec       q    Type
REMARK                         _______ _______ _______ _____ _____    ______ ____
ROOT
ATOM      1  C   LIG A   1      -4.273  -5.749 133.308  0.00  0.00    +0.011 C 
ATOM      2  C   LIG A   1      -5.323  -4.825 133.957  0.00  0.00    -0.034 C 
ATOM      3  C   LIG A   1      -6.220  -5.701 134.853  0.00  0.00    +0.011 C 
ATOM      4  C   LIG A   1      -4.642  -3.747 134.824  0.00  0.00    +0.007 C 
ATOM      5  C   LIG A   1      -3.885  -2.691 134.012  0.00  0.00    +0.019 C 
ATOM      6  C   LIG A   1      -4.750  -2.011 132.921  0.00  0.00    +0.074 C 
ATOM      7  C   LIG A   1      -3.823  -1.166 132.002  0.00  0.00    +0.019 C 
ATOM      8  C   LIG A   1      -4.567  -0.555 130.803  0.00  0.00    +0.012 C 
ATOM      9  C   LIG A   1      -5.331  -1.588 129.914  0.00  0.00    -0.005 C 
ATOM     10  C   LIG A   1      -6.204  -2.465 130.867  0.00  0.00    -0.063 C 
ATOM     11  C   LIG A   1      -7.523  -2.676 130.652  0.00  0.00    -0.026 C 
ATOM     12  C   LIG A   1      -8.280  -2.261 129.414  0.00  0.00    +0.031 C 
ATOM     13  C   LIG A   1      -7.273  -1.948 128.295  0.00  0.00    +0.006 C 
ATOM     14  C   LIG A   1      -7.810  -1.789 126.827  0.00  0.00    -0.025 C 
ATOM     15  C   LIG A   1      -8.765  -2.988 126.497  0.00  0.00    +0.010 C 
ATOM     16  C   LIG A   1      -8.664  -3.556 125.081  0.00  0.00    +0.032 C 
ATOM     17  C   LIG A   1      -8.236  -2.525 124.049  0.00  0.00    +0.120 C 
ATOM     18  C   LIG A   1      -6.825  -1.925 124.347  0.00  0.00    -0.006 C 
ATOM     19  C   LIG A   1      -6.767  -0.532 123.682  0.00  0.00    +0.014 C 
ATOM     20  C   LIG A   1      -6.550  -1.904 125.901  0.00  0.00    +0.003 C 
ATOM     21  C   LIG A   1      -5.323  -1.070 126.346  0.00  0.00    +0.005 C 
ATOM     22  C   LIG A   1      -5.472  -0.234 127.617  0.00  0.00    +0.008 C 
ATOM     23  C   LIG A   1      -6.261  -0.856 128.802  0.00  0.00    -0.019 C 
ATOM     24  C   LIG A   1      -7.008   0.351 129.465  0.00  0.00    +0.012 C 
ATOM     25  C   LIG A   1      -5.710  -2.777 123.682  0.00  0.00    +0.014 C 
ATOM     26  C   LIG A   1      -8.600  -0.483 126.638  0.00  0.00    +0.012 C 
ATOM     27  C   LIG A   1      -4.268  -2.484 129.211  0.00  0.00    +0.016 C 
ATOM     28  C   LIG A   1      -5.448  -3.086 132.050  0.00  0.00    +0.033 C 
ATOM     29  C   LIG A   1      -6.205  -4.150 132.880  0.00  0.00    +0.015 C 
ENDROOT
BRANCH  17  30
ATOM     30  O   LIG A   1      -8.303  -3.103 122.745  0.00  0.00    -0.391 OA
ATOM     31  H   LIG A   1      -9.147  -2.840 122.340  0.00  0.00    +0.210 HD
ENDBRANCH  17  30
BRANCH   6  32
ATOM     32  C   LIG A   1      -5.760  -1.101 133.632  0.00  0.00    +0.311 C 
ATOM     33  O   LIG A   1      -6.951  -1.302 133.811  0.00  0.00    -0.250 OA
BRANCH  32  34
ATOM     34  O   LIG A   1      -5.201  -0.003 134.184  0.00  0.00    -0.480 OA
ATOM     35  H   LIG A   1      -5.930   0.381 134.715  0.00  0.00    +0.295 HD
ENDBRANCH  32  34
ENDBRANCH   6  32
TORSDOF 3
ENDMDL
MODEL 2
REMARK VINA RESULT:      -9.0      1.845      8.061
REMARK  Name = NuBBE_132
REMARK  10 active torsions:
REMARK  status: ('A' for Active; 'I' for Inactive)
REMARK    1  A    between atoms: C_1  and  C_2
REMARK    2  A    between atoms: C_2  and  C_3
REMARK    3  A    between atoms: C_6  and  C_32
REMARK    4  A    between atoms: C_9  and  C_29
REMARK    5  A    between atoms: C_14  and  C_28
REMARK    6  A    between atoms: C_17  and  O_18
REMARK    7  A    between atoms: C_19  and  C_20
REMARK    8  A    between atoms: C_19  and  C_26
REMARK    9  A    between atoms: C_24  and  C_25
REMARK   10  A    between atoms: C_32  and  O_33
REMARK                            x       y       z     vdW  Elec       q    Type
REMARK                         _______ _______ _______ _____ _____    ______ ____
ROOT
ATOM      1  C   LIG A   1      -5.003  -4.268 124.618  0.00  0.00    +0.011 C 
ATOM      2  C   LIG A   1      -5.805  -2.965 124.425  0.00  0.00    -0.034 C 
ATOM      3  C   LIG A   1      -5.144  -2.180 123.275  0.00  0.00    +0.011 C 
ATOM      4  C   LIG A   1      -7.269  -3.275 124.050  0.00  0.00    +0.007 C 
ATOM      5  C   LIG A   1      -8.086  -3.873 125.199  0.00  0.00    +0.019 C 
ATOM      6  C   LIG A   1      -8.050  -3.022 126.494  0.00  0.00    +0.074 C 
ATOM      7  C   LIG A   1      -8.683  -3.846 127.651  0.00  0.00    +0.019 C 
ATOM      8  C   LIG A   1      -8.574  -3.141 129.014  0.00  0.00    +0.012 C 
ATOM      9  C   LIG A   1      -7.121  -2.744 129.430  0.00  0.00    -0.005 C 
ATOM     10  C   LIG A   1      -6.487  -1.976 128.227  0.00  0.00    -0.063 C 
ATOM     11  C   LIG A   1      -5.882  -0.774 128.372  0.00  0.00    -0.026 C 
ATOM     12  C   LIG A   1      -5.581  -0.106 129.692  0.00  0.00    +0.031 C 
ATOM     13  C   LIG A   1      -5.686  -1.150 130.815  0.00  0.00    +0.006 C 
ATOM     14  C   LIG A   1      -5.126  -0.781 132.236  0.00  0.00    -0.025 C 
ATOM     15  C   LIG A   1      -3.692  -0.166 132.078  0.00  0.00    +0.010 C 
ATOM     16  C   LIG A   1      -2.669  -0.569 133.142  0.00  0.00    +0.032 C 
ATOM     17  C   LIG A   1      -3.296  -0.882 134.491  0.00  0.00    +0.120 C 
ATOM     18  C   LIG A   1      -4.302  -2.075 134.424  0.00  0.00    -0.006 C 
ATOM     19  C   LIG A   1      -5.297  -1.905 135.592  0.00  0.00    +0.014 C 
ATOM     20  C   LIG A   1      -4.989  -2.141 133.004  0.00  0.00    +0.003 C 
ATOM     21  C   LIG A   1      -6.212  -3.085 132.902  0.00  0.00    +0.005 C 
ATOM     22  C   LIG A   1      -7.404  -2.595 132.081  0.00  0.00    +0.008 C 
ATOM     23  C   LIG A   1      -7.106  -1.822 130.766  0.00  0.00    -0.019 C 
ATOM     24  C   LIG A   1      -8.242  -0.747 130.667  0.00  0.00    +0.012 C 
ATOM     25  C   LIG A   1      -3.575  -3.426 134.659  0.00  0.00    +0.014 C 
ATOM     26  C   LIG A   1      -6.011   0.250 132.957  0.00  0.00    +0.012 C 
ATOM     27  C   LIG A   1      -6.327  -4.060 129.683  0.00  0.00    +0.016 C 
ATOM     28  C   LIG A   1      -6.583  -2.696 126.875  0.00  0.00    +0.033 C 
ATOM     29  C   LIG A   1      -5.765  -2.097 125.706  0.00  0.00    +0.015 C 
ENDROOT
BRANCH  17  30
ATOM     30  O   LIG A   1      -2.265  -1.110 135.452  0.00  0.00    -0.391 OA
ATOM     31  H   LIG A   1      -1.849  -1.966 135.253  0.00  0.00    +0.210 HD
ENDBRANCH  17  30
BRANCH   6  32
ATOM     32  C   LIG A   1      -8.874  -1.754 126.237  0.00  0.00    +0.311 C 
ATOM     33  O   LIG A   1      -8.551  -0.596 126.454  0.00  0.00    -0.250 OA
BRANCH  32  34
ATOM     34  O   LIG A   1     -10.050  -1.991 125.618  0.00  0.00    -0.480 OA
ATOM     35  H   LIG A   1      -9.986  -1.459 124.798  0.00  0.00    +0.295 HD
ENDBRANCH  32  34
ENDBRANCH   6  32
TORSDOF 3
ENDMDL
MODEL 3
REMARK VINA RESULT:      -8.8      5.003      6.941
REMARK  Name = NuBBE_132
REMARK  10 active torsions:
REMARK  status: ('A' for Active; 'I' for Inactive)
REMARK    1  A    between atoms: C_1  and  C_2
REMARK    2  A    between atoms: C_2  and  C_3
REMARK    3  A    between atoms: C_6  and  C_32
REMARK    4  A    between atoms: C_9  and  C_29
REMARK    5  A    between atoms: C_14  and  C_28
REMARK    6  A    between atoms: C_17  and  O_18
REMARK    7  A    between atoms: C_19  and  C_20
REMARK    8  A    between atoms: C_19  and  C_26
REMARK    9  A    between atoms: C_24  and  C_25
REMARK   10  A    between atoms: C_32  and  O_33
REMARK                            x       y       z     vdW  Elec       q    Type
REMARK                         _______ _______ _______ _____ _____    ______ ____
ROOT
ATOM      1  C   LIG A   1      -1.436   4.596 132.600  0.00  0.00    +0.011 C 
ATOM      2  C   LIG A   1      -2.593   5.617 132.575  0.00  0.00    -0.034 C 
ATOM      3  C   LIG A   1      -2.959   5.937 134.038  0.00  0.00    +0.011 C 
ATOM      4  C   LIG A   1      -2.160   6.916 131.866  0.00  0.00    +0.007 C 
ATOM      5  C   LIG A   1      -1.968   6.758 130.354  0.00  0.00    +0.019 C 
ATOM      6  C   LIG A   1      -3.200   6.157 129.632  0.00  0.00    +0.074 C 
ATOM      7  C   LIG A   1      -2.800   5.801 128.172  0.00  0.00    +0.019 C 
ATOM      8  C   LIG A   1      -3.917   5.072 127.408  0.00  0.00    +0.012 C 
ATOM      9  C   LIG A   1      -4.446   3.776 128.103  0.00  0.00    -0.005 C 
ATOM     10  C   LIG A   1      -4.779   4.145 129.583  0.00  0.00    -0.063 C 
ATOM     11  C   LIG A   1      -5.967   3.844 130.155  0.00  0.00    -0.026 C 
ATOM     12  C   LIG A   1      -7.038   2.982 129.533  0.00  0.00    +0.031 C 
ATOM     13  C   LIG A   1      -6.425   2.184 128.371  0.00  0.00    +0.006 C 
ATOM     14  C   LIG A   1      -7.251   0.996 127.759  0.00  0.00    -0.025 C 
ATOM     15  C   LIG A   1      -7.794   0.096 128.922  0.00  0.00    +0.010 C 
ATOM     16  C   LIG A   1      -7.779  -1.412 128.667  0.00  0.00    +0.032 C 
ATOM     17  C   LIG A   1      -7.923  -1.774 127.197  0.00  0.00    +0.120 C 
ATOM     18  C   LIG A   1      -6.765  -1.202 126.320  0.00  0.00    -0.006 C 
ATOM     19  C   LIG A   1      -7.302  -1.067 124.878  0.00  0.00    +0.014 C 
ATOM     20  C   LIG A   1      -6.224   0.150 126.930  0.00  0.00    +0.003 C 
ATOM     21  C   LIG A   1      -5.286   0.966 126.006  0.00  0.00    +0.005 C 
ATOM     22  C   LIG A   1      -5.463   2.484 125.999  0.00  0.00    +0.008 C 
ATOM     23  C   LIG A   1      -5.759   3.183 127.354  0.00  0.00    -0.019 C 
ATOM     24  C   LIG A   1      -6.727   4.361 126.995  0.00  0.00    +0.012 C 
ATOM     25  C   LIG A   1      -5.576  -2.199 126.255  0.00  0.00    +0.014 C 
ATOM     26  C   LIG A   1      -8.453   1.490 126.936  0.00  0.00    +0.012 C 
ATOM     27  C   LIG A   1      -3.297   2.724 128.075  0.00  0.00    +0.016 C 
ATOM     28  C   LIG A   1      -3.650   4.855 130.344  0.00  0.00    +0.033 C 
ATOM     29  C   LIG A   1      -3.836   5.024 131.870  0.00  0.00    +0.015 C 
ENDROOT
BRANCH  17  30
ATOM     30  O   LIG A   1      -8.038  -3.191 127.067  0.00  0.00    -0.391 OA
ATOM     31  H   LIG A   1      -7.743  -3.597 127.900  0.00  0.00    +0.210 HD
ENDBRANCH  17  30
BRANCH   6  32
ATOM     32  C   LIG A   1      -4.302   7.224 129.632  0.00  0.00    +0.311 C 
ATOM     33  O   LIG A   1      -5.327   7.240 130.297  0.00  0.00    -0.250 OA
BRANCH  32  34
ATOM     34  O   LIG A   1      -4.019   8.292 128.856  0.00  0.00    -0.480 OA
ATOM     35  H   LIG A   1      -4.782   8.888 129.003  0.00  0.00    +0.295 HD
ENDBRANCH  32  34
ENDBRANCH   6  32
TORSDOF 3
ENDMDL
MODEL 4
REMARK VINA RESULT:      -8.5      2.121      7.963
REMARK  Name = NuBBE_132
REMARK  10 active torsions:
REMARK  status: ('A' for Active; 'I' for Inactive)
REMARK    1  A    between atoms: C_1  and  C_2
REMARK    2  A    between atoms: C_2  and  C_3
REMARK    3  A    between atoms: C_6  and  C_32
REMARK    4  A    between atoms: C_9  and  C_29
REMARK    5  A    between atoms: C_14  and  C_28
REMARK    6  A    between atoms: C_17  and  O_18
REMARK    7  A    between atoms: C_19  and  C_20
REMARK    8  A    between atoms: C_19  and  C_26
REMARK    9  A    between atoms: C_24  and  C_25
REMARK   10  A    between atoms: C_32  and  O_33
REMARK                            x       y       z     vdW  Elec       q    Type
REMARK                         _______ _______ _______ _____ _____    ______ ____
ROOT
ATOM      1  C   LIG A   1      -7.463  -3.767 124.530  0.00  0.00    +0.011 C 
ATOM      2  C   LIG A   1      -6.380  -2.672 124.440  0.00  0.00    -0.034 C 
ATOM      3  C   LIG A   1      -5.364  -3.112 123.367  0.00  0.00    +0.011 C 
ATOM      4  C   LIG A   1      -7.001  -1.322 124.025  0.00  0.00    +0.007 C 
ATOM      5  C   LIG A   1      -7.874  -0.686 125.112  0.00  0.00    +0.019 C 
ATOM      6  C   LIG A   1      -7.152  -0.530 126.474  0.00  0.00    +0.074 C 
ATOM      7  C   LIG A   1      -8.199  -0.127 127.551  0.00  0.00    +0.019 C 
ATOM      8  C   LIG A   1      -7.607  -0.078 128.970  0.00  0.00    +0.012 C 
ATOM      9  C   LIG A   1      -6.908  -1.397 129.432  0.00  0.00    -0.005 C 
ATOM     10  C   LIG A   1      -5.911  -1.813 128.305  0.00  0.00    -0.063 C 
ATOM     11  C   LIG A   1      -4.615  -2.112 128.558  0.00  0.00    -0.026 C 
ATOM     12  C   LIG A   1      -4.009  -2.258 129.933  0.00  0.00    +0.031 C 
ATOM     13  C   LIG A   1      -5.138  -2.421 130.962  0.00  0.00    +0.006 C 
ATOM     14  C   LIG A   1      -4.766  -2.890 132.415  0.00  0.00    -0.025 C 
ATOM     15  C   LIG A   1      -3.813  -4.132 132.323  0.00  0.00    +0.010 C 
ATOM     16  C   LIG A   1      -4.045  -5.233 133.359  0.00  0.00    +0.032 C 
ATOM     17  C   LIG A   1      -4.614  -4.715 134.670  0.00  0.00    +0.120 C 
ATOM     18  C   LIG A   1      -6.004  -4.025 134.493  0.00  0.00    -0.006 C 
ATOM     19  C   LIG A   1      -6.178  -3.032 135.661  0.00  0.00    +0.014 C 
ATOM     20  C   LIG A   1      -6.113  -3.360 133.065  0.00  0.00    +0.003 C 
ATOM     21  C   LIG A   1      -7.313  -2.399 132.872  0.00  0.00    +0.005 C 
ATOM     22  C   LIG A   1      -7.056  -1.115 132.083  0.00  0.00    +0.008 C 
ATOM     23  C   LIG A   1      -6.126  -1.203 130.842  0.00  0.00    -0.019 C 
ATOM     24  C   LIG A   1      -5.353   0.159 130.823  0.00  0.00    +0.012 C 
ATOM     25  C   LIG A   1      -7.155  -5.060 134.619  0.00  0.00    +0.014 C 
ATOM     26  C   LIG A   1      -4.044  -1.791 133.211  0.00  0.00    +0.012 C 
ATOM     27  C   LIG A   1      -8.010  -2.487 129.581  0.00  0.00    +0.016 C 
ATOM     28  C   LIG A   1      -6.516  -1.879 126.896  0.00  0.00    +0.033 C 
ATOM     29  C   LIG A   1      -5.640  -2.516 125.790  0.00  0.00    +0.015 C 
ENDROOT
BRANCH  17  30
ATOM     30  O   LIG A   1      -4.667  -5.781 135.619  0.00  0.00    -0.391 OA
ATOM     31  H   LIG A   1      -4.335  -5.447 136.469  0.00  0.00    +0.210 HD
ENDBRANCH  17  30
BRANCH   6  32
ATOM     32  C   LIG A   1      -6.103   0.579 126.318  0.00  0.00    +0.311 C 
ATOM     33  O   LIG A   1      -4.896   0.451 126.182  0.00  0.00    -0.250 OA
BRANCH  32  34
ATOM     34  O   LIG A   1      -6.634   1.817 126.239  0.00  0.00    -0.480 OA
ATOM     35  H   LIG A   1      -7.561   1.685 126.528  0.00  0.00    +0.295 HD
ENDBRANCH  32  34
ENDBRANCH   6  32
TORSDOF 3
ENDMDL
MODEL 5
REMARK VINA RESULT:      -8.5      4.645      6.134
REMARK  Name = NuBBE_132
REMARK  10 active torsions:
REMARK  status: ('A' for Active; 'I' for Inactive)
REMARK    1  A    between atoms: C_1  and  C_2
REMARK    2  A    between atoms: C_2  and  C_3
REMARK    3  A    between atoms: C_6  and  C_32
REMARK    4  A    between atoms: C_9  and  C_29
REMARK    5  A    between atoms: C_14  and  C_28
REMARK    6  A    between atoms: C_17  and  O_18
REMARK    7  A    between atoms: C_19  and  C_20
REMARK    8  A    between atoms: C_19  and  C_26
REMARK    9  A    between atoms: C_24  and  C_25
REMARK   10  A    between atoms: C_32  and  O_33
REMARK                            x       y       z     vdW  Elec       q    Type
REMARK                         _______ _______ _______ _____ _____    ______ ____
ROOT
ATOM      1  C   LIG A   1      -8.070   3.592 133.043  0.00  0.00    +0.011 C 
ATOM      2  C   LIG A   1      -7.503   4.873 132.398  0.00  0.00    -0.034 C 
ATOM      3  C   LIG A   1      -8.402   6.047 132.835  0.00  0.00    +0.011 C 
ATOM      4  C   LIG A   1      -6.061   5.134 132.877  0.00  0.00    +0.007 C 
ATOM      5  C   LIG A   1      -5.038   4.135 132.327  0.00  0.00    +0.019 C 
ATOM      6  C   LIG A   1      -5.059   4.015 130.782  0.00  0.00    +0.074 C 
ATOM      7  C   LIG A   1      -4.182   2.801 130.363  0.00  0.00    +0.019 C 
ATOM      8  C   LIG A   1      -4.245   2.512 128.854  0.00  0.00    +0.012 C 
ATOM      9  C   LIG A   1      -5.686   2.296 128.289  0.00  0.00    -0.005 C 
ATOM     10  C   LIG A   1      -6.560   3.494 128.778  0.00  0.00    -0.063 C 
ATOM     11  C   LIG A   1      -7.322   4.227 127.933  0.00  0.00    -0.026 C 
ATOM     12  C   LIG A   1      -7.572   3.899 126.481  0.00  0.00    +0.031 C 
ATOM     13  C   LIG A   1      -7.184   2.434 126.226  0.00  0.00    +0.006 C 
ATOM     14  C   LIG A   1      -7.632   1.764 124.877  0.00  0.00    -0.025 C 
ATOM     15  C   LIG A   1      -9.152   2.065 124.635  0.00  0.00    +0.010 C 
ATOM     16  C   LIG A   1      -9.975   0.921 124.042  0.00  0.00    +0.032 C 
ATOM     17  C   LIG A   1      -9.160  -0.012 123.161  0.00  0.00    +0.120 C 
ATOM     18  C   LIG A   1      -7.997  -0.709 123.935  0.00  0.00    -0.006 C 
ATOM     19  C   LIG A   1      -6.916  -1.088 122.900  0.00  0.00    +0.014 C 
ATOM     20  C   LIG A   1      -7.472   0.220 125.098  0.00  0.00    +0.003 C 
ATOM     21  C   LIG A   1      -6.138  -0.221 125.749  0.00  0.00    +0.005 C 
ATOM     22  C   LIG A   1      -5.134   0.878 126.095  0.00  0.00    +0.008 C 
ATOM     23  C   LIG A   1      -5.692   2.210 126.668  0.00  0.00    -0.019 C 
ATOM     24  C   LIG A   1      -4.752   3.321 126.087  0.00  0.00    +0.012 C 
ATOM     25  C   LIG A   1      -8.478  -2.039 124.576  0.00  0.00    +0.014 C 
ATOM     26  C   LIG A   1      -6.840   2.302 123.674  0.00  0.00    +0.012 C 
ATOM     27  C   LIG A   1      -6.235   0.970 128.894  0.00  0.00    +0.016 C 
ATOM     28  C   LIG A   1      -6.507   3.762 130.289  0.00  0.00    +0.033 C 
ATOM     29  C   LIG A   1      -7.532   4.773 130.854  0.00  0.00    +0.015 C 
ENDROOT
BRANCH  17  30
ATOM     30  O   LIG A   1     -10.031  -0.961 122.542  0.00  0.00    -0.391 OA
ATOM     31  H   LIG A   1     -10.048  -0.778 121.587  0.00  0.00    +0.210 HD
ENDBRANCH  17  30
BRANCH   6  32
ATOM     32  C   LIG A   1      -4.473   5.312 130.209  0.00  0.00    +0.311 C 
ATOM     33  O   LIG A   1      -5.071   6.220 129.652  0.00  0.00    -0.250 OA
BRANCH  32  34
ATOM     34  O   LIG A   1      -3.154   5.460 130.451  0.00  0.00    -0.480 OA
ATOM     35  H   LIG A   1      -3.099   6.341 130.877  0.00  0.00    +0.295 HD
ENDBRANCH  32  34
ENDBRANCH   6  32
TORSDOF 3
ENDMDL
MODEL 6
REMARK VINA RESULT:      -8.5      2.156      3.449
REMARK  Name = NuBBE_132
REMARK  10 active torsions:
REMARK  status: ('A' for Active; 'I' for Inactive)
REMARK    1  A    between atoms: C_1  and  C_2
REMARK    2  A    between atoms: C_2  and  C_3
REMARK    3  A    between atoms: C_6  and  C_32
REMARK    4  A    between atoms: C_9  and  C_29
REMARK    5  A    between atoms: C_14  and  C_28
REMARK    6  A    between atoms: C_17  and  O_18
REMARK    7  A    between atoms: C_19  and  C_20
REMARK    8  A    between atoms: C_19  and  C_26
REMARK    9  A    between atoms: C_24  and  C_25
REMARK   10  A    between atoms: C_32  and  O_33
REMARK                            x       y       z     vdW  Elec       q    Type
REMARK                         _______ _______ _______ _____ _____    ______ ____
ROOT
ATOM      1  C   LIG A   1      -8.637  -4.391 134.848  0.00  0.00    +0.011 C 
ATOM      2  C   LIG A   1      -7.265  -3.782 135.202  0.00  0.00    -0.034 C 
ATOM      3  C   LIG A   1      -7.410  -3.078 136.566  0.00  0.00    +0.011 C 
ATOM      4  C   LIG A   1      -6.191  -4.883 135.313  0.00  0.00    +0.007 C 
ATOM      5  C   LIG A   1      -5.815  -5.514 133.968  0.00  0.00    +0.019 C 
ATOM      6  C   LIG A   1      -5.392  -4.480 132.895  0.00  0.00    +0.074 C 
ATOM      7  C   LIG A   1      -5.293  -5.199 131.519  0.00  0.00    +0.019 C 
ATOM      8  C   LIG A   1      -5.008  -4.231 130.359  0.00  0.00    +0.012 C 
ATOM      9  C   LIG A   1      -6.028  -3.053 130.226  0.00  0.00    -0.005 C 
ATOM     10  C   LIG A   1      -6.158  -2.391 131.634  0.00  0.00    -0.063 C 
ATOM     11  C   LIG A   1      -6.031  -1.056 131.821  0.00  0.00    -0.026 C 
ATOM     12  C   LIG A   1      -5.929  -0.029 130.720  0.00  0.00    +0.031 C 
ATOM     13  C   LIG A   1      -6.394  -0.665 129.400  0.00  0.00    +0.006 C 
ATOM     14  C   LIG A   1      -6.670   0.275 128.171  0.00  0.00    -0.025 C 
ATOM     15  C   LIG A   1      -7.558   1.480 128.638  0.00  0.00    +0.010 C 
ATOM     16  C   LIG A   1      -8.637   1.938 127.655  0.00  0.00    +0.032 C 
ATOM     17  C   LIG A   1      -8.271   1.687 126.201  0.00  0.00    +0.120 C 
ATOM     18  C   LIG A   1      -8.053   0.173 125.887  0.00  0.00    -0.006 C 
ATOM     19  C   LIG A   1      -7.118   0.086 124.661  0.00  0.00    +0.014 C 
ATOM     20  C   LIG A   1      -7.509  -0.583 127.162  0.00  0.00    +0.003 C 
ATOM     21  C   LIG A   1      -6.975  -2.014 126.906  0.00  0.00    +0.005 C 
ATOM     22  C   LIG A   1      -5.705  -2.428 127.650  0.00  0.00    +0.008 C 
ATOM     23  C   LIG A   1      -5.548  -1.962 129.124  0.00  0.00    -0.019 C 
ATOM     24  C   LIG A   1      -4.015  -1.689 129.298  0.00  0.00    +0.012 C 
ATOM     25  C   LIG A   1      -9.388  -0.504 125.472  0.00  0.00    +0.014 C 
ATOM     26  C   LIG A   1      -5.372   0.842 127.573  0.00  0.00    +0.012 C 
ATOM     27  C   LIG A   1      -7.399  -3.662 129.809  0.00  0.00    +0.016 C 
ATOM     28  C   LIG A   1      -6.461  -3.363 132.783  0.00  0.00    +0.033 C 
ATOM     29  C   LIG A   1      -6.836  -2.735 134.146  0.00  0.00    +0.015 C 
ENDROOT
BRANCH  17  30
ATOM     30  O   LIG A   1      -9.264   2.268 125.355  0.00  0.00    -0.391 OA
ATOM     31  H   LIG A   1      -9.492   1.620 124.666  0.00  0.00    +0.210 HD
ENDBRANCH  17  30
BRANCH   6  32
ATOM     32  C   LIG A   1      -4.020  -3.927 133.301  0.00  0.00    +0.311 C 
ATOM     33  O   LIG A   1      -3.781  -2.892 133.905  0.00  0.00    -0.250 OA
BRANCH  32  34
ATOM     34  O   LIG A   1      -2.997  -4.758 133.014  0.00  0.00    -0.480 OA
ATOM     35  H   LIG A   1      -3.264  -5.602 133.435  0.00  0.00    +0.295 HD
ENDBRANCH  32  34
ENDBRANCH   6  32
TORSDOF 3
ENDMDL
MODEL 7
REMARK VINA RESULT:      -8.2      3.389      6.094
REMARK  Name = NuBBE_132
REMARK  10 active torsions:
REMARK  status: ('A' for Active; 'I' for Inactive)
REMARK    1  A    between atoms: C_1  and  C_2
REMARK    2  A    between atoms: C_2  and  C_3
REMARK    3  A    between atoms: C_6  and  C_32
REMARK    4  A    between atoms: C_9  and  C_29
REMARK    5  A    between atoms: C_14  and  C_28
REMARK    6  A    between atoms: C_17  and  O_18
REMARK    7  A    between atoms: C_19  and  C_20
REMARK    8  A    between atoms: C_19  and  C_26
REMARK    9  A    between atoms: C_24  and  C_25
REMARK   10  A    between atoms: C_32  and  O_33
REMARK                            x       y       z     vdW  Elec       q    Type
REMARK                         _______ _______ _______ _____ _____    ______ ____
ROOT
ATOM      1  C   LIG A   1      -6.751  -4.567 134.075  0.00  0.00    +0.011 C 
ATOM      2  C   LIG A   1      -5.286  -4.322 133.658  0.00  0.00    -0.034 C 
ATOM      3  C   LIG A   1      -4.400  -4.618 134.884  0.00  0.00    +0.011 C 
ATOM      4  C   LIG A   1      -4.883  -5.263 132.504  0.00  0.00    +0.007 C 
ATOM      5  C   LIG A   1      -5.556  -4.925 131.169  0.00  0.00    +0.019 C 
ATOM      6  C   LIG A   1      -5.360  -3.451 130.733  0.00  0.00    +0.074 C 
ATOM      7  C   LIG A   1      -6.293  -3.161 129.522  0.00  0.00    +0.019 C 
ATOM      8  C   LIG A   1      -6.273  -1.683 129.095  0.00  0.00    +0.012 C 
ATOM      9  C   LIG A   1      -6.615  -0.670 130.235  0.00  0.00    -0.005 C 
ATOM     10  C   LIG A   1      -5.713  -1.024 131.458  0.00  0.00    -0.063 C 
ATOM     11  C   LIG A   1      -4.965  -0.097 132.101  0.00  0.00    -0.026 C 
ATOM     12  C   LIG A   1      -5.028   1.391 131.856  0.00  0.00    +0.031 C 
ATOM     13  C   LIG A   1      -6.321   1.718 131.091  0.00  0.00    +0.006 C 
ATOM     14  C   LIG A   1      -6.768   3.220 130.982  0.00  0.00    -0.025 C 
ATOM     15  C   LIG A   1      -6.692   3.882 132.401  0.00  0.00    +0.010 C 
ATOM     16  C   LIG A   1      -7.815   4.861 132.745  0.00  0.00    +0.032 C 
ATOM     17  C   LIG A   1      -8.393   5.565 131.528  0.00  0.00    +0.120 C 
ATOM     18  C   LIG A   1      -9.022   4.572 130.500  0.00  0.00    -0.006 C 
ATOM     19  C   LIG A   1      -8.988   5.257 129.117  0.00  0.00    +0.014 C 
ATOM     20  C   LIG A   1      -8.273   3.182 130.544  0.00  0.00    +0.003 C 
ATOM     21  C   LIG A   1      -8.600   2.216 129.379  0.00  0.00    +0.005 C 
ATOM     22  C   LIG A   1      -7.438   1.418 128.788  0.00  0.00    +0.008 C 
ATOM     23  C   LIG A   1      -6.368   0.866 129.770  0.00  0.00    -0.019 C 
ATOM     24  C   LIG A   1      -5.016   0.958 128.983  0.00  0.00    +0.012 C 
ATOM     25  C   LIG A   1     -10.517   4.311 130.826  0.00  0.00    +0.014 C 
ATOM     26  C   LIG A   1      -5.866   4.024 130.030  0.00  0.00    +0.012 C 
ATOM     27  C   LIG A   1      -8.112  -0.876 130.615  0.00  0.00    +0.016 C 
ATOM     28  C   LIG A   1      -5.753  -2.498 131.889  0.00  0.00    +0.033 C 
ATOM     29  C   LIG A   1      -5.072  -2.850 133.233  0.00  0.00    +0.015 C 
ENDROOT
BRANCH  17  30
ATOM     30  O   LIG A   1      -9.331   6.554 131.953  0.00  0.00    -0.391 OA
ATOM     31  H   LIG A   1     -10.222   6.168 131.903  0.00  0.00    +0.210 HD
ENDBRANCH  17  30
BRANCH   6  32
ATOM     32  C   LIG A   1      -3.892  -3.283 130.320  0.00  0.00    +0.311 C 
ATOM     33  O   LIG A   1      -2.989  -2.769 130.963  0.00  0.00    -0.250 OA
BRANCH  32  34
ATOM     34  O   LIG A   1      -3.594  -3.863 129.138  0.00  0.00    -0.480 OA
ATOM     35  H   LIG A   1      -2.811  -3.361 128.830  0.00  0.00    +0.295 HD
ENDBRANCH  32  34
ENDBRANCH   6  32
TORSDOF 3
ENDMDL
MODEL 8
REMARK VINA RESULT:      -8.1      4.112      6.488
REMARK  Name = NuBBE_132
REMARK  10 active torsions:
REMARK  status: ('A' for Active; 'I' for Inactive)
REMARK    1  A    between atoms: C_1  and  C_2
REMARK    2  A    between atoms: C_2  and  C_3
REMARK    3  A    between atoms: C_6  and  C_32
REMARK    4  A    between atoms: C_9  and  C_29
REMARK    5  A    between atoms: C_14  and  C_28
REMARK    6  A    between atoms: C_17  and  O_18
REMARK    7  A    between atoms: C_19  and  C_20
REMARK    8  A    between atoms: C_19  and  C_26
REMARK    9  A    between atoms: C_24  and  C_25
REMARK   10  A    between atoms: C_32  and  O_33
REMARK                            x       y       z     vdW  Elec       q    Type
REMARK                         _______ _______ _______ _____ _____    ______ ____
ROOT
ATOM      1  C   LIG A   1      -2.346   6.509 129.653  0.00  0.00    +0.011 C 
ATOM      2  C   LIG A   1      -2.610   5.940 131.062  0.00  0.00    -0.034 C 
ATOM      3  C   LIG A   1      -1.249   5.818 131.775  0.00  0.00    +0.011 C 
ATOM      4  C   LIG A   1      -3.522   6.886 131.871  0.00  0.00    +0.007 C 
ATOM      5  C   LIG A   1      -4.969   6.924 131.369  0.00  0.00    +0.019 C 
ATOM      6  C   LIG A   1      -5.628   5.526 131.270  0.00  0.00    +0.074 C 
ATOM      7  C   LIG A   1      -6.979   5.662 130.511  0.00  0.00    +0.019 C 
ATOM      8  C   LIG A   1      -7.651   4.305 130.240  0.00  0.00    +0.012 C 
ATOM      9  C   LIG A   1      -6.758   3.275 129.475  0.00  0.00    -0.005 C 
ATOM     10  C   LIG A   1      -5.387   3.206 130.219  0.00  0.00    -0.063 C 
ATOM     11  C   LIG A   1      -4.827   2.034 130.599  0.00  0.00    -0.026 C 
ATOM     12  C   LIG A   1      -5.333   0.664 130.217  0.00  0.00    +0.031 C 
ATOM     13  C   LIG A   1      -6.301   0.803 129.030  0.00  0.00    +0.006 C 
ATOM     14  C   LIG A   1      -6.726  -0.496 128.255  0.00  0.00    -0.025 C 
ATOM     15  C   LIG A   1      -5.446  -1.340 127.928  0.00  0.00    +0.010 C 
ATOM     16  C   LIG A   1      -5.423  -2.020 126.558  0.00  0.00    +0.032 C 
ATOM     17  C   LIG A   1      -6.807  -2.372 126.038  0.00  0.00    +0.120 C 
ATOM     18  C   LIG A   1      -7.718  -1.117 125.853  0.00  0.00    -0.006 C 
ATOM     19  C   LIG A   1      -9.184  -1.592 125.950  0.00  0.00    +0.014 C 
ATOM     20  C   LIG A   1      -7.338   0.002 126.900  0.00  0.00    +0.003 C 
ATOM     21  C   LIG A   1      -8.348   1.170 127.019  0.00  0.00    +0.005 C 
ATOM     22  C   LIG A   1      -8.639   1.700 128.423  0.00  0.00    +0.008 C 
ATOM     23  C   LIG A   1      -7.449   1.807 129.415  0.00  0.00    -0.019 C 
ATOM     24  C   LIG A   1      -8.061   1.464 130.815  0.00  0.00    +0.012 C 
ATOM     25  C   LIG A   1      -7.544  -0.512 124.433  0.00  0.00    +0.014 C 
ATOM     26  C   LIG A   1      -7.681  -1.375 129.079  0.00  0.00    +0.012 C 
ATOM     27  C   LIG A   1      -6.541   3.821 128.033  0.00  0.00    +0.016 C 
ATOM     28  C   LIG A   1      -4.715   4.564 130.468  0.00  0.00    +0.033 C 
ATOM     29  C   LIG A   1      -3.255   4.536 130.979  0.00  0.00    +0.015 C 
ENDROOT
BRANCH  17  30
ATOM     30  O   LIG A   1      -6.684  -3.122 124.829  0.00  0.00    -0.391 OA
ATOM     31  H   LIG A   1      -5.760  -3.414 124.747  0.00  0.00    +0.210 HD
ENDBRANCH  17  30
BRANCH   6  32
ATOM     32  C   LIG A   1      -5.874   5.028 132.700  0.00  0.00    +0.311 C 
ATOM     33  O   LIG A   1      -5.270   4.152 133.300  0.00  0.00    -0.250 OA
BRANCH  32  34
ATOM     34  O   LIG A   1      -6.819   5.729 133.360  0.00  0.00    -0.480 OA
ATOM     35  H   LIG A   1      -6.933   5.228 134.194  0.00  0.00    +0.295 HD
ENDBRANCH  32  34
ENDBRANCH   6  32
TORSDOF 3
ENDMDL
MODEL 9
REMARK VINA RESULT:      -8.0      3.015      5.119
REMARK  Name = NuBBE_132
REMARK  10 active torsions:
REMARK  status: ('A' for Active; 'I' for Inactive)
REMARK    1  A    between atoms: C_1  and  C_2
REMARK    2  A    between atoms: C_2  and  C_3
REMARK    3  A    between atoms: C_6  and  C_32
REMARK    4  A    between atoms: C_9  and  C_29
REMARK    5  A    between atoms: C_14  and  C_28
REMARK    6  A    between atoms: C_17  and  O_18
REMARK    7  A    between atoms: C_19  and  C_20
REMARK    8  A    between atoms: C_19  and  C_26
REMARK    9  A    between atoms: C_24  and  C_25
REMARK   10  A    between atoms: C_32  and  O_33
REMARK                            x       y       z     vdW  Elec       q    Type
REMARK                         _______ _______ _______ _____ _____    ______ ____
ROOT
ATOM      1  C   LIG A   1      -9.620   3.590 133.680  0.00  0.00    +0.011 C 
ATOM      2  C   LIG A   1      -8.323   4.333 133.299  0.00  0.00    -0.034 C 
ATOM      3  C   LIG A   1      -8.635   5.843 133.307  0.00  0.00    +0.011 C 
ATOM      4  C   LIG A   1      -7.206   4.043 134.322  0.00  0.00    +0.007 C 
ATOM      5  C   LIG A   1      -6.670   2.609 134.259  0.00  0.00    +0.019 C 
ATOM      6  C   LIG A   1      -6.203   2.184 132.844  0.00  0.00    +0.074 C 
ATOM      7  C   LIG A   1      -5.933   0.653 132.845  0.00  0.00    +0.019 C 
ATOM      8  C   LIG A   1      -5.592   0.106 131.448  0.00  0.00    +0.012 C 
ATOM      9  C   LIG A   1      -6.656   0.418 130.347  0.00  0.00    -0.005 C 
ATOM     10  C   LIG A   1      -6.956   1.948 130.411  0.00  0.00    -0.063 C 
ATOM     11  C   LIG A   1      -6.920   2.741 129.314  0.00  0.00    -0.026 C 
ATOM     12  C   LIG A   1      -6.768   2.253 127.894  0.00  0.00    +0.031 C 
ATOM     13  C   LIG A   1      -7.071   0.746 127.849  0.00  0.00    +0.006 C 
ATOM     14  C   LIG A   1      -7.278   0.065 126.448  0.00  0.00    -0.025 C 
ATOM     15  C   LIG A   1      -8.270   0.932 125.598  0.00  0.00    +0.010 C 
ATOM     16  C   LIG A   1      -9.274   0.158 124.742  0.00  0.00    +0.032 C 
ATOM     17  C   LIG A   1      -8.757  -1.199 124.290  0.00  0.00    +0.120 C 
ATOM     18  C   LIG A   1      -8.428  -2.147 125.487  0.00  0.00    -0.006 C 
ATOM     19  C   LIG A   1      -7.377  -3.165 124.994  0.00  0.00    +0.014 C 
ATOM     20  C   LIG A   1      -7.968  -1.311 126.745  0.00  0.00    +0.003 C 
ATOM     21  C   LIG A   1      -7.336  -2.135 127.894  0.00  0.00    +0.005 C 
ATOM     22  C   LIG A   1      -6.123  -1.530 128.600  0.00  0.00    +0.008 C 
ATOM     23  C   LIG A   1      -6.133   0.001 128.868  0.00  0.00    -0.019 C 
ATOM     24  C   LIG A   1      -4.640   0.447 128.701  0.00  0.00    +0.012 C 
ATOM     25  C   LIG A   1      -9.678  -2.970 125.900  0.00  0.00    +0.014 C 
ATOM     26  C   LIG A   1      -5.961  -0.059 125.664  0.00  0.00    +0.012 C 
ATOM     27  C   LIG A   1      -7.947  -0.380 130.699  0.00  0.00    +0.016 C 
ATOM     28  C   LIG A   1      -7.314   2.482 131.806  0.00  0.00    +0.033 C 
ATOM     29  C   LIG A   1      -7.852   3.930 131.881  0.00  0.00    +0.015 C 
ENDROOT
BRANCH  17  30
ATOM     30  O   LIG A   1      -9.694  -1.787 123.388  0.00  0.00    -0.391 OA
ATOM     31  H   LIG A   1     -10.145  -2.514 123.850  0.00  0.00    +0.210 HD
ENDBRANCH  17  30
BRANCH   6  32
ATOM     32  C   LIG A   1      -4.908   2.947 132.536  0.00  0.00    +0.311 C 
ATOM     33  O   LIG A   1      -4.756   3.881 131.763  0.00  0.00    -0.250 OA
BRANCH  32  34
ATOM     34  O   LIG A   1      -3.862   2.563 133.298  0.00  0.00    -0.480 OA
ATOM     35  H   LIG A   1      -3.802   3.269 133.975  0.00  0.00    +0.295 HD
ENDBRANCH  32  34
ENDBRANCH   6  32
TORSDOF 3
ENDMDL
