MODEL 1
REMARK VINA RESULT:      -7.2      0.000      0.000
REMARK  Name = NuBBE_1669
REMARK  2 active torsions:
REMARK  status: ('A' for Active; 'I' for Inactive)
REMARK    1  A    between atoms: C_1  and  C_2
REMARK    2  A    between atoms: C_2  and  C_3
REMARK                            x       y       z     vdW  Elec       q    Type
REMARK                         _______ _______ _______ _____ _____    ______ ____
ROOT
ATOM      1  C   LIG A   1      -7.023  -1.550 123.493  0.00  0.00    +0.010 C 
ATOM      2  C   LIG A   1      -8.419  -1.598 122.870  0.00  0.00    -0.003 C 
ATOM      3  C   LIG A   1      -9.140  -2.962 123.330  0.00  0.00    +0.019 C 
ATOM      4  C   LIG A   1      -8.467  -3.801 124.544  0.00  0.00    +0.085 C 
ATOM      5  N   LIG A   1      -7.640  -3.038 125.560  0.00  0.00    -0.298 NA
ATOM      6  C   LIG A   1      -8.408  -2.664 126.790  0.00  0.00    +0.086 C 
ATOM      7  C   LIG A   1      -8.070  -1.171 127.113  0.00  0.00    +0.030 C 
ATOM      8  C   LIG A   1      -9.130  -0.244 123.408  0.00  0.00    +0.027 C 
ATOM      9  C   LIG A   1      -7.411  -1.726 124.960  0.00  0.00    +0.072 C 
ATOM     10  C   LIG A   1      -7.708  -0.502 125.770  0.00  0.00    +0.033 C 
ATOM     11  C   LIG A   1      -8.896   0.235 124.956  0.00  0.00    +0.083 C 
ATOM     12  N   LIG A   1      -8.602   1.683 125.004  0.00  0.00    -0.340 N 
ATOM     13  C   LIG A   1      -7.234   1.765 125.346  0.00  0.00    +0.031 A 
ATOM     14  C   LIG A   1      -6.482   2.927 125.328  0.00  0.00    +0.023 A 
ATOM     15  C   LIG A   1      -5.150   2.872 125.749  0.00  0.00    +0.002 A 
ATOM     16  C   LIG A   1      -4.594   1.666 126.200  0.00  0.00    +0.000 A 
ATOM     17  C   LIG A   1      -5.366   0.504 126.244  0.00  0.00    +0.006 A 
ATOM     18  C   LIG A   1      -6.686   0.575 125.827  0.00  0.00    -0.017 A 
ATOM     19  H   LIG A   1      -8.826   2.223 124.174  0.00  0.00    +0.146 HD
ENDROOT
BRANCH   1  21
ATOM     20  C   LIG A   1      -4.828  -2.766 123.841  0.00  0.00    +0.004 C 
ATOM     21  C   LIG A   1      -6.008  -2.535 122.907  0.00  0.00    +0.002 C 
ENDBRANCH   1  21
TORSDOF 1
ENDMDL
MODEL 2
REMARK VINA RESULT:      -7.1      2.011      4.339
REMARK  Name = NuBBE_1669
REMARK  2 active torsions:
REMARK  status: ('A' for Active; 'I' for Inactive)
REMARK    1  A    between atoms: C_1  and  C_2
REMARK    2  A    between atoms: C_2  and  C_3
REMARK                            x       y       z     vdW  Elec       q    Type
REMARK                         _______ _______ _______ _____ _____    ______ ____
ROOT
ATOM      1  C   LIG A   1      -7.290  -2.186 124.771  0.00  0.00    +0.010 C 
ATOM      2  C   LIG A   1      -6.208  -1.398 124.031  0.00  0.00    -0.003 C 
ATOM      3  C   LIG A   1      -6.909  -0.183 123.239  0.00  0.00    +0.019 C 
ATOM      4  C   LIG A   1      -8.445   0.177 123.612  0.00  0.00    +0.085 C 
ATOM      5  N   LIG A   1      -8.932  -0.158 125.008  0.00  0.00    -0.298 NA
ATOM      6  C   LIG A   1      -8.863   1.001 125.955  0.00  0.00    +0.086 C 
ATOM      7  C   LIG A   1      -8.250   0.471 127.293  0.00  0.00    +0.030 C 
ATOM      8  C   LIG A   1      -5.190  -0.940 125.206  0.00  0.00    +0.027 C 
ATOM      9  C   LIG A   1      -7.913  -1.042 125.568  0.00  0.00    +0.072 C 
ATOM     10  C   LIG A   1      -7.353  -0.729 126.921  0.00  0.00    +0.033 C 
ATOM     11  C   LIG A   1      -5.786  -0.437 126.646  0.00  0.00    +0.083 C 
ATOM     12  N   LIG A   1      -5.040  -1.065 127.755  0.00  0.00    -0.340 N 
ATOM     13  C   LIG A   1      -5.943  -1.992 128.323  0.00  0.00    +0.031 A 
ATOM     14  C   LIG A   1      -5.613  -2.936 129.279  0.00  0.00    +0.023 A 
ATOM     15  C   LIG A   1      -6.624  -3.751 129.796  0.00  0.00    +0.002 A 
ATOM     16  C   LIG A   1      -7.950  -3.600 129.367  0.00  0.00    +0.000 A 
ATOM     17  C   LIG A   1      -8.283  -2.627 128.425  0.00  0.00    +0.006 A 
ATOM     18  C   LIG A   1      -7.270  -1.822 127.924  0.00  0.00    -0.017 A 
ATOM     19  H   LIG A   1      -4.147  -1.489 127.524  0.00  0.00    +0.146 HD
ENDROOT
BRANCH   1  21
ATOM     20  C   LIG A   1      -9.419  -3.553 124.652  0.00  0.00    +0.004 C 
ATOM     21  C   LIG A   1      -8.219  -3.018 123.883  0.00  0.00    +0.002 C 
ENDBRANCH   1  21
TORSDOF 1
ENDMDL
MODEL 3
REMARK VINA RESULT:      -7.1      2.814      5.255
REMARK  Name = NuBBE_1669
REMARK  2 active torsions:
REMARK  status: ('A' for Active; 'I' for Inactive)
REMARK    1  A    between atoms: C_1  and  C_2
REMARK    2  A    between atoms: C_2  and  C_3
REMARK                            x       y       z     vdW  Elec       q    Type
REMARK                         _______ _______ _______ _____ _____    ______ ____
ROOT
ATOM      1  C   LIG A   1      -5.989  -2.908 129.017  0.00  0.00    +0.010 C 
ATOM      2  C   LIG A   1      -7.149  -3.494 129.825  0.00  0.00    -0.003 C 
ATOM      3  C   LIG A   1      -7.551  -2.445 130.979  0.00  0.00    +0.019 C 
ATOM      4  C   LIG A   1      -6.956  -0.940 130.875  0.00  0.00    +0.085 C 
ATOM      5  N   LIG A   1      -6.611  -0.409 129.497  0.00  0.00    -0.298 NA
ATOM      6  C   LIG A   1      -7.701   0.421 128.891  0.00  0.00    +0.086 C 
ATOM      7  C   LIG A   1      -7.863  -0.039 127.405  0.00  0.00    +0.030 C 
ATOM      8  C   LIG A   1      -8.301  -3.754 128.716  0.00  0.00    +0.027 C 
ATOM      9  C   LIG A   1      -6.625  -1.577 128.621  0.00  0.00    +0.072 C 
ATOM     10  C   LIG A   1      -7.414  -1.515 127.350  0.00  0.00    +0.033 C 
ATOM     11  C   LIG A   1      -8.551  -2.651 127.531  0.00  0.00    +0.083 C 
ATOM     12  N   LIG A   1      -8.681  -3.327 126.224  0.00  0.00    -0.340 N 
ATOM     13  C   LIG A   1      -7.496  -3.003 125.526  0.00  0.00    +0.031 A 
ATOM     14  C   LIG A   1      -7.105  -3.566 124.324  0.00  0.00    +0.023 A 
ATOM     15  C   LIG A   1      -5.934  -3.106 123.716  0.00  0.00    +0.002 A 
ATOM     16  C   LIG A   1      -5.182  -2.078 124.303  0.00  0.00    +0.000 A 
ATOM     17  C   LIG A   1      -5.597  -1.493 125.499  0.00  0.00    +0.006 A 
ATOM     18  C   LIG A   1      -6.763  -1.957 126.090  0.00  0.00    -0.017 A 
ATOM     19  H   LIG A   1      -8.858  -4.327 126.241  0.00  0.00    +0.146 HD
ENDROOT
BRANCH   1  21
ATOM     20  C   LIG A   1      -3.567  -3.652 129.009  0.00  0.00    +0.004 C 
ATOM     21  C   LIG A   1      -4.642  -2.861 129.742  0.00  0.00    +0.002 C 
ENDBRANCH   1  21
TORSDOF 1
ENDMDL
MODEL 4
REMARK VINA RESULT:      -6.9      1.983      3.946
REMARK  Name = NuBBE_1669
REMARK  2 active torsions:
REMARK  status: ('A' for Active; 'I' for Inactive)
REMARK    1  A    between atoms: C_1  and  C_2
REMARK    2  A    between atoms: C_2  and  C_3
REMARK                            x       y       z     vdW  Elec       q    Type
REMARK                         _______ _______ _______ _____ _____    ______ ____
ROOT
ATOM      1  C   LIG A   1      -6.126  -2.997 124.896  0.00  0.00    +0.010 C 
ATOM      2  C   LIG A   1      -5.324  -1.855 124.269  0.00  0.00    -0.003 C 
ATOM      3  C   LIG A   1      -5.991  -1.476 122.854  0.00  0.00    +0.019 C 
ATOM      4  C   LIG A   1      -7.466  -2.067 122.529  0.00  0.00    +0.085 C 
ATOM      5  N   LIG A   1      -8.376  -2.384 123.700  0.00  0.00    -0.298 NA
ATOM      6  C   LIG A   1      -9.338  -1.281 124.019  0.00  0.00    +0.086 C 
ATOM      7  C   LIG A   1      -9.328  -1.089 125.571  0.00  0.00    +0.030 C 
ATOM      8  C   LIG A   1      -5.390  -0.680 125.383  0.00  0.00    +0.027 C 
ATOM      9  C   LIG A   1      -7.511  -2.353 124.877  0.00  0.00    +0.072 C 
ATOM     10  C   LIG A   1      -7.934  -1.538 126.060  0.00  0.00    +0.033 C 
ATOM     11  C   LIG A   1      -6.786  -0.405 126.193  0.00  0.00    +0.083 C 
ATOM     12  N   LIG A   1      -6.517  -0.248 127.637  0.00  0.00    -0.340 N 
ATOM     13  C   LIG A   1      -7.037  -1.419 128.234  0.00  0.00    +0.031 A 
ATOM     14  C   LIG A   1      -6.848  -1.785 129.555  0.00  0.00    +0.023 A 
ATOM     15  C   LIG A   1      -7.473  -2.943 130.027  0.00  0.00    +0.002 A 
ATOM     16  C   LIG A   1      -8.291  -3.707 129.182  0.00  0.00    +0.000 A 
ATOM     17  C   LIG A   1      -8.502  -3.316 127.860  0.00  0.00    +0.006 A 
ATOM     18  C   LIG A   1      -7.880  -2.163 127.407  0.00  0.00    -0.017 A 
ATOM     19  H   LIG A   1      -5.554  -0.073 127.907  0.00  0.00    +0.146 HD
ENDROOT
BRANCH   1  21
ATOM     20  C   LIG A   1      -4.549  -4.596 123.724  0.00  0.00    +0.004 C 
ATOM     21  C   LIG A   1      -5.971  -4.359 124.215  0.00  0.00    +0.002 C 
ENDBRANCH   1  21
TORSDOF 1
ENDMDL
MODEL 5
REMARK VINA RESULT:      -6.8      7.143      9.273
REMARK  Name = NuBBE_1669
REMARK  2 active torsions:
REMARK  status: ('A' for Active; 'I' for Inactive)
REMARK    1  A    between atoms: C_1  and  C_2
REMARK    2  A    between atoms: C_2  and  C_3
REMARK                            x       y       z     vdW  Elec       q    Type
REMARK                         _______ _______ _______ _____ _____    ______ ____
ROOT
ATOM      1  C   LIG A   1      -8.789   2.950 131.347  0.00  0.00    +0.010 C 
ATOM      2  C   LIG A   1      -8.658   2.522 132.810  0.00  0.00    -0.003 C 
ATOM      3  C   LIG A   1      -7.098   2.299 133.142  0.00  0.00    +0.019 C 
ATOM      4  C   LIG A   1      -6.011   2.858 132.077  0.00  0.00    +0.085 C 
ATOM      5  N   LIG A   1      -6.409   4.037 131.210  0.00  0.00    -0.298 NA
ATOM      6  C   LIG A   1      -5.945   5.355 131.752  0.00  0.00    +0.086 C 
ATOM      7  C   LIG A   1      -7.146   6.351 131.642  0.00  0.00    +0.030 C 
ATOM      8  C   LIG A   1      -9.358   3.730 133.632  0.00  0.00    +0.027 C 
ATOM      9  C   LIG A   1      -7.855   4.159 131.370  0.00  0.00    +0.072 C 
ATOM     10  C   LIG A   1      -8.432   5.498 131.712  0.00  0.00    +0.033 C 
ATOM     11  C   LIG A   1      -9.108   5.280 133.165  0.00  0.00    +0.083 C 
ATOM     12  N   LIG A   1     -10.387   6.021 133.148  0.00  0.00    -0.340 N 
ATOM     13  C   LIG A   1     -10.670   6.228 131.780  0.00  0.00    +0.031 A 
ATOM     14  C   LIG A   1     -11.862   6.725 131.284  0.00  0.00    +0.023 A 
ATOM     15  C   LIG A   1     -11.982   6.935 129.907  0.00  0.00    +0.002 A 
ATOM     16  C   LIG A   1     -10.907   6.664 129.048  0.00  0.00    +0.000 A 
ATOM     17  C   LIG A   1      -9.697   6.191 129.557  0.00  0.00    +0.006 A 
ATOM     18  C   LIG A   1      -9.591   5.992 130.925  0.00  0.00    -0.017 A 
ATOM     19  H   LIG A   1     -11.167   5.600 133.644  0.00  0.00    +0.146 HD
ENDROOT
BRANCH   1  21
ATOM     20  C   LIG A   1      -8.607   2.375 128.887  0.00  0.00    +0.004 C 
ATOM     21  C   LIG A   1      -8.505   1.856 130.315  0.00  0.00    +0.002 C 
ENDBRANCH   1  21
TORSDOF 1
ENDMDL
MODEL 6
REMARK VINA RESULT:      -6.8      2.972      4.163
REMARK  Name = NuBBE_1669
REMARK  2 active torsions:
REMARK  status: ('A' for Active; 'I' for Inactive)
REMARK    1  A    between atoms: C_1  and  C_2
REMARK    2  A    between atoms: C_2  and  C_3
REMARK                            x       y       z     vdW  Elec       q    Type
REMARK                         _______ _______ _______ _____ _____    ______ ____
ROOT
ATOM      1  C   LIG A   1      -6.637  -1.259 126.223  0.00  0.00    +0.010 C 
ATOM      2  C   LIG A   1      -7.731  -0.192 126.296  0.00  0.00    -0.003 C 
ATOM      3  C   LIG A   1      -9.116  -0.843 125.796  0.00  0.00    +0.019 C 
ATOM      4  C   LIG A   1      -9.187  -2.457 125.655  0.00  0.00    +0.085 C 
ATOM      5  N   LIG A   1      -8.269  -3.286 126.532  0.00  0.00    -0.298 NA
ATOM      6  C   LIG A   1      -8.929  -3.778 127.783  0.00  0.00    +0.086 C 
ATOM      7  C   LIG A   1      -7.931  -3.533 128.962  0.00  0.00    +0.030 C 
ATOM      8  C   LIG A   1      -7.721   0.266 127.850  0.00  0.00    +0.027 C 
ATOM      9  C   LIG A   1      -7.301  -2.338 127.076  0.00  0.00    +0.072 C 
ATOM     10  C   LIG A   1      -7.056  -2.328 128.554  0.00  0.00    +0.033 C 
ATOM     11  C   LIG A   1      -7.538  -0.858 129.027  0.00  0.00    +0.083 C 
ATOM     12  N   LIG A   1      -6.554  -0.395 130.027  0.00  0.00    -0.340 N 
ATOM     13  C   LIG A   1      -5.418  -1.211 129.825  0.00  0.00    +0.031 A 
ATOM     14  C   LIG A   1      -4.185  -1.014 130.421  0.00  0.00    +0.023 A 
ATOM     15  C   LIG A   1      -3.165  -1.937 130.176  0.00  0.00    +0.002 A 
ATOM     16  C   LIG A   1      -3.394  -3.053 129.358  0.00  0.00    +0.000 A 
ATOM     17  C   LIG A   1      -4.648  -3.263 128.785  0.00  0.00    +0.006 A 
ATOM     18  C   LIG A   1      -5.652  -2.341 129.040  0.00  0.00    -0.017 A 
ATOM     19  H   LIG A   1      -6.324   0.594 130.019  0.00  0.00    +0.146 HD
ENDROOT
BRANCH   1  21
ATOM     20  C   LIG A   1      -5.338  -2.909 124.805  0.00  0.00    +0.004 C 
ATOM     21  C   LIG A   1      -6.193  -1.649 124.811  0.00  0.00    +0.002 C 
ENDBRANCH   1  21
TORSDOF 1
ENDMDL
MODEL 7
REMARK VINA RESULT:      -6.7      1.921      3.367
REMARK  Name = NuBBE_1669
REMARK  2 active torsions:
REMARK  status: ('A' for Active; 'I' for Inactive)
REMARK    1  A    between atoms: C_1  and  C_2
REMARK    2  A    between atoms: C_2  and  C_3
REMARK                            x       y       z     vdW  Elec       q    Type
REMARK                         _______ _______ _______ _____ _____    ______ ____
ROOT
ATOM      1  C   LIG A   1      -8.106  -2.343 126.201  0.00  0.00    +0.010 C 
ATOM      2  C   LIG A   1      -7.008  -3.036 125.391  0.00  0.00    -0.003 C 
ATOM      3  C   LIG A   1      -7.621  -3.479 123.969  0.00  0.00    +0.019 C 
ATOM      4  C   LIG A   1      -9.056  -2.858 123.538  0.00  0.00    +0.085 C 
ATOM      5  N   LIG A   1      -9.445  -1.509 124.109  0.00  0.00    -0.298 NA
ATOM      6  C   LIG A   1      -9.138  -0.365 123.191  0.00  0.00    +0.086 C 
ATOM      7  C   LIG A   1      -8.472   0.756 124.054  0.00  0.00    +0.030 C 
ATOM      8  C   LIG A   1      -5.832  -1.924 125.302  0.00  0.00    +0.027 C 
ATOM      9  C   LIG A   1      -8.498  -1.264 125.193  0.00  0.00    +0.072 C 
ATOM     10  C   LIG A   1      -7.775   0.047 125.236  0.00  0.00    +0.033 C 
ATOM     11  C   LIG A   1      -6.217  -0.352 125.057  0.00  0.00    +0.083 C 
ATOM     12  N   LIG A   1      -5.454   0.512 125.982  0.00  0.00    -0.340 N 
ATOM     13  C   LIG A   1      -6.410   0.987 126.908  0.00  0.00    +0.031 A 
ATOM     14  C   LIG A   1      -6.112   1.689 128.063  0.00  0.00    +0.023 A 
ATOM     15  C   LIG A   1      -7.164   2.151 128.858  0.00  0.00    +0.002 A 
ATOM     16  C   LIG A   1      -8.496   1.924 128.482  0.00  0.00    +0.000 A 
ATOM     17  C   LIG A   1      -8.790   1.243 127.301  0.00  0.00    +0.006 A 
ATOM     18  C   LIG A   1      -7.736   0.794 126.519  0.00  0.00    -0.017 A 
ATOM     19  H   LIG A   1      -4.649   0.095 126.438  0.00  0.00    +0.146 HD
ENDROOT
BRANCH   1  21
ATOM     20  C   LIG A   1      -8.842  -3.916 128.045  0.00  0.00    +0.004 C 
ATOM     21  C   LIG A   1      -9.214  -3.260 126.722  0.00  0.00    +0.002 C 
ENDBRANCH   1  21
TORSDOF 1
ENDMDL
MODEL 8
REMARK VINA RESULT:      -6.6      4.245      7.118
REMARK  Name = NuBBE_1669
REMARK  2 active torsions:
REMARK  status: ('A' for Active; 'I' for Inactive)
REMARK    1  A    between atoms: C_1  and  C_2
REMARK    2  A    between atoms: C_2  and  C_3
REMARK                            x       y       z     vdW  Elec       q    Type
REMARK                         _______ _______ _______ _____ _____    ______ ____
ROOT
ATOM      1  C   LIG A   1      -7.637  -0.770 130.942  0.00  0.00    +0.010 C 
ATOM      2  C   LIG A   1      -6.369   0.039 131.221  0.00  0.00    -0.003 C 
ATOM      3  C   LIG A   1      -5.798  -0.386 132.666  0.00  0.00    +0.019 C 
ATOM      4  C   LIG A   1      -6.402  -1.723 133.355  0.00  0.00    +0.085 C 
ATOM      5  N   LIG A   1      -6.951  -2.804 132.445  0.00  0.00    -0.298 NA
ATOM      6  C   LIG A   1      -5.965  -3.895 132.157  0.00  0.00    +0.086 C 
ATOM      7  C   LIG A   1      -6.029  -4.185 130.621  0.00  0.00    +0.030 C 
ATOM      8  C   LIG A   1      -5.396  -0.325 129.977  0.00  0.00    +0.027 C 
ATOM      9  C   LIG A   1      -7.069  -2.176 131.132  0.00  0.00    +0.072 C 
ATOM     10  C   LIG A   1      -6.480  -2.872 129.944  0.00  0.00    +0.033 C 
ATOM     11  C   LIG A   1      -5.328  -1.864 129.422  0.00  0.00    +0.083 C 
ATOM     12  N   LIG A   1      -5.396  -1.878 127.946  0.00  0.00    -0.340 N 
ATOM     13  C   LIG A   1      -6.672  -2.403 127.645  0.00  0.00    +0.031 A 
ATOM     14  C   LIG A   1      -7.240  -2.430 126.383  0.00  0.00    +0.023 A 
ATOM     15  C   LIG A   1      -8.489  -3.036 126.221  0.00  0.00    +0.002 A 
ATOM     16  C   LIG A   1      -9.145  -3.621 127.313  0.00  0.00    +0.000 A 
ATOM     17  C   LIG A   1      -8.554  -3.617 128.577  0.00  0.00    +0.006 A 
ATOM     18  C   LIG A   1      -7.313  -3.016 128.722  0.00  0.00    -0.017 A 
ATOM     19  H   LIG A   1      -5.218  -0.998 127.471  0.00  0.00    +0.146 HD
ENDROOT
BRANCH   1  21
ATOM     20  C   LIG A   1      -9.172   1.104 131.683  0.00  0.00    +0.004 C 
ATOM     21  C   LIG A   1      -8.860  -0.384 131.777  0.00  0.00    +0.002 C 
ENDBRANCH   1  21
TORSDOF 1
ENDMDL
MODEL 9
REMARK VINA RESULT:      -6.4     12.197     16.048
REMARK  Name = NuBBE_1669
REMARK  2 active torsions:
REMARK  status: ('A' for Active; 'I' for Inactive)
REMARK    1  A    between atoms: C_1  and  C_2
REMARK    2  A    between atoms: C_2  and  C_3
REMARK                            x       y       z     vdW  Elec       q    Type
REMARK                         _______ _______ _______ _____ _____    ______ ____
ROOT
ATOM      1  C   LIG A   1      -0.280  11.658 132.631  0.00  0.00    +0.010 C 
ATOM      2  C   LIG A   1       0.880  12.060 133.543  0.00  0.00    -0.003 C 
ATOM      3  C   LIG A   1       0.385  13.250 134.508  0.00  0.00    +0.019 C 
ATOM      4  C   LIG A   1      -1.207  13.546 134.589  0.00  0.00    +0.085 C 
ATOM      5  N   LIG A   1      -2.157  12.399 134.303  0.00  0.00    -0.298 NA
ATOM      6  C   LIG A   1      -2.640  11.706 135.540  0.00  0.00    +0.086 C 
ATOM      7  C   LIG A   1      -2.543  10.167 135.278  0.00  0.00    +0.030 C 
ATOM      8  C   LIG A   1       1.266  10.685 134.308  0.00  0.00    +0.027 C 
ATOM      9  C   LIG A   1      -1.329  11.358 133.700  0.00  0.00    +0.072 C 
ATOM     10  C   LIG A   1      -1.408   9.967 134.251  0.00  0.00    +0.033 C 
ATOM     11  C   LIG A   1       0.079   9.681 134.822  0.00  0.00    +0.083 C 
ATOM     12  N   LIG A   1       0.402   8.283 134.468  0.00  0.00    -0.340 N 
ATOM     13  C   LIG A   1      -0.507   7.948 133.440  0.00  0.00    +0.031 A 
ATOM     14  C   LIG A   1      -0.453   6.793 132.680  0.00  0.00    +0.023 A 
ATOM     15  C   LIG A   1      -1.456   6.563 131.734  0.00  0.00    +0.002 A 
ATOM     16  C   LIG A   1      -2.508   7.476 131.574  0.00  0.00    +0.000 A 
ATOM     17  C   LIG A   1      -2.574   8.624 132.364  0.00  0.00    +0.006 A 
ATOM     18  C   LIG A   1      -1.574   8.838 133.300  0.00  0.00    -0.017 A 
ATOM     19  H   LIG A   1       1.365   8.087 134.210  0.00  0.00    +0.146 HD
ENDROOT
BRANCH   1  21
ATOM     20  C   LIG A   1       0.554  13.062 130.695  0.00  0.00    +0.004 C 
ATOM     21  C   LIG A   1      -0.647  12.675 131.547  0.00  0.00    +0.002 C 
ENDBRANCH   1  21
TORSDOF 1
ENDMDL
