MODEL 1
REMARK VINA RESULT:      -7.5      0.000      0.000
REMARK  Name = NuBBE_320
REMARK  4 active torsions:
REMARK  status: ('A' for Active; 'I' for Inactive)
REMARK    1  A    between atoms: O_1  and  C_2
REMARK    2  A    between atoms: C_7  and  C_8
REMARK    3  A    between atoms: C_12  and  O_13
REMARK    4  A    between atoms: C_15  and  O_16
REMARK                            x       y       z     vdW  Elec       q    Type
REMARK                         _______ _______ _______ _____ _____    ______ ____
ROOT
ATOM      1  C   LIG A   1      -7.301   6.706 131.317  0.00  0.00    +0.139 A 
ATOM      2  C   LIG A   1      -7.966   6.022 132.259  0.00  0.00    +0.098 A 
ATOM      3  C   LIG A   1      -9.434   5.972 132.202  0.00  0.00    +0.197 A 
ATOM      4  C   LIG A   1     -10.086   6.696 131.105  0.00  0.00    +0.105 A 
ATOM      5  C   LIG A   1     -11.477   6.714 130.960  0.00  0.00    +0.135 A 
ATOM      6  C   LIG A   1     -12.063   7.413 129.907  0.00  0.00    +0.091 A 
ATOM      7  C   LIG A   1     -11.248   8.090 129.005  0.00  0.00    +0.124 A 
ATOM      8  C   LIG A   1      -9.862   8.078 129.140  0.00  0.00    +0.092 A 
ATOM      9  C   LIG A   1      -9.280   7.377 130.194  0.00  0.00    +0.146 A 
ATOM     10  O   LIG A   1      -7.910   7.399 130.281  0.00  0.00    -0.454 OA
ATOM     11  O   LIG A   1     -10.090   5.351 133.032  0.00  0.00    -0.287 OA
ENDROOT
BRANCH   1  17
ATOM     12  C   LIG A   1      -3.032   6.990 131.384  0.00  0.00    +0.117 A 
ATOM     13  C   LIG A   1      -3.745   7.683 130.411  0.00  0.00    +0.046 A 
ATOM     14  C   LIG A   1      -5.140   7.591 130.385  0.00  0.00    +0.015 A 
ATOM     15  C   LIG A   1      -3.691   6.215 132.328  0.00  0.00    +0.046 A 
ATOM     16  C   LIG A   1      -5.086   6.126 132.301  0.00  0.00    +0.015 A 
ATOM     17  C   LIG A   1      -5.829   6.805 131.324  0.00  0.00    +0.018 A 
BRANCH  12  18
ATOM     18  O   LIG A   1      -1.673   7.050 131.447  0.00  0.00    -0.507 OA
ATOM     19  H   LIG A   1      -1.362   6.415 132.112  0.00  0.00    +0.292 HD
ENDBRANCH  12  18
ENDBRANCH   1  17
BRANCH   5  20
ATOM     20  O   LIG A   1     -12.325   6.066 131.818  0.00  0.00    -0.506 OA
ATOM     21  H   LIG A   1     -12.552   6.685 132.549  0.00  0.00    +0.292 HD
ENDBRANCH   5  20
BRANCH   7  22
ATOM     22  O   LIG A   1     -11.776   8.788 127.959  0.00  0.00    -0.506 OA
ATOM     23  H   LIG A   1     -11.061   9.020 127.343  0.00  0.00    +0.292 HD
ENDBRANCH   7  22
TORSDOF 4
ENDMDL
MODEL 2
REMARK VINA RESULT:      -7.4      9.227     10.369
REMARK  Name = NuBBE_320
REMARK  4 active torsions:
REMARK  status: ('A' for Active; 'I' for Inactive)
REMARK    1  A    between atoms: O_1  and  C_2
REMARK    2  A    between atoms: C_7  and  C_8
REMARK    3  A    between atoms: C_12  and  O_13
REMARK    4  A    between atoms: C_15  and  O_16
REMARK                            x       y       z     vdW  Elec       q    Type
REMARK                         _______ _______ _______ _____ _____    ______ ____
ROOT
ATOM      1  C   LIG A   1      -7.707   2.751 122.450  0.00  0.00    +0.139 A 
ATOM      2  C   LIG A   1      -9.011   2.441 122.487  0.00  0.00    +0.098 A 
ATOM      3  C   LIG A   1      -9.517   1.616 123.593  0.00  0.00    +0.197 A 
ATOM      4  C   LIG A   1      -8.542   1.170 124.595  0.00  0.00    +0.105 A 
ATOM      5  C   LIG A   1      -8.918   0.380 125.685  0.00  0.00    +0.135 A 
ATOM      6  C   LIG A   1      -7.967  -0.028 126.617  0.00  0.00    +0.091 A 
ATOM      7  C   LIG A   1      -6.641   0.362 126.448  0.00  0.00    +0.124 A 
ATOM      8  C   LIG A   1      -6.256   1.149 125.366  0.00  0.00    +0.092 A 
ATOM      9  C   LIG A   1      -7.212   1.554 124.436  0.00  0.00    +0.146 A 
ATOM     10  O   LIG A   1      -6.779   2.327 123.389  0.00  0.00    -0.454 OA
ATOM     11  O   LIG A   1     -10.702   1.313 123.680  0.00  0.00    -0.287 OA
ENDROOT
BRANCH   1  17
ATOM     12  C   LIG A   1      -6.071   5.089 119.261  0.00  0.00    +0.117 A 
ATOM     13  C   LIG A   1      -5.278   4.795 120.365  0.00  0.00    +0.046 A 
ATOM     14  C   LIG A   1      -5.810   4.032 121.410  0.00  0.00    +0.015 A 
ATOM     15  C   LIG A   1      -7.380   4.632 119.186  0.00  0.00    +0.046 A 
ATOM     16  C   LIG A   1      -7.908   3.869 120.231  0.00  0.00    +0.015 A 
ATOM     17  C   LIG A   1      -7.135   3.566 121.361  0.00  0.00    +0.018 A 
BRANCH  12  18
ATOM     18  O   LIG A   1      -5.595   5.829 118.221  0.00  0.00    -0.507 OA
ATOM     19  H   LIG A   1      -6.075   5.579 117.414  0.00  0.00    +0.292 HD
ENDBRANCH  12  18
ENDBRANCH   1  17
BRANCH   5  20
ATOM     20  O   LIG A   1     -10.207  -0.032 125.900  0.00  0.00    -0.506 OA
ATOM     21  H   LIG A   1     -10.528   0.389 126.729  0.00  0.00    +0.292 HD
ENDBRANCH   5  20
BRANCH   7  22
ATOM     22  O   LIG A   1      -5.674  -0.014 127.334  0.00  0.00    -0.506 OA
ATOM     23  H   LIG A   1      -6.091  -0.211 128.189  0.00  0.00    +0.292 HD
ENDBRANCH   7  22
TORSDOF 4
ENDMDL
MODEL 3
REMARK VINA RESULT:      -7.3      9.384     10.363
REMARK  Name = NuBBE_320
REMARK  4 active torsions:
REMARK  status: ('A' for Active; 'I' for Inactive)
REMARK    1  A    between atoms: O_1  and  C_2
REMARK    2  A    between atoms: C_7  and  C_8
REMARK    3  A    between atoms: C_12  and  O_13
REMARK    4  A    between atoms: C_15  and  O_16
REMARK                            x       y       z     vdW  Elec       q    Type
REMARK                         _______ _______ _______ _____ _____    ______ ____
ROOT
ATOM      1  C   LIG A   1      -6.539   3.071 122.698  0.00  0.00    +0.139 A 
ATOM      2  C   LIG A   1      -5.981   3.492 123.843  0.00  0.00    +0.098 A 
ATOM      3  C   LIG A   1      -6.213   2.722 125.074  0.00  0.00    +0.197 A 
ATOM      4  C   LIG A   1      -7.063   1.531 124.968  0.00  0.00    +0.105 A 
ATOM      5  C   LIG A   1      -7.348   0.731 126.079  0.00  0.00    +0.135 A 
ATOM      6  C   LIG A   1      -8.161  -0.392 125.944  0.00  0.00    +0.091 A 
ATOM      7  C   LIG A   1      -8.682  -0.706 124.692  0.00  0.00    +0.124 A 
ATOM      8  C   LIG A   1      -8.404   0.084 123.579  0.00  0.00    +0.092 A 
ATOM      9  C   LIG A   1      -7.590   1.207 123.720  0.00  0.00    +0.146 A 
ATOM     10  O   LIG A   1      -7.349   1.951 122.592  0.00  0.00    -0.454 OA
ATOM     11  O   LIG A   1      -5.718   3.057 126.145  0.00  0.00    -0.287 OA
ENDROOT
BRANCH   1  17
ATOM     12  C   LIG A   1      -5.981   5.230 119.046  0.00  0.00    +0.117 A 
ATOM     13  C   LIG A   1      -7.160   4.518 119.242  0.00  0.00    +0.046 A 
ATOM     14  C   LIG A   1      -7.345   3.810 120.434  0.00  0.00    +0.015 A 
ATOM     15  C   LIG A   1      -4.992   5.246 120.020  0.00  0.00    +0.046 A 
ATOM     16  C   LIG A   1      -5.180   4.539 121.211  0.00  0.00    +0.015 A 
ATOM     17  C   LIG A   1      -6.355   3.804 121.431  0.00  0.00    +0.018 A 
BRANCH  12  18
ATOM     18  O   LIG A   1      -5.758   5.933 117.901  0.00  0.00    -0.507 OA
ATOM     19  H   LIG A   1      -6.591   6.002 117.408  0.00  0.00    +0.292 HD
ENDBRANCH  12  18
ENDBRANCH   1  17
BRANCH   5  20
ATOM     20  O   LIG A   1      -6.862   0.994 127.333  0.00  0.00    -0.506 OA
ATOM     21  H   LIG A   1      -7.147   1.901 127.587  0.00  0.00    +0.292 HD
ENDBRANCH   5  20
BRANCH   7  22
ATOM     22  O   LIG A   1      -9.483  -1.795 124.511  0.00  0.00    -0.506 OA
ATOM     23  H   LIG A   1      -8.984  -2.475 124.027  0.00  0.00    +0.292 HD
ENDBRANCH   7  22
TORSDOF 4
ENDMDL
MODEL 4
REMARK VINA RESULT:      -7.3      1.684      2.699
REMARK  Name = NuBBE_320
REMARK  4 active torsions:
REMARK  status: ('A' for Active; 'I' for Inactive)
REMARK    1  A    between atoms: O_1  and  C_2
REMARK    2  A    between atoms: C_7  and  C_8
REMARK    3  A    between atoms: C_12  and  O_13
REMARK    4  A    between atoms: C_15  and  O_16
REMARK                            x       y       z     vdW  Elec       q    Type
REMARK                         _______ _______ _______ _____ _____    ______ ____
ROOT
ATOM      1  C   LIG A   1      -9.145   6.547 130.973  0.00  0.00    +0.139 A 
ATOM      2  C   LIG A   1     -10.303   6.429 131.638  0.00  0.00    +0.098 A 
ATOM      3  C   LIG A   1     -11.565   6.629 130.913  0.00  0.00    +0.197 A 
ATOM      4  C   LIG A   1     -11.473   6.962 129.488  0.00  0.00    +0.105 A 
ATOM      5  C   LIG A   1     -12.614   7.175 128.707  0.00  0.00    +0.135 A 
ATOM      6  C   LIG A   1     -12.490   7.491 127.356  0.00  0.00    +0.091 A 
ATOM      7  C   LIG A   1     -11.220   7.592 126.797  0.00  0.00    +0.124 A 
ATOM      8  C   LIG A   1     -10.077   7.381 127.565  0.00  0.00    +0.092 A 
ATOM      9  C   LIG A   1     -10.207   7.065 128.916  0.00  0.00    +0.146 A 
ATOM     10  O   LIG A   1      -9.049   6.869 129.627  0.00  0.00    -0.454 OA
ATOM     11  O   LIG A   1     -12.652   6.521 131.472  0.00  0.00    -0.287 OA
ENDROOT
BRANCH   1  17
ATOM     12  C   LIG A   1      -5.348   6.026 132.877  0.00  0.00    +0.117 A 
ATOM     13  C   LIG A   1      -6.494   5.543 133.500  0.00  0.00    +0.046 A 
ATOM     14  C   LIG A   1      -7.737   5.712 132.882  0.00  0.00    +0.015 A 
ATOM     15  C   LIG A   1      -5.427   6.670 131.650  0.00  0.00    +0.046 A 
ATOM     16  C   LIG A   1      -6.670   6.837 131.033  0.00  0.00    +0.015 A 
ATOM     17  C   LIG A   1      -7.843   6.369 131.644  0.00  0.00    +0.018 A 
BRANCH  12  18
ATOM     18  O   LIG A   1      -4.117   5.884 133.443  0.00  0.00    -0.507 OA
ATOM     19  H   LIG A   1      -3.580   5.303 132.880  0.00  0.00    +0.292 HD
ENDBRANCH  12  18
ENDBRANCH   1  17
BRANCH   5  20
ATOM     20  O   LIG A   1     -13.886   7.089 129.206  0.00  0.00    -0.506 OA
ATOM     21  H   LIG A   1     -14.058   7.894 129.746  0.00  0.00    +0.292 HD
ENDBRANCH   5  20
BRANCH   7  22
ATOM     22  O   LIG A   1     -11.049   7.900 125.479  0.00  0.00    -0.506 OA
ATOM     23  H   LIG A   1     -11.126   7.086 124.953  0.00  0.00    +0.292 HD
ENDBRANCH   7  22
TORSDOF 4
ENDMDL
MODEL 5
REMARK VINA RESULT:      -7.2      1.470      6.528
REMARK  Name = NuBBE_320
REMARK  4 active torsions:
REMARK  status: ('A' for Active; 'I' for Inactive)
REMARK    1  A    between atoms: O_1  and  C_2
REMARK    2  A    between atoms: C_7  and  C_8
REMARK    3  A    between atoms: C_12  and  O_13
REMARK    4  A    between atoms: C_15  and  O_16
REMARK                            x       y       z     vdW  Elec       q    Type
REMARK                         _______ _______ _______ _____ _____    ______ ____
ROOT
ATOM      1  C   LIG A   1      -9.396   6.815 130.950  0.00  0.00    +0.139 A 
ATOM      2  C   LIG A   1      -9.567   6.074 132.054  0.00  0.00    +0.098 A 
ATOM      3  C   LIG A   1      -8.387   5.678 132.836  0.00  0.00    +0.197 A 
ATOM      4  C   LIG A   1      -7.078   6.118 132.342  0.00  0.00    +0.105 A 
ATOM      5  C   LIG A   1      -5.893   5.793 133.010  0.00  0.00    +0.135 A 
ATOM      6  C   LIG A   1      -4.666   6.226 132.512  0.00  0.00    +0.091 A 
ATOM      7  C   LIG A   1      -4.637   6.983 131.345  0.00  0.00    +0.124 A 
ATOM      8  C   LIG A   1      -5.811   7.313 130.672  0.00  0.00    +0.092 A 
ATOM      9  C   LIG A   1      -7.036   6.877 131.174  0.00  0.00    +0.146 A 
ATOM     10  O   LIG A   1      -8.162   7.228 130.472  0.00  0.00    -0.454 OA
ATOM     11  O   LIG A   1      -8.489   5.010 133.860  0.00  0.00    -0.287 OA
ENDROOT
BRANCH   1  17
ATOM     12  C   LIG A   1     -12.727   7.996 128.537  0.00  0.00    +0.117 A 
ATOM     13  C   LIG A   1     -11.445   8.385 128.164  0.00  0.00    +0.046 A 
ATOM     14  C   LIG A   1     -10.354   8.002 128.951  0.00  0.00    +0.015 A 
ATOM     15  C   LIG A   1     -12.932   7.231 129.677  0.00  0.00    +0.046 A 
ATOM     16  C   LIG A   1     -11.840   6.848 130.461  0.00  0.00    +0.015 A 
ATOM     17  C   LIG A   1     -10.538   7.236 130.114  0.00  0.00    +0.018 A 
BRANCH  12  18
ATOM     18  O   LIG A   1     -13.819   8.345 127.801  0.00  0.00    -0.507 OA
ATOM     19  H   LIG A   1     -13.893   9.313 127.792  0.00  0.00    +0.292 HD
ENDBRANCH  12  18
ENDBRANCH   1  17
BRANCH   5  20
ATOM     20  O   LIG A   1      -5.864   5.051 134.161  0.00  0.00    -0.506 OA
ATOM     21  H   LIG A   1      -5.764   5.670 134.921  0.00  0.00    +0.292 HD
ENDBRANCH   5  20
BRANCH   7  22
ATOM     22  O   LIG A   1      -3.460   7.429 130.818  0.00  0.00    -0.506 OA
ATOM     23  H   LIG A   1      -2.868   7.685 131.545  0.00  0.00    +0.292 HD
ENDBRANCH   7  22
TORSDOF 4
ENDMDL
MODEL 6
REMARK VINA RESULT:      -7.2      8.659      9.448
REMARK  Name = NuBBE_320
REMARK  4 active torsions:
REMARK  status: ('A' for Active; 'I' for Inactive)
REMARK    1  A    between atoms: O_1  and  C_2
REMARK    2  A    between atoms: C_7  and  C_8
REMARK    3  A    between atoms: C_12  and  O_13
REMARK    4  A    between atoms: C_15  and  O_16
REMARK                            x       y       z     vdW  Elec       q    Type
REMARK                         _______ _______ _______ _____ _____    ______ ____
ROOT
ATOM      1  C   LIG A   1      -6.313   3.070 123.818  0.00  0.00    +0.139 A 
ATOM      2  C   LIG A   1      -7.587   2.671 123.701  0.00  0.00    +0.098 A 
ATOM      3  C   LIG A   1      -8.301   2.924 122.442  0.00  0.00    +0.197 A 
ATOM      4  C   LIG A   1      -7.562   3.618 121.382  0.00  0.00    +0.105 A 
ATOM      5  C   LIG A   1      -8.149   3.910 120.146  0.00  0.00    +0.135 A 
ATOM      6  C   LIG A   1      -7.419   4.572 119.162  0.00  0.00    +0.091 A 
ATOM      7  C   LIG A   1      -6.102   4.938 119.425  0.00  0.00    +0.124 A 
ATOM      8  C   LIG A   1      -5.508   4.652 120.651  0.00  0.00    +0.092 A 
ATOM      9  C   LIG A   1      -6.243   3.989 121.633  0.00  0.00    +0.146 A 
ATOM     10  O   LIG A   1      -5.610   3.734 122.823  0.00  0.00    -0.454 OA
ATOM     11  O   LIG A   1      -9.464   2.570 122.279  0.00  0.00    -0.287 OA
ENDROOT
BRANCH   1  17
ATOM     12  C   LIG A   1      -4.119   2.430 127.436  0.00  0.00    +0.117 A 
ATOM     13  C   LIG A   1      -3.915   3.602 126.715  0.00  0.00    +0.046 A 
ATOM     14  C   LIG A   1      -4.629   3.814 125.531  0.00  0.00    +0.015 A 
ATOM     15  C   LIG A   1      -5.024   1.474 126.994  0.00  0.00    +0.046 A 
ATOM     16  C   LIG A   1      -5.737   1.689 125.812  0.00  0.00    +0.015 A 
ATOM     17  C   LIG A   1      -5.544   2.857 125.059  0.00  0.00    +0.018 A 
BRANCH  12  18
ATOM     18  O   LIG A   1      -3.446   2.181 128.594  0.00  0.00    -0.507 OA
ATOM     19  H   LIG A   1      -3.360   3.011 129.090  0.00  0.00    +0.292 HD
ENDBRANCH  12  18
ENDBRANCH   1  17
BRANCH   5  20
ATOM     20  O   LIG A   1      -9.440   3.573 119.835  0.00  0.00    -0.506 OA
ATOM     21  H   LIG A   1      -9.793   4.254 119.219  0.00  0.00    +0.292 HD
ENDBRANCH   5  20
BRANCH   7  22
ATOM     22  O   LIG A   1      -5.348   5.588 118.492  0.00  0.00    -0.506 OA
ATOM     23  H   LIG A   1      -5.079   4.954 117.807  0.00  0.00    +0.292 HD
ENDBRANCH   7  22
TORSDOF 4
ENDMDL
MODEL 7
REMARK VINA RESULT:      -7.0      9.532      9.931
REMARK  Name = NuBBE_320
REMARK  4 active torsions:
REMARK  status: ('A' for Active; 'I' for Inactive)
REMARK    1  A    between atoms: O_1  and  C_2
REMARK    2  A    between atoms: C_7  and  C_8
REMARK    3  A    between atoms: C_12  and  O_13
REMARK    4  A    between atoms: C_15  and  O_16
REMARK                            x       y       z     vdW  Elec       q    Type
REMARK                         _______ _______ _______ _____ _____    ______ ____
ROOT
ATOM      1  C   LIG A   1      -7.703  -1.782 126.624  0.00  0.00    +0.139 A 
ATOM      2  C   LIG A   1      -8.284  -2.511 125.661  0.00  0.00    +0.098 A 
ATOM      3  C   LIG A   1      -8.980  -1.821 124.566  0.00  0.00    +0.197 A 
ATOM      4  C   LIG A   1      -9.004  -0.354 124.608  0.00  0.00    +0.105 A 
ATOM      5  C   LIG A   1      -9.641   0.399 123.617  0.00  0.00    +0.135 A 
ATOM      6  C   LIG A   1      -9.646   1.790 123.688  0.00  0.00    +0.091 A 
ATOM      7  C   LIG A   1      -9.009   2.417 124.755  0.00  0.00    +0.124 A 
ATOM      8  C   LIG A   1      -8.370   1.676 125.747  0.00  0.00    +0.092 A 
ATOM      9  C   LIG A   1      -8.369   0.285 125.671  0.00  0.00    +0.146 A 
ATOM     10  O   LIG A   1      -7.727  -0.396 126.674  0.00  0.00    -0.454 OA
ATOM     11  O   LIG A   1      -9.519  -2.440 123.654  0.00  0.00    -0.287 OA
ENDROOT
BRANCH   1  17
ATOM     12  C   LIG A   1      -5.694  -3.605 129.934  0.00  0.00    +0.117 A 
ATOM     13  C   LIG A   1      -4.950  -2.911 128.986  0.00  0.00    +0.046 A 
ATOM     14  C   LIG A   1      -5.603  -2.315 127.901  0.00  0.00    +0.015 A 
ATOM     15  C   LIG A   1      -7.074  -3.708 129.817  0.00  0.00    +0.046 A 
ATOM     16  C   LIG A   1      -7.724  -3.110 128.734  0.00  0.00    +0.015 A 
ATOM     17  C   LIG A   1      -6.998  -2.414 127.756  0.00  0.00    +0.018 A 
BRANCH  12  18
ATOM     18  O   LIG A   1      -5.101  -4.200 131.006  0.00  0.00    -0.507 OA
ATOM     19  H   LIG A   1      -4.149  -4.012 130.982  0.00  0.00    +0.292 HD
ENDBRANCH  12  18
ENDBRANCH   1  17
BRANCH   5  20
ATOM     20  O   LIG A   1     -10.283  -0.166 122.547  0.00  0.00    -0.506 OA
ATOM     21  H   LIG A   1     -11.112  -0.584 122.873  0.00  0.00    +0.292 HD
ENDBRANCH   5  20
BRANCH   7  22
ATOM     22  O   LIG A   1      -8.988   3.776 124.867  0.00  0.00    -0.506 OA
ATOM     23  H   LIG A   1      -8.459   4.144 124.139  0.00  0.00    +0.292 HD
ENDBRANCH   7  22
TORSDOF 4
ENDMDL
MODEL 8
REMARK VINA RESULT:      -6.9      4.053      6.590
REMARK  Name = NuBBE_320
REMARK  4 active torsions:
REMARK  status: ('A' for Active; 'I' for Inactive)
REMARK    1  A    between atoms: O_1  and  C_2
REMARK    2  A    between atoms: C_7  and  C_8
REMARK    3  A    between atoms: C_12  and  O_13
REMARK    4  A    between atoms: C_15  and  O_16
REMARK                            x       y       z     vdW  Elec       q    Type
REMARK                         _______ _______ _______ _____ _____    ______ ____
ROOT
ATOM      1  C   LIG A   1     -10.273   5.522 130.789  0.00  0.00    +0.139 A 
ATOM      2  C   LIG A   1     -10.048   5.414 132.106  0.00  0.00    +0.098 A 
ATOM      3  C   LIG A   1      -9.366   4.217 132.617  0.00  0.00    +0.197 A 
ATOM      4  C   LIG A   1      -8.980   3.196 131.636  0.00  0.00    +0.105 A 
ATOM      5  C   LIG A   1      -8.329   2.019 132.018  0.00  0.00    +0.135 A 
ATOM      6  C   LIG A   1      -7.978   1.070 131.061  0.00  0.00    +0.091 A 
ATOM      7  C   LIG A   1      -8.284   1.309 129.725  0.00  0.00    +0.124 A 
ATOM      8  C   LIG A   1      -8.932   2.478 129.333  0.00  0.00    +0.092 A 
ATOM      9  C   LIG A   1      -9.280   3.425 130.295  0.00  0.00    +0.146 A 
ATOM     10  O   LIG A   1      -9.918   4.558 129.856  0.00  0.00    -0.454 OA
ATOM     11  O   LIG A   1      -9.125   4.074 133.812  0.00  0.00    -0.287 OA
ENDROOT
BRANCH   1  17
ATOM     12  C   LIG A   1     -12.314   8.898 129.131  0.00  0.00    +0.117 A 
ATOM     13  C   LIG A   1     -11.147   8.443 128.525  0.00  0.00    +0.046 A 
ATOM     14  C   LIG A   1     -10.476   7.341 129.065  0.00  0.00    +0.015 A 
ATOM     15  C   LIG A   1     -12.819   8.267 130.260  0.00  0.00    +0.046 A 
ATOM     16  C   LIG A   1     -12.147   7.165 130.797  0.00  0.00    +0.015 A 
ATOM     17  C   LIG A   1     -10.963   6.692 130.213  0.00  0.00    +0.018 A 
BRANCH  12  18
ATOM     18  O   LIG A   1     -13.000   9.967 128.640  0.00  0.00    -0.507 OA
ATOM     19  H   LIG A   1     -13.052  10.649 129.329  0.00  0.00    +0.292 HD
ENDBRANCH  12  18
ENDBRANCH   1  17
BRANCH   5  20
ATOM     20  O   LIG A   1      -8.004   1.733 133.318  0.00  0.00    -0.506 OA
ATOM     21  H   LIG A   1      -8.330   0.827 133.522  0.00  0.00    +0.292 HD
ENDBRANCH   5  20
BRANCH   7  22
ATOM     22  O   LIG A   1      -7.961   0.409 128.752  0.00  0.00    -0.506 OA
ATOM     23  H   LIG A   1      -7.034   0.545 128.492  0.00  0.00    +0.292 HD
ENDBRANCH   7  22
TORSDOF 4
ENDMDL
MODEL 9
REMARK VINA RESULT:      -6.9      8.657     10.032
REMARK  Name = NuBBE_320
REMARK  4 active torsions:
REMARK  status: ('A' for Active; 'I' for Inactive)
REMARK    1  A    between atoms: O_1  and  C_2
REMARK    2  A    between atoms: C_7  and  C_8
REMARK    3  A    between atoms: C_12  and  O_13
REMARK    4  A    between atoms: C_15  and  O_16
REMARK                            x       y       z     vdW  Elec       q    Type
REMARK                         _______ _______ _______ _____ _____    ______ ____
ROOT
ATOM      1  C   LIG A   1      -6.305   3.173 122.811  0.00  0.00    +0.139 A 
ATOM      2  C   LIG A   1      -7.047   2.065 122.952  0.00  0.00    +0.098 A 
ATOM      3  C   LIG A   1      -7.111   1.412 124.267  0.00  0.00    +0.197 A 
ATOM      4  C   LIG A   1      -6.335   2.020 125.354  0.00  0.00    +0.105 A 
ATOM      5  C   LIG A   1      -6.324   1.476 126.643  0.00  0.00    +0.135 A 
ATOM      6  C   LIG A   1      -5.575   2.078 127.652  0.00  0.00    +0.091 A 
ATOM      7  C   LIG A   1      -4.840   3.223 127.359  0.00  0.00    +0.124 A 
ATOM      8  C   LIG A   1      -4.844   3.773 126.080  0.00  0.00    +0.092 A 
ATOM      9  C   LIG A   1      -5.595   3.167 125.074  0.00  0.00    +0.146 A 
ATOM     10  O   LIG A   1      -5.563   3.749 123.832  0.00  0.00    -0.454 OA
ATOM     11  O   LIG A   1      -7.783   0.403 124.453  0.00  0.00    -0.287 OA
ENDROOT
BRANCH   1  17
ATOM     12  C   LIG A   1      -5.951   5.230 119.075  0.00  0.00    +0.117 A 
ATOM     13  C   LIG A   1      -7.078   4.452 119.320  0.00  0.00    +0.046 A 
ATOM     14  C   LIG A   1      -7.197   3.777 120.539  0.00  0.00    +0.015 A 
ATOM     15  C   LIG A   1      -4.948   5.343 120.029  0.00  0.00    +0.046 A 
ATOM     16  C   LIG A   1      -5.069   4.669 121.247  0.00  0.00    +0.015 A 
ATOM     17  C   LIG A   1      -6.190   3.870 121.516  0.00  0.00    +0.018 A 
BRANCH  12  18
ATOM     18  O   LIG A   1      -5.793   5.904 117.902  0.00  0.00    -0.507 OA
ATOM     19  H   LIG A   1      -6.389   5.521 117.239  0.00  0.00    +0.292 HD
ENDBRANCH  12  18
ENDBRANCH   1  17
BRANCH   5  20
ATOM     20  O   LIG A   1      -7.028   0.352 126.984  0.00  0.00    -0.506 OA
ATOM     21  H   LIG A   1      -6.793   0.113 127.910  0.00  0.00    +0.292 HD
ENDBRANCH   5  20
BRANCH   7  22
ATOM     22  O   LIG A   1      -4.091   3.846 128.314  0.00  0.00    -0.506 OA
ATOM     23  H   LIG A   1      -3.326   4.268 127.887  0.00  0.00    +0.292 HD
ENDBRANCH   7  22
TORSDOF 4
ENDMDL
