MODEL 1
REMARK VINA RESULT:      -4.5      0.000      0.000
REMARK  Name = NuBBE_2117
REMARK  9 active torsions:
REMARK  status: ('A' for Active; 'I' for Inactive)
REMARK    1  A    between atoms: C_2  and  C_3
REMARK    2  A    between atoms: C_3  and  C_4
REMARK    3  A    between atoms: C_4  and  C_5
REMARK    4  A    between atoms: C_5  and  C_6
REMARK    5  A    between atoms: C_6  and  C_7
REMARK    6  A    between atoms: C_7  and  C_8
REMARK    7  A    between atoms: C_8  and  C_9
REMARK    8  A    between atoms: C_9  and  C_10
REMARK    9  A    between atoms: C_10  and  C_11
REMARK                            x       y       z     vdW  Elec       q    Type
REMARK                         _______ _______ _______ _____ _____    ______ ____
ROOT
ATOM      1  C   LIG A   1      -7.245  -2.037 126.725  0.00  0.00    +0.000 C 
ENDROOT
BRANCH   1   2
ATOM      2  C   LIG A   1      -5.808  -2.207 126.200  0.00  0.00    +0.000 C 
BRANCH   2   3
ATOM      3  C   LIG A   1      -5.530  -1.576 124.824  0.00  0.00    +0.004 C 
BRANCH   3   4
ATOM      4  C   LIG A   1      -5.464  -2.525 123.653  0.00  0.00    +0.026 C 
BRANCH   4   6
ATOM      5  C   LIG A   1      -4.226  -4.758 123.477  0.00  0.00    +0.004 C 
ATOM      6  C   LIG A   1      -5.186  -3.961 124.004  0.00  0.00    -0.035 C 
ENDBRANCH   4   6
ENDBRANCH   3   4
ENDBRANCH   2   3
ENDBRANCH   1   2
BRANCH   1   7
ATOM      7  C   LIG A   1      -8.228  -3.199 126.466  0.00  0.00    -0.000 C 
BRANCH   7   8
ATOM      8  C   LIG A   1      -9.315  -2.888 125.443  0.00  0.00    -0.000 C 
BRANCH   8   9
ATOM      9  C   LIG A   1      -9.116  -3.426 124.039  0.00  0.00    -0.000 C 
BRANCH   9  10
ATOM     10  C   LIG A   1      -9.126  -2.288 122.999  0.00  0.00    -0.003 C 
ATOM     11  C   LIG A   1      -8.975  -0.869 123.558  0.00  0.00    +0.004 C 
ENDBRANCH   9  10
ENDBRANCH   8   9
ENDBRANCH   7   8
ENDBRANCH   1   7
TORSDOF 8
ENDMDL
MODEL 2
REMARK VINA RESULT:      -4.4      1.505      3.365
REMARK  Name = NuBBE_2117
REMARK  9 active torsions:
REMARK  status: ('A' for Active; 'I' for Inactive)
REMARK    1  A    between atoms: C_2  and  C_3
REMARK    2  A    between atoms: C_3  and  C_4
REMARK    3  A    between atoms: C_4  and  C_5
REMARK    4  A    between atoms: C_5  and  C_6
REMARK    5  A    between atoms: C_6  and  C_7
REMARK    6  A    between atoms: C_7  and  C_8
REMARK    7  A    between atoms: C_8  and  C_9
REMARK    8  A    between atoms: C_9  and  C_10
REMARK    9  A    between atoms: C_10  and  C_11
REMARK                            x       y       z     vdW  Elec       q    Type
REMARK                         _______ _______ _______ _____ _____    ______ ____
ROOT
ATOM      1  C   LIG A   1      -9.190  -3.235 124.067  0.00  0.00    +0.000 C 
ENDROOT
BRANCH   1   2
ATOM      2  C   LIG A   1      -8.264  -2.799 122.917  0.00  0.00    +0.000 C 
BRANCH   2   3
ATOM      3  C   LIG A   1      -7.021  -1.997 123.340  0.00  0.00    +0.004 C 
BRANCH   3   4
ATOM      4  C   LIG A   1      -5.684  -2.577 122.950  0.00  0.00    +0.026 C 
BRANCH   4   6
ATOM      5  C   LIG A   1      -4.279  -4.616 123.594  0.00  0.00    +0.004 C 
ATOM      6  C   LIG A   1      -5.129  -3.607 123.896  0.00  0.00    -0.035 C 
ENDBRANCH   4   6
ENDBRANCH   3   4
ENDBRANCH   2   3
ENDBRANCH   1   2
BRANCH   1   7
ATOM      7  C   LIG A   1      -8.512  -3.765 125.350  0.00  0.00    -0.000 C 
BRANCH   7   8
ATOM      8  C   LIG A   1      -8.990  -3.099 126.635  0.00  0.00    -0.000 C 
BRANCH   8   9
ATOM      9  C   LIG A   1      -9.104  -3.976 127.868  0.00  0.00    -0.000 C 
BRANCH   9  10
ATOM     10  C   LIG A   1      -8.365  -3.350 129.067  0.00  0.00    -0.003 C 
ATOM     11  C   LIG A   1      -7.106  -2.543 128.732  0.00  0.00    +0.004 C 
ENDBRANCH   9  10
ENDBRANCH   8   9
ENDBRANCH   7   8
ENDBRANCH   1   7
TORSDOF 8
ENDMDL
MODEL 3
REMARK VINA RESULT:      -4.4      1.441      4.533
REMARK  Name = NuBBE_2117
REMARK  9 active torsions:
REMARK  status: ('A' for Active; 'I' for Inactive)
REMARK    1  A    between atoms: C_2  and  C_3
REMARK    2  A    between atoms: C_3  and  C_4
REMARK    3  A    between atoms: C_4  and  C_5
REMARK    4  A    between atoms: C_5  and  C_6
REMARK    5  A    between atoms: C_6  and  C_7
REMARK    6  A    between atoms: C_7  and  C_8
REMARK    7  A    between atoms: C_8  and  C_9
REMARK    8  A    between atoms: C_9  and  C_10
REMARK    9  A    between atoms: C_10  and  C_11
REMARK                            x       y       z     vdW  Elec       q    Type
REMARK                         _______ _______ _______ _____ _____    ______ ____
ROOT
ATOM      1  C   LIG A   1      -9.152  -3.220 124.720  0.00  0.00    +0.000 C 
ENDROOT
BRANCH   1   2
ATOM      2  C   LIG A   1      -9.458  -2.863 126.186  0.00  0.00    +0.000 C 
BRANCH   2   3
ATOM      3  C   LIG A   1      -8.980  -3.890 127.227  0.00  0.00    +0.004 C 
BRANCH   3   4
ATOM      4  C   LIG A   1      -8.469  -3.333 128.533  0.00  0.00    +0.026 C 
BRANCH   4   6
ATOM      5  C   LIG A   1      -6.202  -2.282 127.981  0.00  0.00    +0.004 C 
ATOM      6  C   LIG A   1      -7.484  -2.202 128.408  0.00  0.00    -0.035 C 
ENDBRANCH   4   6
ENDBRANCH   3   4
ENDBRANCH   2   3
ENDBRANCH   1   2
BRANCH   1   7
ATOM      7  C   LIG A   1      -7.698  -3.619 124.384  0.00  0.00    -0.000 C 
BRANCH   7   8
ATOM      8  C   LIG A   1      -6.746  -2.441 124.211  0.00  0.00    -0.000 C 
BRANCH   8   9
ATOM      9  C   LIG A   1      -5.275  -2.697 124.474  0.00  0.00    -0.000 C 
BRANCH   9  10
ATOM     10  C   LIG A   1      -4.613  -3.421 123.284  0.00  0.00    -0.003 C 
ATOM     11  C   LIG A   1      -4.282  -4.901 123.500  0.00  0.00    +0.004 C 
ENDBRANCH   9  10
ENDBRANCH   8   9
ENDBRANCH   7   8
ENDBRANCH   1   7
TORSDOF 8
ENDMDL
MODEL 4
REMARK VINA RESULT:      -4.3      0.873      4.090
REMARK  Name = NuBBE_2117
REMARK  9 active torsions:
REMARK  status: ('A' for Active; 'I' for Inactive)
REMARK    1  A    between atoms: C_2  and  C_3
REMARK    2  A    between atoms: C_3  and  C_4
REMARK    3  A    between atoms: C_4  and  C_5
REMARK    4  A    between atoms: C_5  and  C_6
REMARK    5  A    between atoms: C_6  and  C_7
REMARK    6  A    between atoms: C_7  and  C_8
REMARK    7  A    between atoms: C_8  and  C_9
REMARK    8  A    between atoms: C_9  and  C_10
REMARK    9  A    between atoms: C_10  and  C_11
REMARK                            x       y       z     vdW  Elec       q    Type
REMARK                         _______ _______ _______ _____ _____    ______ ____
ROOT
ATOM      1  C   LIG A   1      -6.492  -1.524 126.970  0.00  0.00    +0.000 C 
ENDROOT
BRANCH   1   2
ATOM      2  C   LIG A   1      -7.796  -2.078 127.572  0.00  0.00    +0.000 C 
BRANCH   2   3
ATOM      3  C   LIG A   1      -8.424  -3.258 126.810  0.00  0.00    +0.004 C 
BRANCH   3   4
ATOM      4  C   LIG A   1      -9.446  -2.909 125.757  0.00  0.00    +0.026 C 
BRANCH   4   6
ATOM      5  C   LIG A   1      -9.279  -2.944 123.203  0.00  0.00    +0.004 C 
ATOM      6  C   LIG A   1      -9.229  -3.550 124.413  0.00  0.00    -0.035 C 
ENDBRANCH   4   6
ENDBRANCH   3   4
ENDBRANCH   2   3
ENDBRANCH   1   2
BRANCH   1   7
ATOM      7  C   LIG A   1      -5.829  -2.354 125.849  0.00  0.00    -0.000 C 
BRANCH   7   8
ATOM      8  C   LIG A   1      -5.920  -1.724 124.463  0.00  0.00    -0.000 C 
BRANCH   8   9
ATOM      9  C   LIG A   1      -5.604  -2.616 123.277  0.00  0.00    -0.000 C 
BRANCH   9  10
ATOM     10  C   LIG A   1      -4.301  -3.407 123.507  0.00  0.00    -0.003 C 
ATOM     11  C   LIG A   1      -4.441  -4.933 123.543  0.00  0.00    +0.004 C 
ENDBRANCH   9  10
ENDBRANCH   8   9
ENDBRANCH   7   8
ENDBRANCH   1   7
TORSDOF 8
ENDMDL
MODEL 5
REMARK VINA RESULT:      -4.3      1.365      4.266
REMARK  Name = NuBBE_2117
REMARK  9 active torsions:
REMARK  status: ('A' for Active; 'I' for Inactive)
REMARK    1  A    between atoms: C_2  and  C_3
REMARK    2  A    between atoms: C_3  and  C_4
REMARK    3  A    between atoms: C_4  and  C_5
REMARK    4  A    between atoms: C_5  and  C_6
REMARK    5  A    between atoms: C_6  and  C_7
REMARK    6  A    between atoms: C_7  and  C_8
REMARK    7  A    between atoms: C_8  and  C_9
REMARK    8  A    between atoms: C_9  and  C_10
REMARK    9  A    between atoms: C_10  and  C_11
REMARK                            x       y       z     vdW  Elec       q    Type
REMARK                         _______ _______ _______ _____ _____    ______ ____
ROOT
ATOM      1  C   LIG A   1      -6.678   0.054 124.582  0.00  0.00    +0.000 C 
ENDROOT
BRANCH   1   2
ATOM      2  C   LIG A   1      -7.816   0.014 125.617  0.00  0.00    +0.000 C 
BRANCH   2   3
ATOM      3  C   LIG A   1      -8.966  -0.956 125.296  0.00  0.00    +0.004 C 
BRANCH   3   4
ATOM      4  C   LIG A   1      -8.786  -2.383 125.751  0.00  0.00    +0.026 C 
BRANCH   4   6
ATOM      5  C   LIG A   1      -9.524  -3.232 123.453  0.00  0.00    +0.004 C 
ATOM      6  C   LIG A   1      -9.040  -3.430 124.701  0.00  0.00    -0.035 C 
ENDBRANCH   4   6
ENDBRANCH   3   4
ENDBRANCH   2   3
ENDBRANCH   1   2
BRANCH   1   7
ATOM      7  C   LIG A   1      -6.969  -0.560 123.195  0.00  0.00    -0.000 C 
BRANCH   7   8
ATOM      8  C   LIG A   1      -6.151  -1.805 122.873  0.00  0.00    -0.000 C 
BRANCH   8   9
ATOM      9  C   LIG A   1      -5.316  -2.392 123.995  0.00  0.00    -0.000 C 
BRANCH   9  10
ATOM     10  C   LIG A   1      -5.407  -3.931 124.010  0.00  0.00    -0.003 C 
ATOM     11  C   LIG A   1      -4.168  -4.681 123.509  0.00  0.00    +0.004 C 
ENDBRANCH   9  10
ENDBRANCH   8   9
ENDBRANCH   7   8
ENDBRANCH   1   7
TORSDOF 8
ENDMDL
MODEL 6
REMARK VINA RESULT:      -4.3     10.677     12.426
REMARK  Name = NuBBE_2117
REMARK  9 active torsions:
REMARK  status: ('A' for Active; 'I' for Inactive)
REMARK    1  A    between atoms: C_2  and  C_3
REMARK    2  A    between atoms: C_3  and  C_4
REMARK    3  A    between atoms: C_4  and  C_5
REMARK    4  A    between atoms: C_5  and  C_6
REMARK    5  A    between atoms: C_6  and  C_7
REMARK    6  A    between atoms: C_7  and  C_8
REMARK    7  A    between atoms: C_8  and  C_9
REMARK    8  A    between atoms: C_9  and  C_10
REMARK    9  A    between atoms: C_10  and  C_11
REMARK                            x       y       z     vdW  Elec       q    Type
REMARK                         _______ _______ _______ _____ _____    ______ ____
ROOT
ATOM      1  C   LIG A   1     -11.697   6.514 131.623  0.00  0.00    +0.000 C 
ENDROOT
BRANCH   1   2
ATOM      2  C   LIG A   1     -12.759   7.509 131.123  0.00  0.00    +0.000 C 
BRANCH   2   3
ATOM      3  C   LIG A   1     -12.909   7.602 129.595  0.00  0.00    +0.004 C 
BRANCH   3   4
ATOM      4  C   LIG A   1     -12.310   8.820 128.935  0.00  0.00    +0.026 C 
BRANCH   4   6
ATOM      5  C   LIG A   1     -10.886   7.631 127.172  0.00  0.00    +0.004 C 
ATOM      6  C   LIG A   1     -11.061   8.568 128.133  0.00  0.00    -0.035 C 
ENDBRANCH   4   6
ENDBRANCH   3   4
ENDBRANCH   2   3
ENDBRANCH   1   2
BRANCH   1   7
ATOM      7  C   LIG A   1     -11.157   5.492 130.598  0.00  0.00    -0.000 C 
BRANCH   7   8
ATOM      8  C   LIG A   1      -9.695   5.694 130.218  0.00  0.00    -0.000 C 
BRANCH   8   9
ATOM      9  C   LIG A   1      -9.052   7.008 130.618  0.00  0.00    -0.000 C 
BRANCH   9  10
ATOM     10  C   LIG A   1      -7.662   6.780 131.245  0.00  0.00    -0.003 C 
ATOM     11  C   LIG A   1      -7.626   5.887 132.490  0.00  0.00    +0.004 C 
ENDBRANCH   9  10
ENDBRANCH   8   9
ENDBRANCH   7   8
ENDBRANCH   1   7
TORSDOF 8
ENDMDL
MODEL 7
REMARK VINA RESULT:      -4.2      1.105      2.227
REMARK  Name = NuBBE_2117
REMARK  9 active torsions:
REMARK  status: ('A' for Active; 'I' for Inactive)
REMARK    1  A    between atoms: C_2  and  C_3
REMARK    2  A    between atoms: C_3  and  C_4
REMARK    3  A    between atoms: C_4  and  C_5
REMARK    4  A    between atoms: C_5  and  C_6
REMARK    5  A    between atoms: C_6  and  C_7
REMARK    6  A    between atoms: C_7  and  C_8
REMARK    7  A    between atoms: C_8  and  C_9
REMARK    8  A    between atoms: C_9  and  C_10
REMARK    9  A    between atoms: C_10  and  C_11
REMARK                            x       y       z     vdW  Elec       q    Type
REMARK                         _______ _______ _______ _____ _____    ______ ____
ROOT
ATOM      1  C   LIG A   1      -8.257  -3.673 124.634  0.00  0.00    +0.000 C 
ENDROOT
BRANCH   1   2
ATOM      2  C   LIG A   1      -7.526  -2.622 125.488  0.00  0.00    +0.000 C 
BRANCH   2   3
ATOM      3  C   LIG A   1      -5.990  -2.707 125.466  0.00  0.00    +0.004 C 
BRANCH   3   4
ATOM      4  C   LIG A   1      -5.312  -2.254 124.197  0.00  0.00    +0.026 C 
BRANCH   4   6
ATOM      5  C   LIG A   1      -4.441  -4.613 123.719  0.00  0.00    +0.004 C 
ATOM      6  C   LIG A   1      -4.765  -3.357 123.331  0.00  0.00    -0.035 C 
ENDBRANCH   4   6
ENDBRANCH   3   4
ENDBRANCH   2   3
ENDBRANCH   1   2
BRANCH   1   7
ATOM      7  C   LIG A   1      -9.209  -3.147 123.537  0.00  0.00    -0.000 C 
BRANCH   7   8
ATOM      8  C   LIG A   1      -8.715  -1.893 122.824  0.00  0.00    -0.000 C 
BRANCH   8   9
ATOM      9  C   LIG A   1      -9.679  -0.726 122.731  0.00  0.00    -0.000 C 
BRANCH   9  10
ATOM     10  C   LIG A   1      -9.041   0.569 123.274  0.00  0.00    -0.003 C 
ATOM     11  C   LIG A   1      -7.520   0.540 123.458  0.00  0.00    +0.004 C 
ENDBRANCH   9  10
ENDBRANCH   8   9
ENDBRANCH   7   8
ENDBRANCH   1   7
TORSDOF 8
ENDMDL
MODEL 8
REMARK VINA RESULT:      -4.1      2.036      3.805
REMARK  Name = NuBBE_2117
REMARK  9 active torsions:
REMARK  status: ('A' for Active; 'I' for Inactive)
REMARK    1  A    between atoms: C_2  and  C_3
REMARK    2  A    between atoms: C_3  and  C_4
REMARK    3  A    between atoms: C_4  and  C_5
REMARK    4  A    between atoms: C_5  and  C_6
REMARK    5  A    between atoms: C_6  and  C_7
REMARK    6  A    between atoms: C_7  and  C_8
REMARK    7  A    between atoms: C_8  and  C_9
REMARK    8  A    between atoms: C_9  and  C_10
REMARK    9  A    between atoms: C_10  and  C_11
REMARK                            x       y       z     vdW  Elec       q    Type
REMARK                         _______ _______ _______ _____ _____    ______ ____
ROOT
ATOM      1  C   LIG A   1      -8.028  -2.381 126.303  0.00  0.00    +0.000 C 
ENDROOT
BRANCH   1   2
ATOM      2  C   LIG A   1      -6.681  -2.564 125.581  0.00  0.00    +0.000 C 
BRANCH   2   3
ATOM      3  C   LIG A   1      -6.776  -2.946 124.094  0.00  0.00    +0.004 C 
BRANCH   3   4
ATOM      4  C   LIG A   1      -5.546  -2.697 123.257  0.00  0.00    +0.026 C 
BRANCH   4   6
ATOM      5  C   LIG A   1      -4.321  -4.933 123.482  0.00  0.00    +0.004 C 
ATOM      6  C   LIG A   1      -4.368  -3.582 123.565  0.00  0.00    -0.035 C 
ENDBRANCH   4   6
ENDBRANCH   3   4
ENDBRANCH   2   3
ENDBRANCH   1   2
BRANCH   1   7
ATOM      7  C   LIG A   1      -8.739  -3.661 126.795  0.00  0.00    -0.000 C 
BRANCH   7   8
ATOM      8  C   LIG A   1      -8.819  -3.793 128.311  0.00  0.00    -0.000 C 
BRANCH   8   9
ATOM      9  C   LIG A   1      -8.086  -2.752 129.135  0.00  0.00    -0.000 C 
BRANCH   9  10
ATOM     10  C   LIG A   1      -7.201  -3.415 130.211  0.00  0.00    -0.003 C 
ATOM     11  C   LIG A   1      -5.725  -3.597 129.845  0.00  0.00    +0.004 C 
ENDBRANCH   9  10
ENDBRANCH   8   9
ENDBRANCH   7   8
ENDBRANCH   1   7
TORSDOF 8
ENDMDL
MODEL 9
REMARK VINA RESULT:      -4.1     10.946     13.257
REMARK  Name = NuBBE_2117
REMARK  9 active torsions:
REMARK  status: ('A' for Active; 'I' for Inactive)
REMARK    1  A    between atoms: C_2  and  C_3
REMARK    2  A    between atoms: C_3  and  C_4
REMARK    3  A    between atoms: C_4  and  C_5
REMARK    4  A    between atoms: C_5  and  C_6
REMARK    5  A    between atoms: C_6  and  C_7
REMARK    6  A    between atoms: C_7  and  C_8
REMARK    7  A    between atoms: C_8  and  C_9
REMARK    8  A    between atoms: C_9  and  C_10
REMARK    9  A    between atoms: C_10  and  C_11
REMARK                            x       y       z     vdW  Elec       q    Type
REMARK                         _______ _______ _______ _____ _____    ______ ____
ROOT
ATOM      1  C   LIG A   1     -11.028   8.247 127.307  0.00  0.00    +0.000 C 
ENDROOT
BRANCH   1   2
ATOM      2  C   LIG A   1     -12.252   7.316 127.377  0.00  0.00    +0.000 C 
BRANCH   2   3
ATOM      3  C   LIG A   1     -13.427   7.835 128.223  0.00  0.00    +0.004 C 
BRANCH   3   4
ATOM      4  C   LIG A   1     -13.510   9.331 128.408  0.00  0.00    +0.026 C 
BRANCH   4   6
ATOM      5  C   LIG A   1     -13.447  11.024 130.326  0.00  0.00    +0.004 C 
ATOM      6  C   LIG A   1     -13.124   9.831 129.774  0.00  0.00    -0.035 C 
ENDBRANCH   4   6
ENDBRANCH   3   4
ENDBRANCH   2   3
ENDBRANCH   1   2
BRANCH   1   7
ATOM      7  C   LIG A   1     -10.147   8.344 128.572  0.00  0.00    -0.000 C 
BRANCH   7   8
ATOM      8  C   LIG A   1      -9.964   7.025 129.314  0.00  0.00    -0.000 C 
BRANCH   8   9
ATOM      9  C   LIG A   1     -10.549   6.929 130.709  0.00  0.00    -0.000 C 
BRANCH   9  10
ATOM     10  C   LIG A   1     -11.571   5.778 130.808  0.00  0.00    -0.003 C 
ATOM     11  C   LIG A   1     -11.023   4.372 130.543  0.00  0.00    +0.004 C 
ENDBRANCH   9  10
ENDBRANCH   8   9
ENDBRANCH   7   8
ENDBRANCH   1   7
TORSDOF 8
ENDMDL
